#	Name: ASD01918584
#	Creating user name:	WinNT
#	Creation time:	15. 06. 2019 20:11

#	Modifying user name:	WinNT
#	Modification time:	15. 06. 2019 20:11

#	Program:	/corina/corina34_cracker 3.40 0067  02.08.2006

@<TRIPOS>MOLECULE
ASD01918584
  39   41    0    0    0
SMALL
NO_CHARGES


@<TRIPOS>ATOM
   1 C1            -0.0168     1.3871     0.0097 C.ar    
   2 C2             0.0021    -0.0041     0.0020 C.ar    
   3 C3             1.2289    -0.6620    -0.0132 C.ar    
   4 C4             2.3909     0.1049    -0.0202 C.ar    
   5 C5             2.2913     1.4844    -0.0118 C.ar    
   6 N6             1.1171     2.0787     0.0026 N.ar    
   7 C7            -1.3133     2.1035     0.0197 C.2     
   8 O8            -2.3541     1.4761     0.0212 O.2     
   9 N9            -1.3386     3.4510     0.0271 N.am    
  10 O10            1.2907    -2.0180    -0.0206 O.3     
  11 O11           -0.9654    -4.3467    -1.4651 O.3     
  12 C12           -0.4252    -3.0201    -1.4514 C.3     
  13 C13            0.0484    -2.7241    -0.0121 C.3     
  14 C14            0.2272    -4.1504     0.5759 C.3     
  15 C15           -0.9140    -4.9110    -0.1451 C.3     
  16 S16           -4.0890     3.3696     0.0402 S.3     
  17 C17           -2.5541     4.1226     0.0365 C.2     
  18 N18           -2.6901     5.4119     0.0444 N.2     
  19 C19           -3.9231     5.8825     0.0535 C.2     
  20 C20           -4.8744     4.9465     0.0532 C.2     
  21 C21           -4.2319     7.3575     0.0634 C.3     
  22 C22            3.5459     2.3193    -0.0193 C.3     
  23 H23           -0.9208    -0.5650     0.0082 H       
  24 H24            3.3597    -0.3723    -0.0316 H       
  25 H25           -0.5078     3.9517     0.0259 H       
  26 H26            0.4186    -2.9574    -2.1386 H       
  27 H27           -1.1944    -2.3046    -1.7421 H       
  28 H28           -0.7106    -2.1694     0.5396 H       
  29 H29            1.2013    -4.5637     0.3145 H       
  30 H30            0.0791    -4.1515     1.6558 H       
  31 H31           -1.8604    -4.7516     0.3716 H       
  32 H32           -0.6851    -5.9754    -0.1974 H       
  33 H33           -5.9396     5.1246     0.0594 H       
  34 H34           -4.3121     7.7188    -0.9619 H       
  35 H35           -5.1745     7.5280     0.5835 H       
  36 H36           -3.4323     7.8927     0.5757 H       
  37 H37            3.8386     2.5261    -1.0487 H       
  38 H38            3.3602     3.2587     0.5014 H       
  39 H39            4.3463     1.7769     0.4840 H       
@<TRIPOS>BOND
   1    1    2 ar
   2    1    6 ar
   3    1    7 1
   4    2    3 ar
   5    2   23 1
   6    3    4 ar
   7    3   10 1
   8    4    5 ar
   9    4   24 1
  10    5    6 ar
  11    5   22 1
  12    7    8 2
  13    7    9 am
  14    9   17 1
  15    9   25 1
  16   10   13 1
  17   11   12 1
  18   11   15 1
  19   12   13 1
  20   12   26 1
  21   12   27 1
  22   13   14 1
  23   13   28 1
  24   14   15 1
  25   14   29 1
  26   14   30 1
  27   15   31 1
  28   15   32 1
  29   16   17 1
  30   16   20 1
  31   17   18 2
  32   18   19 1
  33   19   20 2
  34   19   21 1
  35   20   33 1
  36   21   34 1
  37   21   35 1
  38   21   36 1
  39   22   37 1
  40   22   38 1
  41   22   39 1

#	End of record

