#	Name: ASD01920019
#	Creating user name:	WinNT
#	Creation time:	15. 06. 2019 20:11

#	Modifying user name:	WinNT
#	Modification time:	15. 06. 2019 20:11

#	Program:	/corina/corina34_cracker 3.40 0067  02.08.2006

@<TRIPOS>MOLECULE
ASD01920019
  45   48    0    0    0
SMALL
NO_CHARGES


@<TRIPOS>ATOM
   1 N1            -0.0100     1.3932     0.1258 N.am    
   2 C2            -0.0056     0.0279     0.0095 C.2     
   3 C3            -1.1669    -0.6818    -0.0872 C.2     
   4 C4            -2.3934    -0.0067    -0.0673 C.2     
   5 C5            -2.3885     1.3947     0.0528 C.2     
   6 C6            -1.1693     2.0854     0.1543 C.2     
   7 O7            -3.6842    -0.3592    -0.1370 O.3     
   8 N8            -4.4380     0.5853    -0.0792 N.2     
   9 C9            -3.8149     1.7339     0.0382 C.2     
  10 C10           -4.4222     3.0837     0.1347 C.ar    
  11 O11           -1.1577     3.3000     0.2587 O.2     
  12 C12            1.2623     2.1125     0.2267 C.3     
  13 C13            1.2851    -0.6917    -0.0122 C.ar    
  14 C14           -5.5874     3.3786    -0.5708 C.ar    
  15 C15           -6.1482     4.6361    -0.4769 C.ar    
  16 C16           -5.5561     5.6029     0.3156 C.ar    
  17 C17           -4.3996     5.3158     1.0181 C.ar    
  18 C18           -3.8329     4.0601     0.9358 C.ar    
  19 C19            1.4865    -1.7940     0.8206 C.ar    
  20 C20            2.6927    -2.4646     0.7982 C.ar    
  21 C21            3.7044    -2.0486    -0.0465 C.ar    
  22 C22            3.5140    -0.9520    -0.8799 C.ar    
  23 C23            2.3043    -0.2752    -0.8691 C.ar    
  24 N24            4.5400    -0.5353    -1.7315 N.pl3   
  25 C25            5.8568    -1.1733    -1.6588 C.3     
  26 C26            4.2992     0.5396    -2.6973 C.3     
  27 H27           -1.1403    -1.7575    -0.1788 H       
  28 H28            1.6539     2.3000    -0.7731 H       
  29 H29            1.1034     3.0616     0.7386 H       
  30 H30            1.9760     1.5111     0.7896 H       
  31 H31           -6.0503     2.6246    -1.1902 H       
  32 H32           -7.0509     4.8658    -1.0235 H       
  33 H33           -5.9983     6.5857     0.3859 H       
  34 H34           -3.9414     6.0746     1.6351 H       
  35 H35           -2.9301     3.8369     1.4850 H       
  36 H36            0.6987    -2.1218     1.4827 H       
  37 H37            2.8465    -3.3171     1.4432 H       
  38 H38            4.6463    -2.5770    -0.0591 H       
  39 H39            2.1542     0.5766    -1.5158 H       
  40 H40            5.8859    -2.0250    -2.3385 H       
  41 H41            6.6250    -0.4545    -1.9439 H       
  42 H42            6.0392    -1.5151    -0.6400 H       
  43 H43            3.3006     0.9487    -2.5441 H       
  44 H44            5.0399     1.3269    -2.5569 H       
  45 H45            4.3780     0.1430    -3.7095 H       
@<TRIPOS>BOND
   1    1    2 1
   2    1   12 1
   3    1    6 am
   4    2    3 2
   5    2   13 1
   6    3    4 1
   7    3   27 1
   8    4    5 2
   9    4    7 1
  10    5    6 1
  11    5    9 1
  12    6   11 2
  13    7    8 1
  14    8    9 2
  15    9   10 1
  16   10   14 ar
  17   10   18 ar
  18   12   28 1
  19   12   29 1
  20   12   30 1
  21   13   19 ar
  22   13   23 ar
  23   14   15 ar
  24   14   31 1
  25   15   16 ar
  26   15   32 1
  27   16   17 ar
  28   16   33 1
  29   17   18 ar
  30   17   34 1
  31   18   35 1
  32   19   20 ar
  33   19   36 1
  34   20   21 ar
  35   20   37 1
  36   21   22 ar
  37   21   38 1
  38   22   23 ar
  39   22   24 1
  40   23   39 1
  41   24   25 1
  42   24   26 1
  43   25   40 1
  44   25   41 1
  45   25   42 1
  46   26   43 1
  47   26   44 1
  48   26   45 1

#	End of record

