#	Name: ASD00170292
#	Creating user name:	WinNT
#	Creation time:	15. 06. 2019 18:31

#	Modifying user name:	WinNT
#	Modification time:	15. 06. 2019 18:31

#	Program:	/corina/corina34_cracker 3.40 0067  02.08.2006

@<TRIPOS>MOLECULE
ASD00170292
  27   29    0    0    0
SMALL
NO_CHARGES


@<TRIPOS>ATOM
   1 C1            -0.1242     1.2976    -0.0594 C.2     
   2 C2            -0.0348    -0.0648    -0.0032 C.2     
   3 C3            -1.3343    -0.7241     0.0986 C.2     
   4 C4            -2.3429     0.1416     0.1159 C.2     
   5 S5            -1.7479     1.7985     0.0148 S.3     
   6 C6             1.2377    -0.7919    -0.0414 C.2     
   7 C7             1.7759    -1.2615    -1.3224 C.2     
   8 O8             1.8485    -1.0062     0.9918 O.2     
   9 N9             0.9574     2.1520    -0.1571 N.pl3   
  10 S10            0.9975    -1.0698    -2.8873 S.3     
  11 C11            2.2829    -1.8668    -3.6769 C.2     
  12 C12            3.2235    -2.2430    -2.8007 C.2     
  13 C13            2.9655    -1.9129    -1.4914 C.2     
  14 Br14           2.3679    -2.1781    -5.5402 Br      
  15 C15           -1.8631    -2.1527     0.1920 C.3     
  16 C16           -3.3065    -2.0082     0.7142 C.3     
  17 C17           -3.6738    -0.5933     0.2234 C.3     
  18 H18            1.8598     1.7996    -0.1086 H       
  19 H19            0.8142     3.1042    -0.2743 H       
  20 H20            4.1205    -2.7640    -3.1012 H       
  21 H21            3.6327    -2.1515    -0.6764 H       
  22 H22           -1.8610    -2.6227    -0.7915 H       
  23 H23           -1.2630    -2.7339     0.8921 H       
  24 H24           -3.9600    -2.7581     0.2686 H       
  25 H25           -3.3356    -2.0639     1.8024 H       
  26 H26           -4.3232    -0.0981     0.9454 H       
  27 H27           -4.1587    -0.6441    -0.7515 H       
@<TRIPOS>BOND
   1    1    2 2
   2    1    9 1
   3    1    5 1
   4    2    3 1
   5    2    6 1
   6    3    4 2
   7    3   15 1
   8    4    5 1
   9    4   17 1
  10    6    7 1
  11    6    8 2
  12    7   10 1
  13    7   13 2
  14    9   18 1
  15    9   19 1
  16   10   11 1
  17   11   12 2
  18   11   14 1
  19   12   13 1
  20   12   20 1
  21   13   21 1
  22   15   16 1
  23   15   22 1
  24   15   23 1
  25   16   17 1
  26   16   24 1
  27   16   25 1
  28   17   26 1
  29   17   27 1

#	End of record

