#	Name: ASD01884483
#	Creating user name:	WinNT
#	Creation time:	15. 06. 2019 19:48

#	Modifying user name:	WinNT
#	Modification time:	15. 06. 2019 19:48

#	Program:	/corina/corina34_cracker 3.40 0067  02.08.2006

@<TRIPOS>MOLECULE
ASD01884483
  43   45    0    0    0
SMALL
NO_CHARGES


@<TRIPOS>ATOM
   1 C1            -0.0164     1.3575     0.0095 C.2     
   2 C2             0.0021    -0.0041     0.0020 C.2     
   3 C3             1.2441    -0.6750    -0.0134 C.2     
   4 C4             2.4025     0.0467    -0.0206 C.2     
   5 N5             2.3701     1.4021    -0.0126 N.am    
   6 C6             1.1988     2.0651     0.0017 C.2     
   7 C7             1.2899    -2.1583    -0.0214 C.ar    
   8 C8             3.6267     2.1552    -0.0201 C.3     
   9 O9             1.1914     3.2854     0.0087 O.2     
  10 C10            4.0443     2.4215    -1.4434 C.ar    
  11 C11            3.6204     3.5706    -2.0843 C.ar    
  12 C12            4.0030     3.8154    -3.3896 C.ar    
  13 C13            4.8105     2.9101    -4.0549 C.ar    
  14 C14            5.2345     1.7602    -3.4129 C.ar    
  15 C15            4.8558     1.5193    -2.1057 C.ar    
  16 C16            0.8133    -2.8770     1.0714 C.ar    
  17 C17            1.8051    -2.8356    -1.1255 C.ar    
  18 C18            1.8463    -4.2154    -1.1320 C.ar    
  19 C19            1.3783    -4.9300    -0.0455 C.ar    
  20 C20            0.8586    -4.2634     1.0575 C.ar    
  21 Cl21           5.2910     3.2166    -5.6946 Cl      
  22 N22            0.3864    -4.9889     2.1539 N.am    
  23 S23            1.2702    -6.2555     2.7513 S.o2    
  24 O24            0.4833    -6.7573     3.8228 O.2     
  25 O25            1.5508    -7.0557     1.6111 O.2     
  26 C26            2.7894    -5.4901     3.3813 C.3     
  27 H27           -0.9563     1.8894     0.0168 H       
  28 H28           -0.9217    -0.5636     0.0082 H       
  29 H29            3.3529    -0.4662    -0.0325 H       
  30 H30            3.4858     3.1024     0.5005 H       
  31 H31            4.4006     1.5756     0.4832 H       
  32 H32            2.9897     4.2771    -1.5650 H       
  33 H33            3.6714     4.7130    -3.8904 H       
  34 H34            5.8648     1.0532    -3.9317 H       
  35 H35            5.1867     0.6217    -1.6044 H       
  36 H36            0.4099    -2.3567     1.9275 H       
  37 H37            2.1718    -2.2806    -1.9764 H       
  38 H38            2.2452    -4.7381    -1.9888 H       
  39 H39            1.4124    -6.0094    -0.0556 H       
  40 H40           -0.4592    -4.7507     2.5653 H       
  41 H41            2.5374    -4.7678     4.1577 H       
  42 H42            3.4383    -6.2603     3.7984 H       
  43 H43            3.3054    -4.9825     2.5664 H       
@<TRIPOS>BOND
   1    1    2 2
   2    1    6 1
   3    1   27 1
   4    2    3 1
   5    2   28 1
   6    3    4 2
   7    3    7 1
   8    4    5 1
   9    4   29 1
  10    5    6 am
  11    5    8 1
  12    6    9 2
  13    7   16 ar
  14    7   17 ar
  15    8   10 1
  16    8   30 1
  17    8   31 1
  18   10   11 ar
  19   10   15 ar
  20   11   12 ar
  21   11   32 1
  22   12   13 ar
  23   12   33 1
  24   13   14 ar
  25   13   21 1
  26   14   15 ar
  27   14   34 1
  28   15   35 1
  29   16   20 ar
  30   16   36 1
  31   17   18 ar
  32   17   37 1
  33   18   19 ar
  34   18   38 1
  35   19   20 ar
  36   19   39 1
  37   20   22 1
  38   22   23 am
  39   22   40 1
  40   23   24 2
  41   23   25 2
  42   23   26 1
  43   26   41 1
  44   26   42 1
  45   26   43 1

#	End of record

