#	Name: ASD01812274
#	Creating user name:	WinNT
#	Creation time:	15. 06. 2019 19:28

#	Modifying user name:	WinNT
#	Modification time:	15. 06. 2019 19:28

#	Program:	/corina/corina34_cracker 3.40 0067  02.08.2006

@<TRIPOS>MOLECULE
ASD01812274
  59   63    0    0    0
SMALL
NO_CHARGES


@<TRIPOS>ATOM
   1 N1            -0.0178     1.4631     0.0101 N.am    
   2 C2             0.0021    -0.0041     0.0020 C.3     
   3 C3             1.4556    -0.4064    -0.0140 C.ar    
   4 C4             2.1938     0.7793    -0.0147 C.ar    
   5 C5             1.2490     1.9125     0.0004 C.2     
   6 C6             4.2211    -0.5080    -0.0423 C.ar    
   7 C7             3.5885     0.7178    -0.0290 C.ar    
   8 C8             5.7266    -0.5747    -0.0573 C.3     
   9 C9             6.2092    -0.7124    -1.4783 C.ar    
  10 C10            6.4818     0.4188    -2.2261 C.ar    
  11 C11            6.9241     0.2985    -3.5280 C.ar    
  12 C12            7.0957    -0.9653    -4.0887 C.ar    
  13 C13            6.8197    -2.1013    -3.3310 C.ar    
  14 C14            6.3833    -1.9696    -2.0282 C.ar    
  15 O15            1.5703     3.0848     0.0033 O.2     
  16 C16            2.0964    -1.6238    -0.0271 C.ar    
  17 C17            3.4801    -1.6767    -0.0410 C.ar    
  18 C18            4.1809    -3.0107    -0.0558 C.3     
  19 C19           -1.2201     2.3001     0.0206 C.3     
  20 C20            7.5707    -1.1009    -5.4885 C.2     
  21 C21            7.7806    -2.2624    -6.1739 C.2     
  22 N22            7.8750    -0.1038    -6.3384 N.2     
  23 N23            8.2490    -0.6137    -7.4583 N.2     
  24 N24            8.2079    -1.8984    -7.4040 N.pl3   
  25 C25            1.2931    -2.8988    -0.0258 C.3     
  26 C26            8.5610    -2.8129    -8.4928 C.3     
  27 C27           -1.6315     2.5837     1.4667 C.3     
  28 C28           -2.9425     3.4089     1.5009 C.3     
  29 O29           -1.9426     1.3570     2.1463 O.3     
  30 C30           -3.0385     1.5603     3.0459 C.3     
  31 C31           -3.4937     3.0285     2.9022 C.3     
  32 H32           -0.4836    -0.3902     0.8982 H       
  33 H33           -0.5006    -0.3806    -0.8888 H       
  34 H34            4.1706     1.6275    -0.0301 H       
  35 H35            6.1350     0.3371     0.3784 H       
  36 H36            6.0579    -1.4352     0.5239 H       
  37 H37            6.3481     1.3981    -1.7906 H       
  38 H38            7.1363     1.1824    -4.1112 H       
  39 H39            6.9507    -3.0833    -3.7609 H       
  40 H40            6.1735    -2.8496    -1.4384 H       
  41 H41            4.3397    -3.3263    -1.0869 H       
  42 H42            5.1427    -2.9215     0.4492 H       
  43 H43            3.5670    -3.7493     0.4597 H       
  44 H44           -1.0123     3.2409    -0.4892 H       
  45 H45           -2.0293     1.7801    -0.4921 H       
  46 H46            7.6352    -3.2680    -5.8079 H       
  47 H47            1.0890    -3.2007    -1.0530 H       
  48 H48            1.8576    -3.6833     0.4782 H       
  49 H49            0.3517    -2.7346     0.4986 H       
  50 H50            7.6762    -3.0199    -9.0947 H       
  51 H51            9.3269    -2.3544    -9.1183 H       
  52 H52            8.9427    -3.7446    -8.0753 H       
  53 H53           -0.8352     3.1140     1.9889 H       
  54 H54           -2.7361     4.4772     1.4368 H       
  55 H55           -3.6253     3.0945     0.7116 H       
  56 H56           -3.8591     0.8916     2.7861 H       
  57 H57           -2.7162     1.3717     4.0699 H       
  58 H58           -3.0464     3.6510     3.6771 H       
  59 H59           -4.5811     3.1014     2.9242 H       
@<TRIPOS>BOND
   1    1    2 1
   2    1    5 am
   3    1   19 1
   4    2    3 1
   5    2   32 1
   6    2   33 1
   7    3    4 ar
   8    3   16 ar
   9    4    5 1
  10    4    7 ar
  11    5   15 2
  12    6    8 1
  13    6    7 ar
  14    6   17 ar
  15    7   34 1
  16    8    9 1
  17    8   35 1
  18    8   36 1
  19    9   10 ar
  20    9   14 ar
  21   10   11 ar
  22   10   37 1
  23   11   12 ar
  24   11   38 1
  25   12   13 ar
  26   12   20 1
  27   13   14 ar
  28   13   39 1
  29   14   40 1
  30   16   17 ar
  31   16   25 1
  32   17   18 1
  33   18   41 1
  34   18   42 1
  35   18   43 1
  36   19   27 1
  37   19   44 1
  38   19   45 1
  39   20   22 1
  40   20   21 2
  41   21   24 1
  42   21   46 1
  43   22   23 2
  44   23   24 1
  45   24   26 1
  46   25   47 1
  47   25   48 1
  48   25   49 1
  49   26   50 1
  50   26   51 1
  51   26   52 1
  52   27   29 1
  53   27   28 1
  54   27   53 1
  55   28   31 1
  56   28   54 1
  57   28   55 1
  58   29   30 1
  59   30   31 1
  60   30   56 1
  61   30   57 1
  62   31   58 1
  63   31   59 1

#	End of record

