#	Name: ASD01882298
#	Creating user name:	WinNT
#	Creation time:	15. 06. 2019 19:44

#	Modifying user name:	WinNT
#	Modification time:	15. 06. 2019 19:44

#	Program:	/corina/corina34_cracker 3.40 0067  02.08.2006

@<TRIPOS>MOLECULE
ASD01882298
  51   53    0    0    0
SMALL
NO_CHARGES


@<TRIPOS>ATOM
   1 N1            -0.3899     1.3269    -0.0405 N.3     
   2 C2            -0.1699    -0.1101     0.0115 C.3     
   3 C3             0.9675    -0.4726     0.9680 C.3     
   4 C4             2.2210     0.3324     0.6203 C.3     
   5 C5             1.8948     1.8207     0.7577 C.3     
   6 C6             0.7629     2.2001    -0.1987 C.3     
   7 C7             3.3215    -0.0239     1.5862 C.ar    
   8 C8             4.5045    -0.5634     1.1161 C.ar    
   9 C9             5.5148    -0.8909     1.9995 C.ar    
  10 C10            5.3416    -0.6781     3.3594 C.ar    
  11 C11            4.1536    -0.1367     3.8286 C.ar    
  12 C12            3.1485     0.1944     2.9405 C.ar    
  13 O13            6.3338    -0.9999     4.2306 O.3     
  14 C14            6.0858    -0.7534     5.6161 C.3     
  15 O15            8.0086    -0.1604     7.1561 O.3     
  16 C16            7.3069    -1.1755     6.4357 C.3     
  17 C17            7.2235    -1.0451     7.9579 C.3     
  18 C18            1.2755     2.2304    -1.6376 C.3     
  19 C19            0.3189     3.6361     0.1623 C.3     
  20 C20           -1.4581    -0.7643     0.5610 C.3     
  21 C21            0.0911    -0.7083    -1.3698 C.3     
  22 C22           -1.4723     1.6795    -0.9690 C.3     
  23 H23            0.6647    -0.2488     1.9922 H       
  24 H24            1.1856    -1.5385     0.8841 H       
  25 H25            2.5503     0.1067    -0.3897 H       
  26 H26            1.5886     2.0322     1.7835 H       
  27 H27            2.7821     2.4102     0.5206 H       
  28 H28            4.6388    -0.7292     0.0574 H       
  29 H29            6.4386    -1.3126     1.6319 H       
  30 H30            4.0163     0.0299     4.8868 H       
  31 H31            2.2253     0.6203     3.3048 H       
  32 H32            5.8961     0.3092     5.7679 H       
  33 H33            5.2165    -1.3272     5.9374 H       
  34 H34            7.8880    -2.0022     6.0271 H       
  35 H35            7.7492    -1.7857     8.5606 H       
  36 H36            6.2983    -0.6578     8.3846 H       
  37 H37            0.4545     2.4774    -2.3107 H       
  38 H38            2.0588     2.9829    -1.7285 H       
  39 H39            1.6790     1.2525    -1.9002 H       
  40 H40           -0.0348     3.6587     1.1931 H       
  41 H41            1.1638     4.3159     0.0531 H       
  42 H42           -0.4855     3.9462    -0.5047 H       
  43 H43           -2.2935    -0.5328    -0.0998 H       
  44 H44           -1.3236    -1.8448     0.6119 H       
  45 H45           -1.6655    -0.3766     1.5584 H       
  46 H46            1.0363    -0.3284    -1.7576 H       
  47 H47            0.1407    -1.7944    -1.2920 H       
  48 H48           -0.7174    -0.4290    -2.0454 H       
  49 H49           -2.3978     1.2030    -0.6457 H       
  50 H50           -1.6048     2.7614    -0.9786 H       
  51 H51           -1.2175     1.3357    -1.9715 H       
@<TRIPOS>BOND
   1    1    2 1
   2    1    6 1
   3    1   22 1
   4    2    3 1
   5    2   20 1
   6    2   21 1
   7    3    4 1
   8    3   23 1
   9    3   24 1
  10    4    5 1
  11    4    7 1
  12    4   25 1
  13    5    6 1
  14    5   26 1
  15    5   27 1
  16    6   18 1
  17    6   19 1
  18    7    8 ar
  19    7   12 ar
  20    8    9 ar
  21    8   28 1
  22    9   10 ar
  23    9   29 1
  24   10   11 ar
  25   10   13 1
  26   11   12 ar
  27   11   30 1
  28   12   31 1
  29   13   14 1
  30   14   16 1
  31   14   32 1
  32   14   33 1
  33   15   16 1
  34   15   17 1
  35   16   17 1
  36   16   34 1
  37   17   35 1
  38   17   36 1
  39   18   37 1
  40   18   38 1
  41   18   39 1
  42   19   40 1
  43   19   41 1
  44   19   42 1
  45   20   43 1
  46   20   44 1
  47   20   45 1
  48   21   46 1
  49   21   47 1
  50   21   48 1
  51   22   49 1
  52   22   50 1
  53   22   51 1

#	End of record

