#	Name: ASD02030729
#	Creating user name:	WinNT
#	Creation time:	15. 06. 2019 20:15

#	Modifying user name:	WinNT
#	Modification time:	15. 06. 2019 20:15

#	Program:	/corina/corina34_cracker 3.40 0067  02.08.2006

@<TRIPOS>MOLECULE
ASD02030729
  29   30    0    0    0
SMALL
NO_CHARGES


@<TRIPOS>ATOM
   1 N1            -0.0169     1.3957     0.0097 N.2     
   2 N2             0.0021    -0.0041     0.0020 N.am    
   3 C3             1.1656    -0.6784    -0.0127 C.2     
   4 N4             2.3440    -0.0276    -0.0205 N.am    
   5 C5             2.3705     1.3213    -0.0130 C.2     
   6 C6             1.1049     2.0605     0.0026 C.2     
   7 O7             1.1530    -1.8942    -0.0187 O.2     
   8 O8             3.4319     1.9168    -0.0192 O.2     
   9 C9            -1.2622    -0.7441     0.0106 C.3     
  10 C10           -1.6880    -1.0095     1.4560 C.3     
  11 C11           -2.9886    -1.7708     1.4648 C.2     
  12 C12           -4.1484    -1.0940     1.3777 C.2     
  13 C13           -5.3847    -1.7588     1.3815 C.2     
  14 C14           -5.4298    -3.1609     1.4782 C.2     
  15 C15           -4.2607    -3.8446     1.5661 C.2     
  16 C16           -2.9659    -3.0694     1.5512 C.3     
  17 F17           -4.1223     0.2536     1.2851 F       
  18 F18           -6.5320    -1.0510     1.2926 F       
  19 F19           -6.6125    -3.8139     1.4839 F       
  20 F20           -4.2560    -5.1922     1.6611 F       
  21 F21           -2.2024    -3.5454     0.4799 F       
  22 O22           -2.2598    -3.4045     2.7475 O.3     
  23 H23            3.1745    -0.5287    -0.0311 H       
  24 H24            1.1015     3.1405     0.0081 H       
  25 H25           -2.0304    -0.1569    -0.4925 H       
  26 H26           -1.1313    -1.6930    -0.5096 H       
  27 H27           -0.9198    -1.5968     1.9591 H       
  28 H28           -1.8189    -0.0607     1.9763 H       
  29 H29           -2.1856    -4.3554     2.9072 H       
@<TRIPOS>BOND
   1    1    2 1
   2    1    6 2
   3    2    3 am
   4    2    9 1
   5    3    4 am
   6    3    7 2
   7    4    5 am
   8    4   23 1
   9    5    6 1
  10    5    8 2
  11    6   24 1
  12    9   10 1
  13    9   25 1
  14    9   26 1
  15   10   11 1
  16   10   27 1
  17   10   28 1
  18   11   12 1
  19   11   16 2
  20   12   13 2
  21   12   17 1
  22   13   14 1
  23   13   18 1
  24   14   15 2
  25   14   19 1
  26   15   16 1
  27   15   20 1
  28   16   21 1
  29   16   22 1
  30   22   29 1

#	End of record

