#	Name: ASD01410259
#	Creating user name:	WinNT
#	Creation time:	15. 06. 2019 19:17

#	Modifying user name:	WinNT
#	Modification time:	15. 06. 2019 19:17

#	Program:	/corina/corina34_cracker 3.40 0067  02.08.2006

@<TRIPOS>MOLECULE
ASD01410259
  27   28    0    0    0
SMALL
NO_CHARGES


@<TRIPOS>ATOM
   1 C1            -0.0165     1.3755     0.0329 C.ar    
   2 C2             0.0019    -0.0056     0.0281 C.ar    
   3 C3            -1.1847    -0.7223     0.0312 C.ar    
   4 C4            -2.3953    -0.0629     0.0388 C.ar    
   5 C5            -2.4279     1.3341     0.0437 C.ar    
   6 C6            -1.2265     2.0550     0.0468 C.ar    
   7 O7            -1.2460     3.4117     0.0521 O.3     
   8 Br8            1.6091     2.3416     0.0286 Br      
   9 C9            -3.7199     2.0457     0.0519 C.2     
  10 N10           -4.8733     1.3485     0.0545 N.am    
  11 O11           -3.7444     3.2614     0.0562 O.2     
  12 C12           -7.2164     1.5460    -0.4946 C.ar    
  13 C13           -6.0951     2.0183     0.1749 C.ar    
  14 C14           -6.1895     3.1570     0.9645 C.ar    
  15 C15           -7.3983     3.8161     1.0817 C.ar    
  16 C16           -8.5137     3.3422     0.4134 C.ar    
  17 C17           -8.4222     2.2090    -0.3732 C.ar    
  18 Br18          -1.1424    -2.6129     0.0245 Br      
  19 Br19          -7.5287     5.3666     2.1563 Br      
  20 H20            0.9460    -0.5300     0.0214 H       
  21 H21           -3.3173    -0.6253     0.0405 H       
  22 H22           -1.2518     3.8016     0.9370 H       
  23 H23           -4.8560     0.3820    -0.0271 H       
  24 H24           -7.1449     0.6633    -1.1128 H       
  25 H25           -5.3193     3.5266     1.4867 H       
  26 H26           -9.4577     3.8585     0.5069 H       
  27 H27           -9.2944     1.8416    -0.8934 H       
@<TRIPOS>BOND
   1    1    2 ar
   2    1    8 1
   3    1    6 ar
   4    2    3 ar
   5    2   20 1
   6    3    4 ar
   7    3   18 1
   8    4    5 ar
   9    4   21 1
  10    5    6 ar
  11    5    9 1
  12    6    7 1
  13    7   22 1
  14    9   10 am
  15    9   11 2
  16   10   13 1
  17   10   23 1
  18   12   13 ar
  19   12   17 ar
  20   12   24 1
  21   13   14 ar
  22   14   15 ar
  23   14   25 1
  24   15   16 ar
  25   15   19 1
  26   16   17 ar
  27   16   26 1
  28   17   27 1

#	End of record

