#	Name: ASD01915788
#	Creating user name:	WinNT
#	Creation time:	15. 06. 2019 20:06

#	Modifying user name:	WinNT
#	Modification time:	15. 06. 2019 20:06

#	Program:	/corina/corina34_cracker 3.40 0067  02.08.2006

@<TRIPOS>MOLECULE
ASD01915788
  48   51    0    0    0
SMALL
NO_CHARGES


@<TRIPOS>ATOM
   1 C1             0.0467     1.6585    -0.0101 C.2     
   2 N2             0.1466     0.2863    -0.0665 N.pl3   
   3 C3            -1.0507    -0.5612    -0.1200 C.3     
   4 C4            -2.1950     0.1342     0.6154 C.3     
   5 N5            -2.3392     1.5347     0.2331 N.am    
   6 C6            -1.2601     2.3312     0.0400 C.2     
   7 C7             1.3209     2.1522     0.0010 C.2     
   8 C8             2.1483     1.0218    -0.0389 C.2     
   9 N9             1.3794    -0.0416    -0.0723 N.2     
  10 C10            3.6553     1.0263    -0.0424 C.3     
  11 O11            4.1277     2.3742     0.0016 O.3     
  12 C12            5.4745     2.5562     0.0045 C.ar    
  13 O13           -1.3665     3.5365    -0.0846 O.2     
  14 C14            6.0023     3.8385     0.0462 C.ar    
  15 C15            6.3238     1.4598    -0.0286 C.ar    
  16 C16            7.6924     1.6474    -0.0257 C.ar    
  17 C17            8.2160     2.9266     0.0102 C.ar    
  18 C18            7.3716     4.0208     0.0490 C.ar    
  19 C19           -3.6175     2.0660     0.0618 C.ar    
  20 N20           -4.2467     2.6062     1.0917 N.ar    
  21 C21           -4.2207     2.0284    -1.1977 C.ar    
  22 C22           -5.4941     2.5621    -1.3501 C.ar    
  23 C23           -6.1170     3.1133    -0.2388 C.ar    
  24 C24           -5.4569     3.1202     0.9736 C.ar    
  25 N25           -3.5525     1.4623    -2.2888 N.3     
  26 C26           -4.2959     0.3136    -2.8232 C.3     
  27 C27           -3.3091     2.4647    -3.3347 C.3     
  28 H28           -1.3334    -0.7262    -1.1597 H       
  29 H29           -0.8404    -1.5186     0.3567 H       
  30 H30           -3.1253    -0.3888     0.3940 H       
  31 H31           -2.0092     0.0793     1.6880 H       
  32 H32            1.6243     3.1882     0.0334 H       
  33 H33            4.0222     0.4840     0.8290 H       
  34 H34            4.0179     0.5437    -0.9500 H       
  35 H35            5.3431     4.6935     0.0762 H       
  36 H36            5.9154     0.4603    -0.0563 H       
  37 H37            8.3541     0.7941    -0.0511 H       
  38 H38            9.2862     3.0712     0.0124 H       
  39 H39            7.7830     5.0190     0.0766 H       
  40 H40           -5.9877     2.5489    -2.3106 H       
  41 H41           -7.1070     3.5366    -0.3229 H       
  42 H42           -5.9397     3.5485     1.8395 H       
  43 H43           -5.2835     0.6398    -3.1492 H       
  44 H44           -3.7544    -0.1074    -3.6703 H       
  45 H45           -4.4014    -0.4440    -2.0466 H       
  46 H46           -2.6972     3.2709    -2.9301 H       
  47 H47           -2.7885     1.9980    -4.1710 H       
  48 H48           -4.2610     2.8688    -3.6793 H       
@<TRIPOS>BOND
   1    1    2 1
   2    1    7 2
   3    1    6 1
   4    2    3 1
   5    2    9 1
   6    3    4 1
   7    3   28 1
   8    3   29 1
   9    4    5 1
  10    4   30 1
  11    4   31 1
  12    5    6 am
  13    5   19 1
  14    6   13 2
  15    7    8 1
  16    7   32 1
  17    8    9 2
  18    8   10 1
  19   10   11 1
  20   10   33 1
  21   10   34 1
  22   11   12 1
  23   12   14 ar
  24   12   15 ar
  25   14   18 ar
  26   14   35 1
  27   15   16 ar
  28   15   36 1
  29   16   17 ar
  30   16   37 1
  31   17   18 ar
  32   17   38 1
  33   18   39 1
  34   19   21 ar
  35   19   20 ar
  36   20   24 ar
  37   21   22 ar
  38   21   25 1
  39   22   23 ar
  40   22   40 1
  41   23   24 ar
  42   23   41 1
  43   24   42 1
  44   25   26 1
  45   25   27 1
  46   26   43 1
  47   26   44 1
  48   26   45 1
  49   27   46 1
  50   27   47 1
  51   27   48 1

#	End of record

