#	Name: ASD00845038
#	Creating user name:	WinNT
#	Creation time:	15. 06. 2019 18:51

#	Modifying user name:	WinNT
#	Modification time:	15. 06. 2019 18:51

#	Program:	/corina/corina34_cracker 3.40 0067  02.08.2006

@<TRIPOS>MOLECULE
ASD00845038
  92   97    0    0    0
SMALL
NO_CHARGES


@<TRIPOS>ATOM
   1 C1            -0.0167     1.3829     0.0096 C.ar    
   2 C2             0.0021    -0.0041     0.0020 C.ar    
   3 C3             1.2143    -0.6791    -0.0132 C.ar    
   4 C4             2.3989     0.0312    -0.0207 C.ar    
   5 C5             2.3774     1.4139    -0.0126 C.ar    
   6 C6             1.1710     2.0888     0.0021 C.ar    
   7 C7             1.2384    -2.1858    -0.0210 C.3     
   8 C8             0.4953    -2.7219    -1.2261 C.2     
   9 O9             2.6067    -2.6715    -0.0096 O.3     
  10 C10            3.3981    -2.2932    -1.0311 C.2     
  11 N11            4.6791    -2.7091    -1.0809 N.am    
  12 O12            2.9573    -1.5769    -1.9081 O.2     
  13 C13            5.5606    -2.3077    -2.1877 C.3     
  14 C14            6.8542    -1.7367    -1.5971 C.3     
  15 N15            7.4342    -2.7111    -0.6631 N.3     
  16 C16            6.5391    -2.9556     0.4757 C.3     
  17 C17            5.2343    -3.5715    -0.0267 C.3     
  18 C18            8.7610    -2.2769    -0.2061 C.3     
  19 C19            9.2796    -3.2494     0.8569 C.3     
  20 C20           10.6868    -2.8267     1.2849 C.3     
  21 N21           11.5768    -2.8302     0.1169 N.3     
  22 C22           11.1252    -1.8692    -0.8975 C.3     
  23 C23            9.7311    -2.2632    -1.3907 C.3     
  24 C24           12.9661    -2.5639     0.5128 C.3     
  25 O25            0.7737    -2.5253    -2.3901 O.2     
  26 N26           -0.5308    -3.4561    -0.7640 N.am    
  27 C27            0.4691    -2.7339     1.1590 C.ar    
  28 C28           -0.5747    -3.4836     0.6309 C.ar    
  29 C29            0.6332    -2.6128     2.5205 C.ar    
  30 C30           -0.2492    -3.2434     3.3816 C.ar    
  31 C31           -1.2945    -3.9941     2.8677 C.ar    
  32 C32           -1.4596    -4.1159     1.5012 C.ar    
  33 Cl33          -0.0462    -3.0943     5.0993 Cl      
  34 F34           -2.1562    -4.6098     3.7065 F       
  35 C35           -0.9806    -5.8529    -2.0396 C.ar    
  36 C36           -1.3049    -6.8934    -1.1887 C.ar    
  37 C37           -0.1614    -6.0785    -3.1304 C.ar    
  38 C38            0.3352    -7.3446    -3.3726 C.ar    
  39 C39            0.0113    -8.3903    -2.5204 C.ar    
  40 C40           -0.8105    -8.1613    -1.4264 C.ar    
  41 O41            0.4982    -9.6368    -2.7568 O.3     
  42 H42           -1.9450    -6.7147    -0.3374 H       
  43 C43            0.1232   -10.6649    -1.8378 C.3     
  44 C44           13.8789    -2.6983    -0.7077 C.3     
  45 C45           13.0730    -1.1453     1.0758 C.3     
  46 S46           -1.6183    -4.2384    -1.7375 S.o2    
  47 O47           -2.7976    -4.4110    -0.9639 O.2     
  48 O48           -1.6001    -3.5597    -2.9858 O.2     
  49 O49           -1.1648    -0.7006     0.0099 O.3     
  50 C50           -2.3744     0.0601     0.0260 C.3     
  51 C51           -3.5740    -0.8895     0.0328 C.3     
  52 F52           -3.5417    -1.6899    -1.1142 F       
  53 F53           -3.5190    -1.7022     1.1702 F       
  54 H54           -0.9590     1.9106     0.0170 H       
  55 H55            3.3426    -0.4937    -0.0325 H       
  56 H56            3.3047     1.9675    -0.0178 H       
  57 H57            1.1569     3.1687     0.0084 H       
  58 H58            5.7918    -3.1758    -2.8049 H       
  59 H59            5.0667    -1.5465    -2.7916 H       
  60 H60            7.5633    -1.5362    -2.4003 H       
  61 H61            6.6340    -0.8106    -1.0662 H       
  62 H62            7.0196    -3.6391     1.1758 H       
  63 H63            6.3232    -2.0125     0.9777 H       
  64 H64            4.5247    -3.6486     0.7971 H       
  65 H65            5.4312    -4.5616    -0.4379 H       
  66 H66            8.6902    -1.2759     0.2195 H       
  67 H67            8.6156    -3.2316     1.7212 H       
  68 H68            9.3124    -4.2572     0.4431 H       
  69 H69           10.6510    -1.8242     1.7113 H       
  70 H70           11.0646    -3.5254     2.0314 H       
  71 H71           11.0874    -0.8711    -0.4609 H       
  72 H72           11.8215    -1.8724    -1.7362 H       
  73 H73            9.7710    -3.2555    -1.8398 H       
  74 H74            9.3898    -1.5409    -2.1322 H       
  75 H75           13.2705    -3.2812     1.2750 H       
  76 H76            1.4495    -2.0270     2.9166 H       
  77 H77           -2.2766    -4.7022     1.1071 H       
  78 H78            0.0901    -5.2642    -3.7938 H       
  79 H79            0.9747    -7.5204    -4.2250 H       
  80 H80           -1.0644    -8.9737    -0.7616 H       
  81 H81            0.4668   -10.4011    -0.8376 H       
  82 H82           -0.9617   -10.7702    -1.8333 H       
  83 H83            0.5785   -11.6075    -2.1415 H       
  84 H84           13.8028    -3.7090    -1.1088 H       
  85 H85           13.5745    -1.9810    -1.4698 H       
  86 H86           14.9098    -2.5007    -0.4139 H       
  87 H87           12.4227    -1.0495     1.9453 H       
  88 H88           14.1039    -0.9477     1.3696 H       
  89 H89           12.7686    -0.4280     0.3136 H       
  90 H90           -2.3995     0.6837     0.9196 H       
  91 H91           -2.4172     0.6932    -0.8603 H       
  92 H92           -4.4966    -0.3093     0.0451 H       
@<TRIPOS>BOND
   1    1    2 ar
   2    1    6 ar
   3    1   54 1
   4    2    3 ar
   5    2   49 1
   6    3    4 ar
   7    3    7 1
   8    4    5 ar
   9    4   55 1
  10    5    6 ar
  11    5   56 1
  12    6   57 1
  13    7    8 1
  14    7    9 1
  15    7   27 1
  16    8   25 2
  17    8   26 am
  18    9   10 1
  19   10   11 am
  20   10   12 2
  21   11   13 1
  22   11   17 1
  23   13   14 1
  24   13   58 1
  25   13   59 1
  26   14   15 1
  27   14   60 1
  28   14   61 1
  29   15   16 1
  30   15   18 1
  31   16   17 1
  32   16   62 1
  33   16   63 1
  34   17   64 1
  35   17   65 1
  36   18   19 1
  37   18   23 1
  38   18   66 1
  39   19   20 1
  40   19   67 1
  41   19   68 1
  42   20   21 1
  43   20   69 1
  44   20   70 1
  45   21   22 1
  46   21   24 1
  47   22   23 1
  48   22   71 1
  49   22   72 1
  50   23   73 1
  51   23   74 1
  52   24   44 1
  53   24   45 1
  54   24   75 1
  55   26   46 am
  56   26   28 1
  57   27   28 ar
  58   27   29 ar
  59   28   32 ar
  60   29   30 ar
  61   29   76 1
  62   30   31 ar
  63   30   33 1
  64   31   32 ar
  65   31   34 1
  66   32   77 1
  67   35   36 ar
  68   35   37 ar
  69   35   46 1
  70   36   42 1
  71   36   40 ar
  72   37   38 ar
  73   37   78 1
  74   38   39 ar
  75   38   79 1
  76   39   40 ar
  77   39   41 1
  78   40   80 1
  79   41   43 1
  80   43   81 1
  81   43   82 1
  82   43   83 1
  83   44   84 1
  84   44   85 1
  85   44   86 1
  86   45   87 1
  87   45   88 1
  88   45   89 1
  89   46   47 2
  90   46   48 2
  91   49   50 1
  92   50   51 1
  93   50   90 1
  94   50   91 1
  95   51   52 1
  96   51   53 1
  97   51   92 1

#	End of record

