#	Name: ASD09740707
#	Creating user name:	WinNT
#	Creation time:	15. 06. 2019 21:23

#	Modifying user name:	WinNT
#	Modification time:	15. 06. 2019 21:23

#	Program:	/corina/corina34_cracker 3.40 0067  02.08.2006

@<TRIPOS>MOLECULE
ASD09740707
  19   20    0    0    0
SMALL
NO_CHARGES


@<TRIPOS>ATOM
   1 C1             0.0021    -0.0041     0.0020 C.1     
   2 C2            -0.0173     1.4278     0.0099 C.ar    
   3 C3             1.1839     2.1462     0.0023 C.ar    
   4 C4             1.1644     3.5294     0.0094 C.ar    
   5 C5            -0.0371     4.2083     0.0241 C.ar    
   6 C6            -1.2426     3.5030     0.0318 C.ar    
   7 C7            -1.2329     2.1106     0.0193 C.ar    
   8 N8             0.0175    -1.1399    -0.0042 N.1     
   9 F9             2.3637     1.4881    -0.0116 F       
  10 S10           -4.1343     3.5099     0.0594 S.3     
  11 C11           -4.8462     5.0640     0.0740 C.2     
  12 N12           -3.9322     5.9771     0.0696 N.2     
  13 C13           -2.6799     5.5755     0.0555 C.2     
  14 C14           -2.5281     4.2343     0.0474 C.2     
  15 Br15          -6.7072     5.3990     0.0927 Br      
  16 H16            2.0933     4.0803     0.0039 H       
  17 H17           -0.0452     5.2882     0.0299 H       
  18 H18           -2.1631     1.5618     0.0208 H       
  19 H19           -1.8446     6.2601     0.0505 H       
@<TRIPOS>BOND
   1    1    2 1
   2    1    8 3
   3    2    3 ar
   4    2    7 ar
   5    3    4 ar
   6    3    9 1
   7    4    5 ar
   8    4   16 1
   9    5    6 ar
  10    5   17 1
  11    6    7 ar
  12    6   14 1
  13    7   18 1
  14   10   11 1
  15   10   14 1
  16   11   12 2
  17   11   15 1
  18   12   13 1
  19   13   14 2
  20   13   19 1

#	End of record

