#	Name: ASD03731664
#	Creating user name:	WinNT
#	Creation time:	15. 06. 2019 20:46

#	Modifying user name:	WinNT
#	Modification time:	15. 06. 2019 20:46

#	Program:	/corina/corina34_cracker 3.40 0067  02.08.2006

@<TRIPOS>MOLECULE
ASD03731664
  34   35    0    0    0
SMALL
NO_CHARGES


@<TRIPOS>ATOM
   1 C1            -0.4053     1.1023    -1.9650 C.2     
   2 C2            -0.2834    -0.2752    -1.4535 C.ar    
   3 C3             0.9004    -0.9956    -1.6518 C.ar    
   4 C4             1.0098    -2.2848    -1.1705 C.ar    
   5 C5            -0.0522    -2.8667    -0.4914 C.ar    
   6 C6            -1.2315    -2.1534    -0.2921 C.ar    
   7 C7            -1.3478    -0.8639    -0.7639 C.ar    
   8 O8             0.5233     1.6143    -2.5602 O.2     
   9 N9            -1.5480     1.7920    -1.7778 N.am    
  10 S10           -1.6849     3.3391    -2.3523 S.o2    
  11 O11           -2.9870     3.7465    -1.9550 O.2     
  12 O12           -0.5279     4.0000    -1.8585 O.2     
  13 C13           -1.5959     3.1619    -4.1555 C.3     
  14 F14           -2.2617    -2.7251     0.3691 F       
  15 F15            1.9338    -0.4302    -2.3133 F       
  16 O16            0.0593    -4.1350    -0.0206 O.3     
  17 C17            1.2618    -4.7566    -0.1405 C.ar    
  18 C18            2.2106    -4.6273     0.8602 C.ar    
  19 C19            3.4439    -5.2673     0.7329 C.ar    
  20 C20            3.7129    -6.0341    -0.4031 C.ar    
  21 C21            2.7604    -6.1559    -1.3936 C.ar    
  22 C22            1.5364    -5.5256    -1.2634 C.ar    
  23 C23            4.4303    -5.1381     1.7629 C.1     
  24 N24            5.2129    -5.0357     2.5800 N.1     
  25 H25            1.9226    -2.8416    -1.3228 H       
  26 H26           -2.2614    -0.3104    -0.6051 H       
  27 H27           -2.2902     1.3822    -1.3066 H       
  28 H28           -2.4123     2.5266    -4.4989 H       
  29 H29           -1.6788     4.1437    -4.6216 H       
  30 H30           -0.6431     2.7090    -4.4294 H       
  31 H31            1.9967    -4.0327     1.7361 H       
  32 H32            4.6662    -6.5310    -0.5062 H       
  33 H33            2.9698    -6.7488    -2.2717 H       
  34 H34            0.7930    -5.6286    -2.0399 H       
@<TRIPOS>BOND
   1    1    2 1
   2    1    8 2
   3    1    9 am
   4    2    3 ar
   5    2    7 ar
   6    3    4 ar
   7    3   15 1
   8    4    5 ar
   9    4   25 1
  10    5    6 ar
  11    5   16 1
  12    6    7 ar
  13    6   14 1
  14    7   26 1
  15    9   10 am
  16    9   27 1
  17   10   11 2
  18   10   12 2
  19   10   13 1
  20   13   28 1
  21   13   29 1
  22   13   30 1
  23   16   17 1
  24   17   18 ar
  25   17   22 ar
  26   18   19 ar
  27   18   31 1
  28   19   20 ar
  29   19   23 1
  30   20   21 ar
  31   20   32 1
  32   21   22 ar
  33   21   33 1
  34   22   34 1
  35   23   24 3

#	End of record

