#	Name: ASD03082289
#	Creating user name:	WinNT
#	Creation time:	15. 06. 2019 20:27

#	Modifying user name:	WinNT
#	Modification time:	15. 06. 2019 20:27

#	Program:	/corina/corina34_cracker 3.40 0067  02.08.2006

@<TRIPOS>MOLECULE
ASD03082289
  43   46    0    0    0
SMALL
NO_CHARGES


@<TRIPOS>ATOM
   1 N1            -0.0349     1.4852    -0.0256 N.pl3   
   2 N2            -0.0453     0.0812     0.0000 N.2     
   3 C3             1.1735    -0.3051     0.3013 C.2     
   4 N4             1.9429     0.7718     0.4651 N.2     
   5 C5             1.2287     1.8623     0.2712 C.2     
   6 N6             1.5954    -1.6297     0.4303 N.pl3   
   7 C7             2.8935    -1.9108     0.8686 C.ar    
   8 C8             3.5408    -1.0357     1.7316 C.ar    
   9 C9             4.8226    -1.3144     2.1642 C.ar    
  10 C10            5.4635    -2.4652     1.7388 C.ar    
  11 C11            4.8203    -3.3407     0.8770 C.ar    
  12 C12            3.5346    -3.0678     0.4462 C.ar    
  13 C13            1.7232     3.2544     0.3619 C.ar    
  14 C14           -1.1673     2.3662    -0.3216 C.3     
  15 C15            0.8830     4.2894     0.7856 C.ar    
  16 C16            1.3856     5.5728     0.8560 C.ar    
  17 N17            2.6379     5.8285     0.5305 N.ar    
  18 C18            3.4633     4.8821     0.1262 C.ar    
  19 C19            3.0456     3.5706     0.0317 C.ar    
  20 O20           -1.8647     1.8765    -1.4687 O.3     
  21 F21            6.7172    -2.7356     2.1634 F       
  22 C22           -2.1167     2.3968     0.8778 C.3     
  23 F23            5.4475    -4.4632     0.4625 F       
  24 C24            4.8833     5.2375    -0.2323 C.3     
  25 C25            5.9483     5.0733     0.8538 C.3     
  26 C26            5.8967     4.0947    -0.3212 C.3     
  27 H27            0.9882    -2.3552     0.2158 H       
  28 H28            3.0420    -0.1373     2.0640 H       
  29 H29            5.3255    -0.6335     2.8349 H       
  30 H30            3.0314    -3.7517    -0.2212 H       
  31 H31           -0.8015     3.3734    -0.5213 H       
  32 H32           -0.1435     4.0873     1.0533 H       
  33 H33            0.7446     6.3787     1.1816 H       
  34 H34            3.7268     2.8009    -0.3000 H       
  35 H35           -2.6285     2.4122    -1.7230 H       
  36 H36           -1.5848     2.7703     1.7528 H       
  37 H37           -2.9593     3.0523     0.6576 H       
  38 H38           -2.4825     1.3896     1.0775 H       
  39 H39            4.9985     6.0681    -0.9287 H       
  40 H40            6.7644     5.7956     0.8717 H       
  41 H41            5.6220     4.7081     1.8276 H       
  42 H42            5.5363     3.0857    -0.1204 H       
  43 H43            6.6788     4.1732    -1.0763 H       
@<TRIPOS>BOND
   1    1    2 1
   2    1    5 1
   3    1   14 1
   4    2    3 2
   5    3    4 1
   6    3    6 1
   7    4    5 2
   8    5   13 1
   9    6    7 1
  10    6   27 1
  11    7    8 ar
  12    7   12 ar
  13    8    9 ar
  14    8   28 1
  15    9   10 ar
  16    9   29 1
  17   10   11 ar
  18   10   21 1
  19   11   12 ar
  20   11   23 1
  21   12   30 1
  22   13   15 ar
  23   13   19 ar
  24   14   20 1
  25   14   22 1
  26   14   31 1
  27   15   16 ar
  28   15   32 1
  29   16   17 ar
  30   16   33 1
  31   17   18 ar
  32   18   19 ar
  33   18   24 1
  34   19   34 1
  35   20   35 1
  36   22   36 1
  37   22   37 1
  38   22   38 1
  39   24   25 1
  40   24   26 1
  41   24   39 1
  42   25   26 1
  43   25   40 1
  44   25   41 1
  45   26   42 1
  46   26   43 1

#	End of record

