#	Name: ASD03091421
#	Creating user name:	WinNT
#	Creation time:	15. 06. 2019 20:30

#	Modifying user name:	WinNT
#	Modification time:	15. 06. 2019 20:30

#	Program:	/corina/corina34_cracker 3.40 0067  02.08.2006

@<TRIPOS>MOLECULE
ASD03091421
  32   34    0    0    0
SMALL
NO_CHARGES


@<TRIPOS>ATOM
   1 C1             0.0382     1.7086    -0.0455 C.3     
   2 C2            -0.0047     0.1805    -0.1106 C.3     
   3 N3             0.6490    -0.3801     1.0789 N.3     
   4 C4            -0.0504     0.0202     2.3065 C.3     
   5 C5            -0.0095     1.5433     2.4456 C.3     
   6 C6             1.4494     2.0065     2.5205 C.3     
   7 N7             2.1093     1.6961     1.2451 N.am    
   8 C8             1.4978     2.1734    -0.0027 C.3     
   9 C9            -0.6767     2.1820     1.2237 C.3     
  10 C10            3.2546     0.9861     1.2201 C.2     
  11 O11            3.8116     0.6928     2.2618 O.2     
  12 O12            3.2464     0.6957    -1.2717 O.3     
  13 C13            3.8291     0.5674    -0.0608 C.2     
  14 C14            5.0498    -0.0213    -0.2401 C.2     
  15 C15            5.1890    -0.2484    -1.6196 C.2     
  16 C16            4.0634     0.2050    -2.2129 C.2     
  17 Cl17           6.2041    -0.4117     0.9964 Cl      
  18 H18           -0.4523     2.1256    -0.9251 H       
  19 H19           -1.0420    -0.1525    -0.1458 H       
  20 H20            0.5163    -0.1597    -1.0056 H       
  21 H21            0.7187    -1.3846     1.0136 H       
  22 H22           -1.0874    -0.3123     2.2584 H       
  23 H23            0.4375    -0.4363     3.1676 H       
  24 H24           -0.5345     1.8415     3.3531 H       
  25 H25            1.4829     3.0815     2.6973 H       
  26 H26            1.9573     1.4845     3.3314 H       
  27 H27            2.0377     1.7613    -0.8552 H       
  28 H28            1.5357     3.2622    -0.0351 H       
  29 H29           -0.6079     3.2674     1.2970 H       
  30 H30           -1.7245     1.8845     1.1839 H       
  31 H31            6.0366    -0.7006    -2.1130 H       
  32 H32            3.8560     0.1763    -3.2724 H       
@<TRIPOS>BOND
   1    1    2 1
   2    1    8 1
   3    1    9 1
   4    1   18 1
   5    2    3 1
   6    2   19 1
   7    2   20 1
   8    3    4 1
   9    3   21 1
  10    4    5 1
  11    4   22 1
  12    4   23 1
  13    5    6 1
  14    5    9 1
  15    5   24 1
  16    6    7 1
  17    6   25 1
  18    6   26 1
  19    7    8 1
  20    7   10 am
  21    8   27 1
  22    8   28 1
  23    9   29 1
  24    9   30 1
  25   10   11 2
  26   10   13 1
  27   12   13 1
  28   12   16 1
  29   13   14 2
  30   14   15 1
  31   14   17 1
  32   15   16 2
  33   15   31 1
  34   16   32 1

#	End of record

