#	Name: ASD08170253
#	Creating user name:	WinNT
#	Creation time:	15. 06. 2019 21:17

#	Modifying user name:	WinNT
#	Modification time:	15. 06. 2019 21:17

#	Program:	/corina/corina34_cracker 3.40 0067  02.08.2006

@<TRIPOS>MOLECULE
ASD08170253
  65   68    0    0    0
SMALL
NO_CHARGES


@<TRIPOS>ATOM
   1 N1            -0.0150     1.2583     0.0090 N.2     
   2 N2             0.0021    -0.0041     0.0020 N.2     
   3 C3             1.1271     1.8769     0.0014 C.2     
   4 S4             2.3826     0.7116    -0.0169 S.3     
   5 C5             1.1681    -0.5677    -0.0121 C.2     
   6 C6             1.4387    -2.0502    -0.0217 C.3     
   7 C7             1.5173    -2.5450    -1.4674 C.3     
   8 C8             2.1718    -6.2170    -3.4310 C.3     
   9 C9             2.2195    -6.5434    -4.9015 C.2     
  10 N10            3.2727    -6.5215    -5.6551 N.2     
  11 S11            0.8525    -7.0314    -5.9038 S.3     
  12 C12            1.9042    -7.1394    -7.2517 C.2     
  13 N13            3.1057    -6.8287    -6.8682 N.2     
  14 N14            1.5340    -7.5046    -8.5415 N.am    
  15 C15            2.4593    -7.5523    -9.5203 C.2     
  16 O16            3.6149    -7.2766    -9.2761 O.2     
  17 C17            2.0581    -7.9480   -10.9179 C.3     
  18 N18            1.3017     3.2566     0.0071 N.am    
  19 C19            0.2284     4.0717     0.0222 C.2     
  20 C20            0.4176     5.5667     0.0285 C.3     
  21 O21           -0.8897     3.6019     0.0309 O.2     
  22 C22            1.9004    -4.7224    -3.2489 C.3     
  23 N23            3.2355    -7.9232   -11.7894 N.pl3   
  24 N24           -0.8913     6.2246     0.0451 N.pl3   
  25 C25           -1.5897     6.5751     1.1453 C.2     
  26 C26            4.0725    -8.9558   -12.0226 C.2     
  27 S27            1.8430    -4.3295    -1.4789 S.3     
  28 N28            3.6878    -6.8252   -12.5326 N.2     
  29 C29            4.7626    -7.1878   -13.1846 C.2     
  30 C30            5.0271    -8.5272   -12.8806 C.2     
  31 C31            5.5731    -6.3144   -14.1072 C.3     
  32 C32            3.9638   -10.3383   -11.4329 C.3     
  33 N33           -1.6361     6.6062    -1.0782 N.2     
  34 C34           -2.7455     7.1621    -0.6635 C.2     
  35 C35           -2.7415     7.1551     0.7352 C.2     
  36 C36           -1.1635     6.3590     2.5745 C.3     
  37 C37           -3.8276     7.6979     1.6278 C.3     
  38 H38            2.3840    -2.2503     0.4827 H       
  39 H39            0.6331    -2.5700     0.4969 H       
  40 H40            0.5720    -2.3449    -1.9718 H       
  41 H41            2.3230    -2.0252    -1.9860 H       
  42 H42            1.3758    -6.7912    -2.9570 H       
  43 H43            3.1267    -6.4716    -2.9712 H       
  44 H44            0.6097    -7.7250    -8.7368 H       
  45 H45            1.6373    -8.9534   -10.9042 H       
  46 H46            1.3128    -7.2473   -11.2942 H       
  47 H47            2.1959     3.6323     0.0002 H       
  48 H48            0.9819     5.8579     0.9145 H       
  49 H49            0.9641     5.8675    -0.8654 H       
  50 H50            2.6965    -4.1481    -3.7229 H       
  51 H51            0.9455    -4.4678    -3.7088 H       
  52 H52            5.8480    -9.1155   -13.2633 H       
  53 H53            6.3505    -5.8062   -13.5367 H       
  54 H54            6.0334    -6.9305   -14.8797 H       
  55 H55            4.9218    -5.5747   -14.5727 H       
  56 H56            3.3549   -10.9646   -12.0848 H       
  57 H57            4.9592   -10.7722   -11.3383 H       
  58 H58            3.4987   -10.2780   -10.4489 H       
  59 H59           -3.5280     7.5603    -1.2925 H       
  60 H60           -0.5986     7.2247     2.9201 H       
  61 H61           -2.0459     6.2274     3.2008 H       
  62 H62           -0.5379     5.4686     2.6364 H       
  63 H63           -4.5513     6.9108     1.8393 H       
  64 H64           -3.3888     8.0487     2.5618 H       
  65 H65           -4.3283     8.5270     1.1277 H       
@<TRIPOS>BOND
   1    1    2 1
   2    1    3 2
   3    2    5 2
   4    3    4 1
   5    3   18 1
   6    4    5 1
   7    5    6 1
   8    6    7 1
   9    6   38 1
  10    6   39 1
  11    7   27 1
  12    7   40 1
  13    7   41 1
  14    8    9 1
  15    8   22 1
  16    8   42 1
  17    8   43 1
  18    9   10 2
  19    9   11 1
  20   10   13 1
  21   11   12 1
  22   12   13 2
  23   12   14 1
  24   14   15 am
  25   14   44 1
  26   15   16 2
  27   15   17 1
  28   17   23 1
  29   17   45 1
  30   17   46 1
  31   18   19 am
  32   18   47 1
  33   19   20 1
  34   19   21 2
  35   20   24 1
  36   20   48 1
  37   20   49 1
  38   22   27 1
  39   22   50 1
  40   22   51 1
  41   23   26 1
  42   23   28 1
  43   24   25 1
  44   24   33 1
  45   25   36 1
  46   25   35 2
  47   26   32 1
  48   26   30 2
  49   28   29 2
  50   29   30 1
  51   29   31 1
  52   30   52 1
  53   31   53 1
  54   31   54 1
  55   31   55 1
  56   32   56 1
  57   32   57 1
  58   32   58 1
  59   33   34 2
  60   34   35 1
  61   34   59 1
  62   35   37 1
  63   36   60 1
  64   36   61 1
  65   36   62 1
  66   37   63 1
  67   37   64 1
  68   37   65 1

#	End of record

