#	Name: ASD05740133
#	Creating user name:	WinNT
#	Creation time:	15. 06. 2019 21:02

#	Modifying user name:	WinNT
#	Modification time:	15. 06. 2019 21:02

#	Program:	/corina/corina34_cracker 3.40 0067  02.08.2006

@<TRIPOS>MOLECULE
ASD05740133
  58   59    0    0    0
SMALL
NO_CHARGES


@<TRIPOS>ATOM
   1 C1            -0.0192     1.5411     0.0123 C.3     
   2 C2            -2.9660    -1.7275     0.9767 C.3     
   3 C3            -2.1460    -4.0031     0.2434 C.2     
   4 C4            -1.3268    -4.8027    -0.5396 C.2     
   5 C5            -2.0786    -2.6026     0.1295 C.2     
   6 C6            -1.2023    -2.0431    -0.7557 C.2     
   7 C7            -0.3880    -2.8777    -1.5326 C.2     
   8 O8            -0.4626    -4.2099    -1.4139 O.3     
   9 C9            -1.1123    -0.5453    -0.8958 C.3     
  10 C10           -0.0819    -0.0013     0.0957 C.3     
  11 C11            1.3309    -0.4824    -0.2838 C.3     
  12 O12            0.3971    -2.3857    -2.3259 O.2     
  13 C13            1.4951     1.8347     0.1583 C.3     
  14 N14            2.1310     0.7224    -0.5932 N.3     
  15 N15            1.8320     3.1261    -0.4459 N.am    
  16 S16            3.1593     3.9652     0.0801 S.o2    
  17 O17            3.1541     5.1534    -0.6993 O.2     
  18 O18            3.0059     4.0144     1.4919 O.2     
  19 C19           -1.5133    -6.1601    -0.3094 C.2     
  20 C20           -2.4337    -6.4743     0.6111 C.2     
  21 S21           -3.1580    -5.0160     1.2679 S.3     
  22 O22           -2.7626    -7.7365     0.9788 O.3     
  23 C23           -3.7715    -7.8781     1.9810 C.3     
  24 C24            4.5673     2.9142    -0.3710 C.3     
  25 C25            5.8490     3.5787     0.0612 C.2     
  26 O26            5.8158     4.6553     0.6185 O.2     
  27 N27            7.0320     2.9766    -0.1718 N.am    
  28 C28            8.2780     3.6226     0.2483 C.3     
  29 H29           -0.3886     1.8906    -0.9518 H       
  30 H30           -0.5805     1.9947     0.8291 H       
  31 H31           -3.5905    -2.3528     1.6147 H       
  32 H32           -2.3494    -1.0770     1.5970 H       
  33 H33           -3.6000    -1.1197     0.3311 H       
  34 H34           -0.8077    -0.2930    -1.9115 H       
  35 H35           -2.0861    -0.1018    -0.6878 H       
  36 H36           -0.3305    -0.3156     1.1094 H       
  37 H37            1.7774    -1.0199     0.5527 H       
  38 H38            1.2801    -1.1293    -1.1596 H       
  39 H39            1.7947     1.8118     1.2061 H       
  40 H40            3.0925     0.5998    -0.3128 H       
  41 H41            1.2777     3.4896    -1.1540 H       
  42 H42           -0.9515    -6.9146    -0.8399 H       
  43 H43           -4.6983    -7.4243     1.6302 H       
  44 H44           -3.9383    -8.9364     2.1816 H       
  45 H45           -3.4473    -7.3817     2.8956 H       
  46 H46            4.4735     1.9483     0.1255 H       
  47 H47            4.5801     2.7678    -1.4510 H       
  48 H48            7.0586     2.1155    -0.6176 H       
  49 H49            8.3718     4.5884    -0.2481 H       
  50 H50            8.2652     3.7690     1.3284 H       
  51 H51            9.1240     2.9911    -0.0227 H       
  52 C52           14.6512    12.8227     9.7639 C.3     
  53 N53           14.6711    11.3579     9.7558 N.2     
  54 C54           15.2118    10.7453     8.8098 C.1     
  55 O55           15.7344    10.1534     7.8956 O.2     
  56 H56           15.6738    13.2000     9.7561 H       
  57 H57           14.1240    13.1838     8.8808 H       
  58 H58           14.1410    13.1742    10.6607 H       
@<TRIPOS>BOND
   1    1   10 1
   2    1   13 1
   3    1   29 1
   4    1   30 1
   5    2    5 1
   6    2   31 1
   7    2   32 1
   8    2   33 1
   9    3    4 2
  10    3    5 1
  11    3   21 1
  12    4   19 1
  13    4    8 1
  14    5    6 2
  15    6    7 1
  16    6    9 1
  17    7    8 1
  18    7   12 2
  19    9   10 1
  20    9   34 1
  21    9   35 1
  22   10   11 1
  23   10   36 1
  24   11   14 1
  25   11   37 1
  26   11   38 1
  27   13   14 1
  28   13   15 1
  29   13   39 1
  30   14   40 1
  31   15   16 am
  32   15   41 1
  33   16   17 2
  34   16   18 2
  35   16   24 1
  36   19   20 2
  37   19   42 1
  38   20   21 1
  39   20   22 1
  40   22   23 1
  41   23   43 1
  42   23   44 1
  43   23   45 1
  44   24   25 1
  45   24   46 1
  46   24   47 1
  47   25   26 2
  48   25   27 am
  49   27   28 1
  50   27   48 1
  51   28   49 1
  52   28   50 1
  53   28   51 1
  54   52   53 1
  55   52   56 1
  56   52   57 1
  57   52   58 1
  58   53   54 2
  59   54   55 2

#	End of record

