#	Name: ASD03910121
#	Creating user name:	WinNT
#	Creation time:	15. 06. 2019 20:47

#	Modifying user name:	WinNT
#	Modification time:	15. 06. 2019 20:47

#	Program:	/corina/corina34_cracker 3.40 0067  02.08.2006

@<TRIPOS>MOLECULE
ASD03910121
  39   42    0    0    0
SMALL
NO_CHARGES


@<TRIPOS>ATOM
   1 C1             0.1427     1.4959     0.6010 C.2     
   2 C2            -0.0471     0.1055     0.1684 C.2     
   3 C3             0.9147    -0.6097    -0.3748 C.2     
   4 C4             2.2450    -0.0053    -0.5649 C.2     
   5 C5             3.2490    -0.6586    -1.0995 C.2     
   6 C6             4.5600     0.0051    -1.2626 C.2     
   7 C7             4.7195     1.2474    -0.8728 C.2     
   8 C8             5.9995     1.9645    -1.0075 C.2     
   9 C9             6.0871     3.2110    -0.5950 C.2     
  10 C10            4.9561     3.9328     0.0019 C.2     
  11 C11            3.7798     3.3729     0.1607 C.2     
  12 C12            2.6487     4.1006     0.7603 C.2     
  13 C13            1.4789     3.5080     0.9067 C.2     
  14 C14            1.2930     2.1139     0.4702 C.2     
  15 C15            2.4297     1.3916    -0.1288 C.2     
  16 C16            3.5868     1.9774    -0.2728 C.2     
  17 S17           -1.2172     2.3630     1.3106 S.o2    
  18 O18           -1.8165     3.1021     0.2552 O.2     
  19 O19           -1.9279     1.4185     2.0992 O.2     
  20 O20           -0.6427     3.3864     2.2797 O.3     
  21 S21           -1.6301    -0.6371     0.3864 S.o2    
  22 O22           -1.5100    -1.5204     1.4929 O.2     
  23 O23           -2.5793     0.4191     0.3345 O.2     
  24 O24           -1.8905    -1.5092    -0.8335 O.3     
  25 S25            0.6149    -2.2740    -0.8695 S.o2    
  26 O26            0.1465    -2.2161    -2.2099 O.2     
  27 O27            1.7581    -3.0214    -0.4773 O.2     
  28 O28           -0.5452    -2.7913    -0.0309 O.3     
  29 O29            3.0839    -1.9486    -1.5039 O.3     
  30 H30            5.3866    -0.5331    -1.7024 H       
  31 H31            6.8576     1.4718    -1.4403 H       
  32 H32            7.0312     3.7251    -0.6996 H       
  33 H33            5.0967     4.9552     0.3202 H       
  34 H34            2.7773     5.1236     1.0819 H       
  35 H35            0.6541     4.0478     1.3479 H       
  36 H36           -1.3113     3.9219     2.7282 H       
  37 H37           -2.7418    -1.9675    -0.8149 H       
  38 H38           -0.7937    -3.7055    -0.2247 H       
  39 H39            2.7934    -2.0389    -2.4218 H       
@<TRIPOS>BOND
   1    1    2 1
   2    1   14 2
   3    1   17 1
   4    2    3 2
   5    2   21 1
   6    3    4 1
   7    3   25 1
   8    4    5 2
   9    4   15 1
  10    5    6 1
  11    5   29 1
  12    6    7 2
  13    6   30 1
  14    7    8 1
  15    7   16 1
  16    8    9 2
  17    8   31 1
  18    9   10 1
  19    9   32 1
  20   10   11 2
  21   10   33 1
  22   11   12 1
  23   11   16 1
  24   12   13 2
  25   12   34 1
  26   13   14 1
  27   13   35 1
  28   14   15 1
  29   15   16 2
  30   17   18 2
  31   17   19 2
  32   17   20 1
  33   20   36 1
  34   21   22 2
  35   21   23 2
  36   21   24 1
  37   24   37 1
  38   25   26 2
  39   25   27 2
  40   25   28 1
  41   28   38 1
  42   29   39 1

#	End of record

