#	Name: ASD01914441
#	Creating user name:	WinNT
#	Creation time:	15. 06. 2019 20:03

#	Modifying user name:	WinNT
#	Modification time:	15. 06. 2019 20:03

#	Program:	/corina/corina34_cracker 3.40 0067  02.08.2006

@<TRIPOS>MOLECULE
ASD01914441
  41   44    0    0    0
SMALL
NO_CHARGES


@<TRIPOS>ATOM
   1 C1            -0.0168     1.3889     0.0097 C.ar    
   2 C2             0.0021    -0.0041     0.0020 C.ar    
   3 C3             1.2225    -0.6606    -0.0132 C.ar    
   4 C4             2.3820     0.0991    -0.0202 C.ar    
   5 C5             2.2883     1.4815    -0.0119 C.ar    
   6 N6             1.1168     2.0790     0.0026 N.ar    
   7 C7            -1.3134     2.1059     0.0197 C.2     
   8 O8            -2.3544     1.4791     0.0212 O.2     
   9 N9            -1.3382     3.4534     0.0271 N.am    
  10 C10           -2.6202     4.1624     0.0371 C.3     
  11 C11           -2.3683     5.6715     0.0441 C.3     
  12 C12           -3.7072     6.4120     0.0544 C.3     
  13 C13           -4.4966     6.0209     1.3053 C.3     
  14 C14           -4.7485     4.5118     1.2983 C.3     
  15 C15           -5.5497     4.1342     0.0508 C.3     
  16 C16           -4.7603     4.5253    -1.2001 C.3     
  17 C17           -3.4214     3.7849    -1.2105 C.3     
  18 C18           -4.5085     6.0344    -1.1931 C.3     
  19 C19           -3.4096     3.7713     1.2879 C.3     
  20 N20           -3.4654     7.8609     0.0612 N.3     
  21 H21           -0.9212    -0.5643     0.0082 H       
  22 H22            1.2691    -1.7396    -0.0191 H       
  23 H23            3.3489    -0.3819    -0.0317 H       
  24 H24            3.1896     2.0764    -0.0174 H       
  25 H25           -0.5072     3.9538     0.0259 H       
  26 H26           -1.7975     5.9405     0.9328 H       
  27 H27           -1.8059     5.9502    -0.8471 H       
  28 H28           -3.9258     6.2898     2.1941 H       
  29 H29           -5.4505     6.5484     1.3127 H       
  30 H30           -5.3109     4.2331     2.1895 H       
  31 H31           -5.7292     3.0591     0.0458 H       
  32 H32           -6.5036     4.6617     0.0581 H       
  33 H33           -5.3311     4.2564    -2.0889 H       
  34 H34           -2.8590     4.0635    -2.1016 H       
  35 H35           -3.6009     2.7098    -1.2155 H       
  36 H36           -5.4623     6.5620    -1.1857 H       
  37 H37           -3.9460     6.3131    -2.0842 H       
  38 H38           -3.5890     2.6962     1.2830 H       
  39 H39           -2.8388     4.0403     2.1767 H       
  40 H40           -4.3350     8.3726     0.0681 H       
  41 H41           -2.8832     8.1268     0.8412 H       
@<TRIPOS>BOND
   1    1    2 ar
   2    1    6 ar
   3    1    7 1
   4    2    3 ar
   5    2   21 1
   6    3    4 ar
   7    3   22 1
   8    4    5 ar
   9    4   23 1
  10    5    6 ar
  11    5   24 1
  12    7    8 2
  13    7    9 am
  14    9   10 1
  15    9   25 1
  16   10   11 1
  17   10   17 1
  18   10   19 1
  19   11   12 1
  20   11   26 1
  21   11   27 1
  22   12   13 1
  23   12   18 1
  24   12   20 1
  25   13   14 1
  26   13   28 1
  27   13   29 1
  28   14   15 1
  29   14   19 1
  30   14   30 1
  31   15   16 1
  32   15   31 1
  33   15   32 1
  34   16   17 1
  35   16   18 1
  36   16   33 1
  37   17   34 1
  38   17   35 1
  39   18   36 1
  40   18   37 1
  41   19   38 1
  42   19   39 1
  43   20   40 1
  44   20   41 1

#	End of record

