#	Name: ASD03731627
#	Creating user name:	WinNT
#	Creation time:	15. 06. 2019 20:46

#	Modifying user name:	WinNT
#	Modification time:	15. 06. 2019 20:46

#	Program:	/corina/corina34_cracker 3.40 0067  02.08.2006

@<TRIPOS>MOLECULE
ASD03731627
  33   34    0    0    0
SMALL
NO_CHARGES


@<TRIPOS>ATOM
   1 C1            -0.1362     1.4672     0.0333 C.2     
   2 C2            -0.0851    -0.0063     0.0192 C.ar    
   3 C3             1.1400    -0.6649    -0.1384 C.ar    
   4 C4             1.1827    -2.0446    -0.1506 C.ar    
   5 C5             0.0129    -2.7784    -0.0068 C.ar    
   6 C6            -1.2080    -2.1271     0.1498 C.ar    
   7 C7            -1.2596    -0.7502     0.1689 C.ar    
   8 O8             0.8870     2.1123    -0.0920 O.2     
   9 N9            -1.3176     2.0992     0.1796 N.am    
  10 S10           -1.3750     3.7541     0.1955 S.o2    
  11 O11           -2.7501     4.0552     0.3894 O.2     
  12 O12           -0.4000     4.1293     1.1588 O.2     
  13 C13           -0.8452     4.2414    -1.4695 C.3     
  14 F14           -2.3431    -2.8464     0.2888 F       
  15 F15            2.2786     0.0486    -0.2788 F       
  16 O16            0.0593    -4.1350    -0.0193 O.3     
  17 C17           -0.1522    -4.7697    -1.2022 C.ar    
  18 C18           -0.0462    -6.1521    -1.2783 C.ar    
  19 C19           -0.2621    -6.7951    -2.4838 C.ar    
  20 C20           -0.5828    -6.0609    -3.6125 C.ar    
  21 C21           -0.6885    -4.6848    -3.5377 C.ar    
  22 C22           -0.4799    -4.0382    -2.3343 C.ar    
  23 Cl23          -0.1301    -8.5233    -2.5814 Cl      
  24 Cl24           0.3572    -7.0722     0.1375 Cl      
  25 H25            2.1272    -2.5538    -0.2724 H       
  26 H26           -2.2064    -0.2462     0.2952 H       
  27 H27           -2.1343     1.5846     0.2756 H       
  28 H28           -1.5275     3.8177    -2.2065 H       
  29 H29           -0.8532     5.3284    -1.5498 H       
  30 H30            0.1634     3.8709    -1.6529 H       
  31 H31           -0.7504    -6.5641    -4.5533 H       
  32 H32           -0.9385    -4.1144    -4.4200 H       
  33 H33           -0.5672    -2.9633    -2.2763 H       
@<TRIPOS>BOND
   1    1    2 1
   2    1    8 2
   3    1    9 am
   4    2    3 ar
   5    2    7 ar
   6    3    4 ar
   7    3   15 1
   8    4    5 ar
   9    4   25 1
  10    5    6 ar
  11    5   16 1
  12    6    7 ar
  13    6   14 1
  14    7   26 1
  15    9   10 am
  16    9   27 1
  17   10   11 2
  18   10   12 2
  19   10   13 1
  20   13   28 1
  21   13   29 1
  22   13   30 1
  23   16   17 1
  24   17   18 ar
  25   17   22 ar
  26   18   19 ar
  27   18   24 1
  28   19   20 ar
  29   19   23 1
  30   20   21 ar
  31   20   31 1
  32   21   22 ar
  33   21   32 1
  34   22   33 1

#	End of record

