#	Name: ASD05740164
#	Creating user name:	WinNT
#	Creation time:	15. 06. 2019 21:02

#	Modifying user name:	WinNT
#	Modification time:	15. 06. 2019 21:02

#	Program:	/corina/corina34_cracker 3.40 0067  02.08.2006

@<TRIPOS>MOLECULE
ASD05740164
  71   76    0    0    0
SMALL
NO_CHARGES


@<TRIPOS>ATOM
   1 C1             0.9531    -0.8271    -0.0440 C.3     
   2 N2             0.0371    -0.1445     0.8805 N.3     
   3 C3            -1.2685    -0.6286     0.7416 C.ar    
   4 C4            -2.2886    -0.1107     1.5289 C.ar    
   5 C5            -3.5768    -0.5884     1.3918 C.ar    
   6 C6            -3.8523    -1.5871     0.4670 C.ar    
   7 C7            -2.8322    -2.1053    -0.3199 C.ar    
   8 C8            -1.5452    -1.6230    -0.1876 C.ar    
   9 N9            -5.1590    -2.0720     0.3283 N.pl3   
  10 C10           -6.2334    -1.2225     0.5064 C.ar    
  11 N11           -6.0003     0.0714     0.6975 N.ar    
  12 N12           -7.4577    -1.7281     0.4747 N.ar    
  13 C13           -8.5129    -0.9414     0.6420 C.ar    
  14 C14           -8.3033     0.4392     0.8533 C.ar    
  15 C15           -6.9916     0.9266     0.8729 C.ar    
  16 N16           -9.7918    -1.4348     0.6140 N.am    
  17 C17          -10.8502    -0.6228     0.7850 C.2     
  18 C18          -10.6974     0.7620     0.9988 C.2     
  19 C19           -9.4567     1.3145     1.0386 C.2     
  20 C20          -10.0085    -2.8669     0.3943 C.3     
  21 O21          -11.9723    -1.0974     0.7538 O.2     
  22 C22            0.5017    -0.2735     2.2687 C.3     
  23 C23            1.8991     0.3378     2.3951 C.3     
  24 N24            2.8151    -0.3448     1.4706 N.3     
  25 C25            2.3504    -0.2158     0.0824 C.3     
  26 C26            4.1856     0.1634     1.6164 C.3     
  27 C27          -10.7467    -3.4548     1.5953 C.3     
  28 C28          -11.1532    -4.8937     1.2556 C.3     
  29 C29          -12.2520    -4.8463     0.1958 C.3     
  30 C30          -11.8373    -3.9722    -0.9588 C.ar    
  31 C31          -10.8101    -3.0604    -0.8663 C.ar    
  32 C32          -12.5323    -4.1064    -2.1540 C.ar    
  33 C33          -12.2034    -3.3320    -3.2470 C.ar    
  34 C34          -11.1739    -2.4138    -3.1531 C.ar    
  35 C35          -10.4817    -2.2799    -1.9676 C.ar    
  36 C36          -12.5212    -6.2630    -0.3154 C.3     
  37 C37          -13.5309    -4.2845     0.8199 C.3     
  38 H38            0.9963    -1.8877     0.2039 H       
  39 H39            0.5945    -0.7067    -1.0663 H       
  40 H40           -2.0742     0.6655     2.2486 H       
  41 H41           -4.3701    -0.1857     2.0041 H       
  42 H42           -3.0464    -2.8825    -1.0386 H       
  43 H43           -0.7519    -2.0260    -0.7996 H       
  44 H44           -5.3094    -3.0044     0.1073 H       
  45 H45           -6.7944     1.9765     1.0322 H       
  46 H46          -11.5691     1.3857     1.1317 H       
  47 H47           -9.3272     2.3741     1.2021 H       
  48 H48           -9.0444    -3.3640     0.2864 H       
  49 H49           -0.1859     0.2505     2.9325 H       
  50 H50            0.5399    -1.3278     2.5429 H       
  51 H51            1.8558     1.3984     2.1471 H       
  52 H52            2.2577     0.2174     3.4173 H       
  53 H53            3.0381    -0.7398    -0.5814 H       
  54 H54            2.3123     0.8385    -0.1918 H       
  55 H55            4.5291    -0.0055     2.6370 H       
  56 H56            4.8426    -0.3587     0.9208 H       
  57 H57            4.2021     1.2315     1.3996 H       
  58 H58          -10.0905    -3.4544     2.4657 H       
  59 H59          -11.6367    -2.8617     1.8055 H       
  60 H60          -10.2915    -5.4366     0.8670 H       
  61 H61          -11.5276    -5.3904     2.1506 H       
  62 H62          -13.3366    -4.8233    -2.2282 H       
  63 H63          -12.7483    -3.4422    -4.1729 H       
  64 H64          -10.9128    -1.8035    -4.0050 H       
  65 H65           -9.6779    -1.5623    -1.8949 H       
  66 H66          -12.8407    -6.8940     0.5140 H       
  67 H67          -13.3051    -6.2333    -1.0722 H       
  68 H68          -11.6097    -6.6710    -0.7522 H       
  69 H69          -13.3410    -3.2787     1.1944 H       
  70 H70          -14.3177    -4.2491     0.0664 H       
  71 H71          -13.8452    -4.9256     1.6435 H       
@<TRIPOS>BOND
   1    1    2 1
   2    1   25 1
   3    1   38 1
   4    1   39 1
   5    2    3 1
   6    2   22 1
   7    3    4 ar
   8    3    8 ar
   9    4    5 ar
  10    4   40 1
  11    5    6 ar
  12    5   41 1
  13    6    7 ar
  14    6    9 1
  15    7    8 ar
  16    7   42 1
  17    8   43 1
  18    9   10 1
  19    9   44 1
  20   10   11 ar
  21   10   12 ar
  22   11   15 ar
  23   12   13 ar
  24   13   14 ar
  25   13   16 1
  26   14   15 ar
  27   14   19 1
  28   15   45 1
  29   16   17 am
  30   16   20 1
  31   17   18 1
  32   17   21 2
  33   18   19 2
  34   18   46 1
  35   19   47 1
  36   20   27 1
  37   20   31 1
  38   20   48 1
  39   22   23 1
  40   22   49 1
  41   22   50 1
  42   23   24 1
  43   23   51 1
  44   23   52 1
  45   24   25 1
  46   24   26 1
  47   25   53 1
  48   25   54 1
  49   26   55 1
  50   26   56 1
  51   26   57 1
  52   27   28 1
  53   27   58 1
  54   27   59 1
  55   28   29 1
  56   28   60 1
  57   28   61 1
  58   29   30 1
  59   29   36 1
  60   29   37 1
  61   30   31 ar
  62   30   32 ar
  63   31   35 ar
  64   32   33 ar
  65   32   62 1
  66   33   34 ar
  67   33   63 1
  68   34   35 ar
  69   34   64 1
  70   35   65 1
  71   36   66 1
  72   36   67 1
  73   36   68 1
  74   37   69 1
  75   37   70 1
  76   37   71 1

#	End of record

