#	Name: ASD01900999
#	Creating user name:	WinNT
#	Creation time:	15. 06. 2019 19:53

#	Modifying user name:	WinNT
#	Modification time:	15. 06. 2019 19:53

#	Program:	/corina/corina34_cracker 3.40 0067  02.08.2006

@<TRIPOS>MOLECULE
ASD01900999
  65   69    0    0    0
SMALL
NO_CHARGES


@<TRIPOS>ATOM
   1 C1             0.1354     0.8610    -0.2598 C.ar    
   2 C2             0.3158    -0.5048    -0.2973 C.ar    
   3 C3             1.5915    -1.0436    -0.4055 C.ar    
   4 C4             2.7005    -0.2171    -0.4690 C.ar    
   5 C5             2.5348     1.1557    -0.4265 C.ar    
   6 C6             1.2427     1.7042    -0.3319 C.ar    
   7 N7             3.6190     2.0251    -0.4678 N.pl3   
   8 C8             3.4300     3.3650    -1.0356 C.3     
   9 N9             2.1730     3.9442    -0.5607 N.am    
  10 C10            1.1011     3.1692    -0.3011 C.2     
  11 C11            2.0821     5.3289    -0.3716 C.ar    
  12 C12            2.6408     5.9140     0.7570 C.ar    
  13 C13            2.5512     7.2794     0.9426 C.ar    
  14 C14            1.9033     8.0665     0.0018 C.ar    
  15 C15            1.3445     7.4827    -1.1257 C.ar    
  16 C16            1.4383     6.1181    -1.3155 C.ar    
  17 O17            0.0256     3.6761    -0.0446 O.2     
  18 O18            1.8154     9.4110     0.1852 O.3     
  19 C19            4.5964     4.2625    -0.6116 C.3     
  20 C20            3.4022     3.2679    -2.5635 C.3     
  21 C21            3.2743     4.6731    -3.1560 C.3     
  22 N22            4.4103     5.4951    -2.7201 N.3     
  23 C23            4.4329     5.6397    -1.2590 C.3     
  24 C24            4.3935     6.8080    -3.3788 C.3     
  25 C25            5.5078     7.6604    -2.8287 C.ar    
  26 C26            1.1344    10.1602    -0.8232 C.3     
  27 C27            6.7863     7.5407    -3.3413 C.ar    
  28 C28            7.8099     8.3233    -2.8370 C.ar    
  29 C29            7.5519     9.2273    -1.8173 C.ar    
  30 C30            6.2713     9.3446    -1.3065 C.ar    
  31 C31            5.2496     8.5650    -1.8161 C.ar    
  32 F32            9.0595     8.2066    -3.3371 F       
  33 F33            1.7514    -2.3844    -0.4487 F       
  34 F34            8.5498     9.9921    -1.3231 F       
  35 C35            1.1370    11.6429    -0.4461 C.3     
  36 O36            2.4791    12.1336    -0.4522 O.3     
  37 C37            2.5939    13.5166    -0.1115 C.3     
  38 H38           -0.8586     1.2756    -0.1794 H       
  39 H39           -0.5405    -1.1607    -0.2419 H       
  40 H40            3.6900    -0.6420    -0.5509 H       
  41 H41            4.4849     1.7510    -0.1271 H       
  42 H42            3.1449     5.3013     1.4897 H       
  43 H43            2.9853     7.7345     1.8205 H       
  44 H44            0.8399     8.0961    -1.8575 H       
  45 H45            1.0071     5.6643    -2.1955 H       
  46 H46            4.5989     4.3681     0.4733 H       
  47 H47            5.5362     3.8164    -0.9370 H       
  48 H48            4.3250     2.8069    -2.9158 H       
  49 H49            2.5505     2.6629    -2.8744 H       
  50 H50            3.2686     4.6093    -4.2441 H       
  51 H51            2.3447     5.1281    -2.8142 H       
  52 H52            3.4985     6.0899    -0.9241 H       
  53 H53            5.2677     6.2783    -0.9701 H       
  54 H54            4.5316     6.6778    -4.4522 H       
  55 H55            3.4368     7.2959    -3.1922 H       
  56 H56            1.6413    10.0274    -1.7790 H       
  57 H57            0.1061     9.8080    -0.9054 H       
  58 H58            6.9860     6.8362    -4.1351 H       
  59 H59            6.0691    10.0479    -0.5122 H       
  60 H60            4.2494     8.6600    -1.4198 H       
  61 H61            0.5423    12.2025    -1.1681 H       
  62 H62            0.7099    11.7655     0.5492 H       
  63 H63            3.6429    13.8117    -0.1387 H       
  64 H64            2.0294    14.1151    -0.8265 H       
  65 H65            2.1970    13.6780     0.8908 H       
@<TRIPOS>BOND
   1    1    2 ar
   2    1    6 ar
   3    1   38 1
   4    2    3 ar
   5    2   39 1
   6    3    4 ar
   7    3   33 1
   8    4    5 ar
   9    4   40 1
  10    5    7 1
  11    5    6 ar
  12    6   10 1
  13    7    8 1
  14    7   41 1
  15    8    9 1
  16    8   20 1
  17    8   19 1
  18    9   10 am
  19    9   11 1
  20   10   17 2
  21   11   12 ar
  22   11   16 ar
  23   12   13 ar
  24   12   42 1
  25   13   14 ar
  26   13   43 1
  27   14   15 ar
  28   14   18 1
  29   15   16 ar
  30   15   44 1
  31   16   45 1
  32   18   26 1
  33   19   23 1
  34   19   46 1
  35   19   47 1
  36   20   21 1
  37   20   48 1
  38   20   49 1
  39   21   22 1
  40   21   50 1
  41   21   51 1
  42   22   23 1
  43   22   24 1
  44   23   52 1
  45   23   53 1
  46   24   25 1
  47   24   54 1
  48   24   55 1
  49   25   27 ar
  50   25   31 ar
  51   26   35 1
  52   26   56 1
  53   26   57 1
  54   27   28 ar
  55   27   58 1
  56   28   29 ar
  57   28   32 1
  58   29   30 ar
  59   29   34 1
  60   30   31 ar
  61   30   59 1
  62   31   60 1
  63   35   36 1
  64   35   61 1
  65   35   62 1
  66   36   37 1
  67   37   63 1
  68   37   64 1
  69   37   65 1

#	End of record

