#	Name: ASD01912247
#	Creating user name:	WinNT
#	Creation time:	15. 06. 2019 19:59

#	Modifying user name:	WinNT
#	Modification time:	15. 06. 2019 19:59

#	Program:	/corina/corina34_cracker 3.40 0067  02.08.2006

@<TRIPOS>MOLECULE
ASD01912247
  43   45    0    0    0
SMALL
NO_CHARGES


@<TRIPOS>ATOM
   1 C1             0.0021    -0.0041     0.0020 C.1     
   2 C2            -0.0173     1.4278     0.0099 C.ar    
   3 C3             1.1848     2.1471     0.0023 C.ar    
   4 C4             1.1606     3.5259     0.0100 C.ar    
   5 C5            -0.0550     4.2026     0.0257 C.ar    
   6 C6            -1.2517     3.4931     0.0338 C.ar    
   7 C7            -1.2386     2.1141     0.0194 C.ar    
   8 N8             0.0175    -1.1399    -0.0042 N.1     
   9 N9            -0.0738     5.5943     0.0339 N.3     
  10 C10           -1.4515     6.1018     0.0502 C.3     
  11 C11           -1.4343     7.6136     0.3037 C.3     
  12 C12           -0.5237     8.2558    -0.7218 C.2     
  13 C13            0.8504     7.6517    -0.9221 C.3     
  14 C14            0.6880     6.1375    -1.0977 C.3     
  15 C15           -0.9185     9.3167    -1.4245 C.2     
  16 C16           -0.0379     9.9052    -2.3883 C.1     
  17 C17            0.6841    10.3876    -3.1784 C.1     
  18 C18            1.5647    10.9761    -4.1421 C.ar    
  19 C19            1.1455    12.0891    -4.8768 C.ar    
  20 C20            2.0081    12.6452    -5.8034 C.ar    
  21 C21            3.2630    12.0737    -5.9687 C.ar    
  22 C22            3.6140    10.9728    -5.2088 C.ar    
  23 N23            2.7776    10.4633    -4.3281 N.ar    
  24 C24            4.9752    10.3511    -5.3866 C.3     
  25 F25           -2.4014     1.4263     0.0207 F       
  26 F26            2.3658     1.4912    -0.0121 F       
  27 H27            2.0867     4.0814     0.0041 H       
  28 H28           -2.1926     4.0231     0.0467 H       
  29 H29           -1.9249     5.8996    -0.9106 H       
  30 H30           -2.0120     5.6066     0.8432 H       
  31 H31           -2.4427     8.0148     0.2024 H       
  32 H32           -1.0575     7.8139     1.3067 H       
  33 H33            1.3129     8.0775    -1.8126 H       
  34 H34            1.4724     7.8562    -0.0507 H       
  35 H35            1.6711     5.6681    -1.1329 H       
  36 H36            0.1544     5.9343    -2.0262 H       
  37 H37           -1.9026     9.7327    -1.2674 H       
  38 H38            0.1621    12.5083    -4.7232 H       
  39 H39            1.7123    13.5051    -6.3862 H       
  40 H40            3.9587    12.4852    -6.6849 H       
  41 H41            5.6821    10.8227    -4.7040 H       
  42 H42            4.9184     9.2842    -5.1708 H       
  43 H43            5.3098    10.4966    -6.4137 H       
@<TRIPOS>BOND
   1    1    2 1
   2    1    8 3
   3    2    3 ar
   4    2    7 ar
   5    3    4 ar
   6    3   26 1
   7    4    5 ar
   8    4   27 1
   9    5    6 ar
  10    5    9 1
  11    6    7 ar
  12    6   28 1
  13    7   25 1
  14    9   10 1
  15    9   14 1
  16   10   11 1
  17   10   29 1
  18   10   30 1
  19   11   12 1
  20   11   31 1
  21   11   32 1
  22   12   13 1
  23   12   15 2
  24   13   14 1
  25   13   33 1
  26   13   34 1
  27   14   35 1
  28   14   36 1
  29   15   16 1
  30   15   37 1
  31   16   17 3
  32   17   18 1
  33   18   19 ar
  34   18   23 ar
  35   19   20 ar
  36   19   38 1
  37   20   21 ar
  38   20   39 1
  39   21   22 ar
  40   21   40 1
  41   22   23 ar
  42   22   24 1
  43   24   41 1
  44   24   42 1
  45   24   43 1

#	End of record

