#	Name: ASD01901561
#	Creating user name:	WinNT
#	Creation time:	15. 06. 2019 19:54

#	Modifying user name:	WinNT
#	Modification time:	15. 06. 2019 19:54

#	Program:	/corina/corina34_cracker 3.40 0067  02.08.2006

@<TRIPOS>MOLECULE
ASD01901561
  39   42    0    0    0
SMALL
NO_CHARGES


@<TRIPOS>ATOM
   1 C1             0.8547     1.1682     1.0366 C.3     
   2 C2             0.7938    -0.3478     0.8390 C.3     
   3 C3             1.7266    -1.0307     1.8413 C.3     
   4 F4            -0.5167    -0.7925     1.0437 F       
   5 C5             1.2268    -0.6893    -0.5635 C.ar    
   6 N6             1.6773     0.2523    -1.3598 N.ar    
   7 C7             2.0727     0.0134    -2.6032 C.ar    
   8 C8             2.0369    -1.2367    -3.1407 C.ar    
   9 C9             1.5655    -2.2999    -2.3471 C.ar    
  10 C10            1.4984    -3.6135    -2.8264 C.ar    
  11 C11            1.0270    -4.6119    -1.9984 C.ar    
  12 N12            0.9572    -5.9228    -2.4687 N.pl3   
  13 C13           -0.0202    -6.7916    -1.9747 C.2     
  14 N14           -0.9874    -6.4782    -1.1543 N.2     
  15 N15           -1.7695    -7.6047    -0.8814 N.pl3   
  16 H16           -2.5456    -7.6217    -0.2998 H       
  17 C17           -1.2684    -8.6790    -1.5646 C.ar    
  18 N18           -1.6248    -9.9548    -1.6553 N.ar    
  19 C19           -0.9288   -10.7781    -2.4141 C.ar    
  20 C20            0.1775   -10.3234    -3.1216 C.ar    
  21 N21            0.5468    -9.0612    -3.0440 N.ar    
  22 C22           -0.1490    -8.2163    -2.2880 C.ar    
  23 C23            0.6183    -4.3223    -0.6904 C.ar    
  24 C24            0.6747    -3.0541    -0.2035 C.ar    
  25 C25            1.1544    -2.0152    -1.0178 C.ar    
  26 H26            1.8758     1.5147     0.8771 H       
  27 H27            0.1902     1.6546     0.3226 H       
  28 H28            0.5415     1.4152     2.0510 H       
  29 H29            1.4134    -0.7836     2.8557 H       
  30 H30            1.6832    -2.1107     1.7005 H       
  31 H31            2.7476    -0.6842     1.6817 H       
  32 H32            2.4327     0.8339    -3.2062 H       
  33 H33            2.3633    -1.4095    -4.1556 H       
  34 H34            1.8120    -3.8433    -3.8340 H       
  35 H35            1.5869    -6.2318    -3.1388 H       
  36 H36           -1.2207   -11.8154    -2.4862 H       
  37 H37            0.7384   -11.0094    -3.7390 H       
  38 H38            0.2525    -5.1185    -0.0590 H       
  39 H39            0.3555    -2.8470     0.8072 H       
@<TRIPOS>BOND
   1    1    2 1
   2    1   26 1
   3    1   27 1
   4    1   28 1
   5    2    3 1
   6    2    4 1
   7    2    5 1
   8    3   29 1
   9    3   30 1
  10    3   31 1
  11    5   25 ar
  12    5    6 ar
  13    6    7 ar
  14    7    8 ar
  15    7   32 1
  16    8    9 ar
  17    8   33 1
  18    9   25 ar
  19    9   10 ar
  20   10   11 ar
  21   10   34 1
  22   11   12 1
  23   11   23 ar
  24   12   13 1
  25   12   35 1
  26   13   22 1
  27   13   14 2
  28   14   15 1
  29   15   16 1
  30   15   17 1
  31   17   22 ar
  32   17   18 ar
  33   18   19 ar
  34   19   20 ar
  35   19   36 1
  36   20   21 ar
  37   20   37 1
  38   21   22 ar
  39   23   24 ar
  40   23   38 1
  41   24   25 ar
  42   24   39 1

#	End of record

