#	Name: ASD05430431
#	Creating user name:	WinNT
#	Creation time:	15. 06. 2019 21:00

#	Modifying user name:	WinNT
#	Modification time:	15. 06. 2019 21:00

#	Program:	/corina/corina34_cracker 3.40 0067  02.08.2006

@<TRIPOS>MOLECULE
ASD05430431
  56   60    0    0    0
SMALL
NO_CHARGES


@<TRIPOS>ATOM
   1 C1            -0.0168     1.3905     0.0097 C.ar    
   2 C2             0.0021    -0.0041     0.0020 C.ar    
   3 C3            -1.1894    -0.7183     0.0096 C.ar    
   4 C4            -2.3954    -0.0525     0.0242 C.ar    
   5 C5            -2.4222     1.3461     0.0320 C.ar    
   6 C6            -1.2227     2.0650     0.0306 C.ar    
   7 C7            -4.8635     1.3652     0.0545 C.2     
   8 C8            -3.7095     2.0591     0.0476 C.2     
   9 O9             1.1512     2.0862     0.0023 O.3     
  10 C10            1.6007    -1.7066     0.8216 C.2     
  11 N11            1.2256    -0.6862    -0.0138 N.pl3   
  12 C12            2.8464    -2.0685     0.4603 C.2     
  13 N13            3.2263    -1.2940    -0.5668 N.2     
  14 C14            2.2643    -0.4620    -0.8601 C.2     
  15 C15            3.6714    -3.1554     1.0999 C.3     
  16 C16           -7.7053     0.2163    -0.3462 C.2     
  17 N17           -7.3718     1.4446     0.0775 N.am    
  18 C18           -8.3561     2.4287     0.5907 C.3     
  19 C19           -9.6324     2.2278    -0.2352 C.3     
  20 C20          -10.0535     0.7612    -0.1069 C.3     
  21 O21           -8.9905    -0.1337    -0.4976 O.3     
  22 C22           -8.6012     2.2909     2.0712 C.ar    
  23 C23           -7.5989     1.8148     2.8958 C.ar    
  24 C24           -9.8262     2.6460     2.6045 C.ar    
  25 C25          -10.0517     2.5209     3.9622 C.ar    
  26 C26           -9.0504     2.0393     4.7883 C.ar    
  27 C27           -7.8223     1.6884     4.2537 C.ar    
  28 F28           -9.2698     1.9166     6.1157 F       
  29 C29           -7.6730     3.7579     0.2091 C.3     
  30 N30           -6.2551     3.3751     0.0785 N.2     
  31 C31           -6.1469     2.0761     0.0701 C.2     
  32 O32           -6.8311    -0.5880    -0.6007 O.2     
  33 C33            1.0571     3.5121     0.0108 C.3     
  34 H34           -1.1703    -1.7981     0.0036 H       
  35 H35           -3.3202    -0.6104     0.0293 H       
  36 H36           -1.2388     3.1449     0.0366 H       
  37 H37           -4.8443     0.2854     0.0485 H       
  38 H38           -3.7286     3.1389     0.0536 H       
  39 H39            1.0119    -2.1347     1.6193 H       
  40 H40            2.2898     0.2803    -1.6441 H       
  41 H41            3.4801    -4.1019     0.5943 H       
  42 H42            4.7291    -2.9059     1.0157 H       
  43 H43            3.4017    -3.2446     2.1522 H       
  44 H44          -10.4237     2.8730     0.1466 H       
  45 H45           -9.4357     2.4645    -1.2809 H       
  46 H46          -10.3263     0.5587     0.9288 H       
  47 H47          -10.9204     0.5830    -0.7431 H       
  48 H48           -6.6411     1.5412     2.4786 H       
  49 H49          -10.6071     3.0217     1.9599 H       
  50 H50          -11.0086     2.7991     4.3787 H       
  51 H51           -7.0407     1.3123     4.8971 H       
  52 H52           -8.0602     4.1324    -0.7385 H       
  53 H53           -7.8014     4.4981     0.9989 H       
  54 H54            0.5119     3.8455    -0.8722 H       
  55 H55            0.5289     3.8359     0.9076 H       
  56 H56            2.0585     3.9423     0.0036 H       
@<TRIPOS>BOND
   1    1    2 ar
   2    1    9 1
   3    1    6 ar
   4    2    3 ar
   5    2   11 1
   6    3    4 ar
   7    3   34 1
   8    4    5 ar
   9    4   35 1
  10    5    6 ar
  11    5    8 1
  12    6   36 1
  13    7    8 2
  14    7   31 1
  15    7   37 1
  16    8   38 1
  17    9   33 1
  18   10   11 1
  19   10   12 2
  20   10   39 1
  21   11   14 1
  22   12   13 1
  23   12   15 1
  24   13   14 2
  25   14   40 1
  26   15   41 1
  27   15   42 1
  28   15   43 1
  29   16   17 am
  30   16   21 1
  31   16   32 2
  32   17   18 1
  33   17   31 1
  34   18   19 1
  35   18   22 1
  36   18   29 1
  37   19   20 1
  38   19   44 1
  39   19   45 1
  40   20   21 1
  41   20   46 1
  42   20   47 1
  43   22   23 ar
  44   22   24 ar
  45   23   27 ar
  46   23   48 1
  47   24   25 ar
  48   24   49 1
  49   25   26 ar
  50   25   50 1
  51   26   27 ar
  52   26   28 1
  53   27   51 1
  54   29   30 1
  55   29   52 1
  56   29   53 1
  57   30   31 2
  58   33   54 1
  59   33   55 1
  60   33   56 1

#	End of record

