#	Name: ASD09800056
#	Creating user name:	WinNT
#	Creation time:	15. 06. 2019 21:24

#	Modifying user name:	WinNT
#	Modification time:	15. 06. 2019 21:24

#	Program:	/corina/corina34_cracker 3.40 0067  02.08.2006

@<TRIPOS>MOLECULE
ASD09800056
  59   64    0    0    0
SMALL
NO_CHARGES


@<TRIPOS>ATOM
   1 C1            -4.5749     1.8970     2.7342 C.2     
   2 N2            -5.6361     1.1186     2.8443 N.2     
   3 C3            -5.9279     0.2042     1.9101 C.2     
   4 C4            -5.1560     0.0376     0.8208 C.2     
   5 C5            -3.7348     1.7679     1.6097 C.2     
   6 C6            -2.5724     2.3991     1.1808 C.2     
   7 N7            -4.0356     0.8196     0.6496 N.pl3   
   8 C8            -3.0895     0.9034    -0.3028 C.2     
   9 N9            -2.2277     1.8369     0.0107 N.2     
  10 C10           -1.8526     3.4831     1.8801 C.ar    
  11 C11           -1.5910     5.8489     2.4407 C.ar    
  12 C12           -0.4636     5.5190     3.2208 C.ar    
  13 C13           -0.0525     4.2070     3.3127 C.ar    
  14 C14           -0.7368     3.1962     2.6511 C.ar    
  15 C15           -2.2940     4.8241     1.7629 C.ar    
  16 N16           -4.2931     2.8359     3.7124 N.pl3   
  17 C17           -3.0290     0.0484    -1.5424 C.3     
  18 C18           -4.1992     0.1429    -2.5235 C.3     
  19 C19           -2.8469     0.7612    -2.8839 C.3     
  20 C20           -2.3596    -1.3166    -1.3706 C.3     
  21 C21           -2.0291     7.1783     2.3231 C.ar    
  22 C22           -3.4144     5.1541     0.9873 C.ar    
  23 C23           -3.8125     6.4538     0.8953 C.ar    
  24 C24           -3.1215     7.4631     1.5618 C.ar    
  25 O25            0.2195     6.4934     3.8754 O.3     
  26 C26            1.3514     6.0860     4.6468 C.3     
  27 C27            1.9874     7.3116     5.3057 C.3     
  28 C28            3.1811     6.8820     6.1192 C.ar    
  29 C29            5.5284     6.4390     6.2823 C.ar    
  30 C30            5.3709     6.0943     7.6117 C.ar    
  31 C31            4.1175     6.1372     8.1931 C.ar    
  32 C32            3.0226     6.5313     7.4469 C.ar    
  33 C33            4.4335     6.8331     5.5361 C.ar    
  34 H34           -6.8042    -0.4147     2.0344 H       
  35 H35           -5.4142    -0.7075     0.0830 H       
  36 H36            0.8117     3.9608     3.9118 H       
  37 H37           -0.3962     2.1750     2.7383 H       
  38 H38           -4.8192     2.8605     4.5270 H       
  39 H39           -3.5696     3.4689     3.5829 H       
  40 H40           -4.4920    -0.7674    -3.0468 H       
  41 H41           -5.0129     0.8234    -2.2724 H       
  42 H42           -2.7709     1.8484    -2.8700 H       
  43 H43           -2.2500     0.2577    -3.6444 H       
  44 H44           -2.8378    -1.8554    -0.5526 H       
  45 H45           -2.4616    -1.8898    -2.2920 H       
  46 H46           -1.3024    -1.1769    -1.1447 H       
  47 H47           -1.5022     7.9705     2.8340 H       
  48 H48           -3.9592     4.3816     0.4650 H       
  49 H49           -4.6757     6.7052     0.2968 H       
  50 H50           -3.4565     8.4859     1.4729 H       
  51 H51            1.0324     5.3839     5.4171 H       
  52 H52            2.0806     5.6042     3.9955 H       
  53 H53            2.3064     8.0138     4.5354 H       
  54 H54            1.2583     7.7935     5.9570 H       
  55 H55            6.5076     6.4055     5.8280 H       
  56 H56            6.2263     5.7864     8.1946 H       
  57 H57            3.9945     5.8678     9.2317 H       
  58 H58            2.0435     6.5656     7.9013 H       
  59 H59            4.5565     7.1024     4.4975 H       
@<TRIPOS>BOND
   1    1    2 2
   2    1   16 1
   3    1    5 1
   4    2    3 1
   5    3    4 2
   6    3   34 1
   7    4    7 1
   8    4   35 1
   9    5    7 1
  10    5    6 2
  11    6    9 1
  12    6   10 1
  13    7    8 1
  14    8    9 2
  15    8   17 1
  16   10   15 ar
  17   10   14 ar
  18   11   12 ar
  19   11   15 ar
  20   11   21 ar
  21   12   13 ar
  22   12   25 1
  23   13   14 ar
  24   13   36 1
  25   14   37 1
  26   15   22 ar
  27   16   38 1
  28   16   39 1
  29   17   18 1
  30   17   19 1
  31   17   20 1
  32   18   19 1
  33   18   40 1
  34   18   41 1
  35   19   42 1
  36   19   43 1
  37   20   44 1
  38   20   45 1
  39   20   46 1
  40   21   24 ar
  41   21   47 1
  42   22   23 ar
  43   22   48 1
  44   23   24 ar
  45   23   49 1
  46   24   50 1
  47   25   26 1
  48   26   27 1
  49   26   51 1
  50   26   52 1
  51   27   28 1
  52   27   53 1
  53   27   54 1
  54   28   33 ar
  55   28   32 ar
  56   29   30 ar
  57   29   33 ar
  58   29   55 1
  59   30   31 ar
  60   30   56 1
  61   31   32 ar
  62   31   57 1
  63   32   58 1
  64   33   59 1

#	End of record

