#	Name: ASD02130001
#	Creating user name:	WinNT
#	Creation time:	15. 06. 2019 20:18

#	Modifying user name:	WinNT
#	Modification time:	15. 06. 2019 20:18

#	Program:	/corina/corina34_cracker 3.40 0067  02.08.2006

@<TRIPOS>MOLECULE
ASD02130001
  84   86    0    0    0
SMALL
NO_CHARGES


@<TRIPOS>ATOM
   1 P1            -0.1554     2.6664     0.2962 P.3     
   2 O2             0.2910     1.2604     0.1771 O.2     
   3 O3             1.1282     3.6254     0.4546 O.3     
   4 O4            -0.9764     3.0825    -1.0248 O.3     
   5 O5            -1.1034     2.8209     1.5882 O.3     
   6 C6            -0.4440     2.9542    -2.3447 C.3     
   7 C7            -1.4801     3.4370    -3.3617 C.3     
   8 C8            -0.9101     3.2996    -4.7749 C.3     
   9 C9            -1.8994     3.8474    -5.7710 C.2     
  10 N10           -1.6030     4.9587    -6.4737 N.am    
  11 C11           -2.6076     5.5569    -7.3564 C.3     
  12 C12           -2.0200     6.7984    -8.0303 C.3     
  13 C13           -3.0534     7.4137    -8.9383 C.2     
  14 N14           -2.7570     8.5250    -9.6410 N.am    
  15 C15           -3.7616     9.1231   -10.5237 C.3     
  16 C16           -3.1739    10.3647   -11.1976 C.3     
  17 S17           -4.4178    11.1053   -12.2906 S.3     
  18 O18           -4.1517     6.9089    -9.0368 O.2     
  19 O19           -2.9622     3.2884    -5.9404 O.2     
  20 C20           -2.7485     2.5903    -3.2388 C.3     
  21 C21           -1.8178     4.9041    -3.0884 C.3     
  22 O22            0.3141     4.0308    -4.8679 O.3     
  23 P23           -1.0150     2.3000     3.1090 P.3     
  24 O24           -0.4931     0.9152     3.1265 O.2     
  25 O25           -0.0277     3.2563     3.9474 O.3     
  26 O26           -2.4817     2.3291     3.7724 O.3     
  27 C27           -2.7533     1.8279     5.0828 C.3     
  28 O28           -5.0424     1.1715     4.5401 O.3     
  29 C29           -4.2391     2.0087     5.4001 C.3     
  30 C30           -4.5472     1.5152     6.8312 C.3     
  31 C31           -5.9403     0.8580     6.7098 C.3     
  32 C32           -6.3090     1.0322     5.2198 C.3     
  33 O33           -3.5753     0.5549     7.2498 O.3     
  34 P34           -2.6341     0.7646     8.5391 P.3     
  35 O35           -1.9055     2.0468     8.4146 O.2     
  36 O36           -3.5425     0.7904     9.8681 O.3     
  37 O37           -1.5773    -0.4462     8.6347 O.3     
  38 O38           -5.8714    -0.5282     7.0498 O.3     
  39 N39           -7.6655     4.3004     4.5773 N.2     
  40 C40           -6.6728     3.4612     4.6404 C.2     
  41 N41           -7.1230     2.2359     5.0332 N.pl3   
  42 C42           -8.4783     2.3366     5.2213 C.ar    
  43 N43           -9.4390     1.4974     5.5940 N.ar    
  44 C44          -10.6875     1.9046     5.6852 C.ar    
  45 N45          -11.0497     3.1457     5.4164 N.ar    
  46 C46          -10.1588     4.0557     5.0361 C.ar    
  47 C47           -8.8126     3.6689     4.9246 C.ar    
  48 N48          -10.5480     5.3539     4.7561 N.pl3   
  49 H49            0.9102     4.5638     0.5379 H       
  50 H50            0.4596     3.5574    -2.4323 H       
  51 H51           -0.2034     1.9090    -2.5394 H       
  52 H52           -0.7223     2.2477    -4.9902 H       
  53 H53           -0.7246     5.3625    -6.3949 H       
  54 H54           -2.8988     4.8336    -8.1181 H       
  55 H55           -3.4825     5.8407    -6.7715 H       
  56 H56           -1.7287     7.5217    -7.2686 H       
  57 H57           -1.1451     6.5146    -8.6152 H       
  58 H58           -1.8785     8.9287    -9.5622 H       
  59 H59           -4.0528     8.3998   -11.2854 H       
  60 H60           -4.6364     9.4070    -9.9388 H       
  61 H61           -2.8827    11.0880   -10.4359 H       
  62 H62           -2.2991    10.0809   -11.7825 H       
  63 H63           -3.7737    12.1677   -12.8060 H       
  64 H64           -3.0689     2.5648    -2.1972 H       
  65 H65           -3.5375     3.0268    -3.8510 H       
  66 H66           -2.5427     1.5759    -3.5805 H       
  67 H67           -0.9142     5.5073    -3.1760 H       
  68 H68           -2.5559     5.2480    -3.8129 H       
  69 H69           -2.2239     5.0020    -2.0816 H       
  70 H70            0.2221     4.9765    -4.6881 H       
  71 H71           -0.3085     4.1811     3.9784 H       
  72 H72           -2.4986     0.7690     5.1268 H       
  73 H73           -2.1567     2.3757     5.8122 H       
  74 H74           -4.5259     3.0542     5.2875 H       
  75 H75           -4.5801     2.3545     7.5258 H       
  76 H76           -6.6619     1.3725     7.3445 H       
  77 H77           -6.8407     0.1533     4.8552 H       
  78 H78           -4.0495    -0.0201    10.0138 H       
  79 H79           -0.9764    -0.3850     9.3899 H       
  80 H80           -6.7187    -0.9903     6.9907 H       
  81 H81           -5.6441     3.7001     4.4145 H       
  82 H82          -11.4440     1.1971     5.9910 H       
  83 H83          -11.4805     5.6087     4.8365 H       
  84 H84           -9.8883     6.0090     4.4795 H       
@<TRIPOS>BOND
   1    1    2 2
   2    1    3 1
   3    1    4 1
   4    1    5 1
   5    3   49 1
   6    4    6 1
   7    5   23 1
   8    6    7 1
   9    6   50 1
  10    6   51 1
  11    7    8 1
  12    7   20 1
  13    7   21 1
  14    8    9 1
  15    8   22 1
  16    8   52 1
  17    9   10 am
  18    9   19 2
  19   10   11 1
  20   10   53 1
  21   11   12 1
  22   11   54 1
  23   11   55 1
  24   12   13 1
  25   12   56 1
  26   12   57 1
  27   13   14 am
  28   13   18 2
  29   14   15 1
  30   14   58 1
  31   15   16 1
  32   15   59 1
  33   15   60 1
  34   16   17 1
  35   16   61 1
  36   16   62 1
  37   17   63 1
  38   20   64 1
  39   20   65 1
  40   20   66 1
  41   21   67 1
  42   21   68 1
  43   21   69 1
  44   22   70 1
  45   23   24 2
  46   23   25 1
  47   23   26 1
  48   25   71 1
  49   26   27 1
  50   27   29 1
  51   27   72 1
  52   27   73 1
  53   28   29 1
  54   28   32 1
  55   29   30 1
  56   29   74 1
  57   30   31 1
  58   30   33 1
  59   30   75 1
  60   31   32 1
  61   31   38 1
  62   31   76 1
  63   32   41 1
  64   32   77 1
  65   33   34 1
  66   34   35 2
  67   34   36 1
  68   34   37 1
  69   36   78 1
  70   37   79 1
  71   38   80 1
  72   39   40 2
  73   39   47 1
  74   40   41 1
  75   40   81 1
  76   41   42 1
  77   42   43 ar
  78   42   47 ar
  79   43   44 ar
  80   44   45 ar
  81   44   82 1
  82   45   46 ar
  83   46   47 ar
  84   46   48 1
  85   48   83 1
  86   48   84 1

#	End of record

