#	Name: ASD01914234
#	Creating user name:	WinNT
#	Creation time:	15. 06. 2019 20:03

#	Modifying user name:	WinNT
#	Modification time:	15. 06. 2019 20:03

#	Program:	/corina/corina34_cracker 3.40 0067  02.08.2006

@<TRIPOS>MOLECULE
ASD01914234
  49   52    0    0    0
SMALL
NO_CHARGES


@<TRIPOS>ATOM
   1 C1            -0.0171     1.4095     0.0098 C.2     
   2 C2             0.0021    -0.0041     0.0020 C.2     
   3 C3             1.2015    -0.6544    -0.0129 C.2     
   4 C4             2.3940     0.0877    -0.0203 C.2     
   5 C5             2.3578     1.4363    -0.0127 C.2     
   6 N6             1.1645     2.1022     0.0022 N.pl3   
   7 N7            -1.0089     2.2885     0.0293 N.2     
   8 C8            -0.5004     3.5225     0.0282 C.2     
   9 C9             0.8481     3.4330     0.0124 C.2     
  10 C10           -1.2967     4.8018     0.0465 C.3     
  11 C11           -2.2863     4.8033    -1.1204 C.3     
  12 C12           -3.0640     6.0529    -1.1026 C.1     
  13 C13           -3.6844     7.0495    -1.0884 C.1     
  14 C14           -4.4410     8.2652    -1.0710 C.ar    
  15 C15           -5.4116     8.4905    -2.0479 C.ar    
  16 C16           -6.1342     9.6699    -2.0175 C.ar    
  17 C17           -5.8639    10.5873    -1.0114 C.ar    
  18 C18           -4.8881    10.2999    -0.0749 C.ar    
  19 N19           -4.2174     9.1670    -0.1222 N.ar    
  20 C20           -4.5918    11.2938     1.0184 C.3     
  21 F21           -5.4059    11.0270     2.1244 F       
  22 O22           -1.1610    -0.7073     0.0098 O.3     
  23 C23           -1.0574    -2.1325     0.0011 C.3     
  24 C24           -2.4380    -2.7365     0.0116 C.ar    
  25 C25           -3.0831    -3.0072    -1.1807 C.ar    
  26 C26           -4.3495    -3.5612    -1.1711 C.ar    
  27 C27           -4.9707    -3.8450     0.0308 C.ar    
  28 C28           -4.3252    -3.5752     1.2231 C.ar    
  29 C29           -3.0570    -3.0252     1.2134 C.ar    
  30 H30            1.2338    -1.7339    -0.0187 H       
  31 H31            3.3450    -0.4241    -0.0318 H       
  32 H32            3.2817     1.9955    -0.0182 H       
  33 H33            1.5453     4.2577     0.0107 H       
  34 H34           -1.8434     4.8761     0.9865 H       
  35 H35           -0.6210     5.6517    -0.0491 H       
  36 H36           -1.7396     4.7290    -2.0605 H       
  37 H37           -2.9620     3.9533    -1.0249 H       
  38 H38           -5.5959     7.7550    -2.8169 H       
  39 H39           -6.8916     9.8725    -2.7603 H       
  40 H40           -6.4106    11.5173    -0.9607 H       
  41 H41           -3.5447    11.2118     1.3099 H       
  42 H42           -4.7901    12.3025     0.6561 H       
  43 H43           -0.5275    -2.4528    -0.8959 H       
  44 H44           -0.5098    -2.4624     0.8839 H       
  45 H45           -2.5978    -2.7854    -2.1197 H       
  46 H46           -4.8538    -3.7720    -2.1026 H       
  47 H47           -5.9604    -4.2772     0.0383 H       
  48 H48           -4.8107    -3.7967     2.1621 H       
  49 H49           -2.5513    -2.8179     2.1448 H       
@<TRIPOS>BOND
   1    1    2 1
   2    1    6 1
   3    1    7 2
   4    2    3 2
   5    2   22 1
   6    3    4 1
   7    3   30 1
   8    4    5 2
   9    4   31 1
  10    5    6 1
  11    5   32 1
  12    6    9 1
  13    7    8 1
  14    8    9 2
  15    8   10 1
  16    9   33 1
  17   10   11 1
  18   10   34 1
  19   10   35 1
  20   11   12 1
  21   11   36 1
  22   11   37 1
  23   12   13 3
  24   13   14 1
  25   14   15 ar
  26   14   19 ar
  27   15   16 ar
  28   15   38 1
  29   16   17 ar
  30   16   39 1
  31   17   18 ar
  32   17   40 1
  33   18   19 ar
  34   18   20 1
  35   20   21 1
  36   20   41 1
  37   20   42 1
  38   22   23 1
  39   23   24 1
  40   23   43 1
  41   23   44 1
  42   24   25 ar
  43   24   29 ar
  44   25   26 ar
  45   25   45 1
  46   26   27 ar
  47   26   46 1
  48   27   28 ar
  49   27   47 1
  50   28   29 ar
  51   28   48 1
  52   29   49 1

#	End of record

