#	Name: ASD01883339
#	Creating user name:	WinNT
#	Creation time:	15. 06. 2019 19:46

#	Modifying user name:	WinNT
#	Modification time:	15. 06. 2019 19:46

#	Program:	/corina/corina34_cracker 3.40 0067  02.08.2006

@<TRIPOS>MOLECULE
ASD01883339
  53   54    0    0    0
SMALL
NO_CHARGES


@<TRIPOS>ATOM
   1 N1             0.2707     0.2968     0.8093 N.am    
   2 C2             0.1057    -1.0192     0.5793 C.2     
   3 C3            -1.1972    -1.5489     0.4163 C.2     
   4 C4            -2.2937    -0.6791     0.4997 C.2     
   5 C5            -2.0586     0.6842     0.7416 C.2     
   6 C6            -0.7932     1.1357     0.8950 C.2     
   7 O7             1.0766    -1.7537     0.5110 O.2     
   8 C8            -1.3913    -2.9462     0.1706 C.1     
   9 N9            -1.5453    -4.0547    -0.0244 N.1     
  10 O10           -3.5545    -1.1443     0.3496 O.3     
  11 C11            1.6238     0.8330     0.9762 C.3     
  12 C12            2.1757     1.2578    -0.3862 C.3     
  13 C13            3.5889     1.8177    -0.2119 C.3     
  14 C14            4.1881     2.1264    -1.5854 C.3     
  15 C15            3.5300     3.1011     0.6190 C.3     
  16 C16           -4.2817    -0.6902    -0.7937 C.3     
  17 C17           -5.6767    -1.3186    -0.7935 C.3     
  18 N18           -6.4261    -0.8469     0.3786 N.3     
  19 C19           -6.9078     0.5263     0.1778 C.3     
  20 C20           -7.4523     1.0626     1.4766 C.ar    
  21 C21           -7.5380    -1.7542     0.6926 C.3     
  22 C22           -6.6171     1.7301     2.3526 C.ar    
  23 C23           -7.1152     2.2224     3.5449 C.ar    
  24 C24           -8.4487     2.0475     3.8618 C.ar    
  25 C25           -9.2865     1.3794     2.9847 C.ar    
  26 C26           -8.7879     0.8919     1.7887 C.ar    
  27 F27          -10.5905     1.2078     3.2935 F       
  28 H28           -2.8890     1.3715     0.8092 H       
  29 H29           -0.6251     2.1862     1.0810 H       
  30 H30            1.5932     1.6963     1.6409 H       
  31 H31            2.2681     0.0661     1.4061 H       
  32 H32            2.2064     0.3945    -1.0509 H       
  33 H33            1.5315     2.0247    -0.8161 H       
  34 H34            4.2106     1.0824     0.2989 H       
  35 H35            3.5664     2.8617    -2.0961 H       
  36 H36            5.1949     2.5253    -1.4612 H       
  37 H37            4.2300     1.2121    -2.1773 H       
  38 H38            4.5368     3.5000     0.7432 H       
  39 H39            2.9083     3.8364     0.1083 H       
  40 H40            3.1031     2.8812     1.5975 H       
  41 H41           -4.3723     0.3955    -0.7589 H       
  42 H42           -3.7520    -0.9817    -1.7006 H       
  43 H43           -6.2050    -1.0309    -1.7024 H       
  44 H44           -5.5861    -2.4042    -0.7541 H       
  45 H45           -6.0832     1.1551    -0.1578 H       
  46 H46           -7.6960     0.5284    -0.5751 H       
  47 H47           -7.1486    -2.7550     0.8791 H       
  48 H48           -8.0596    -1.3960     1.5802 H       
  49 H49           -8.2307    -1.7846    -0.1484 H       
  50 H50           -5.5746     1.8669     2.1059 H       
  51 H51           -6.4616     2.7434     4.2288 H       
  52 H52           -8.8374     2.4315     4.7934 H       
  53 H53           -9.4404     0.3707     1.1038 H       
@<TRIPOS>BOND
   1    1    2 am
   2    1   11 1
   3    1    6 1
   4    2    3 1
   5    2    7 2
   6    3    4 2
   7    3    8 1
   8    4    5 1
   9    4   10 1
  10    5    6 2
  11    5   28 1
  12    6   29 1
  13    8    9 3
  14   10   16 1
  15   11   12 1
  16   11   30 1
  17   11   31 1
  18   12   13 1
  19   12   32 1
  20   12   33 1
  21   13   14 1
  22   13   15 1
  23   13   34 1
  24   14   35 1
  25   14   36 1
  26   14   37 1
  27   15   38 1
  28   15   39 1
  29   15   40 1
  30   16   17 1
  31   16   41 1
  32   16   42 1
  33   17   18 1
  34   17   43 1
  35   17   44 1
  36   18   19 1
  37   18   21 1
  38   19   20 1
  39   19   45 1
  40   19   46 1
  41   20   22 ar
  42   20   26 ar
  43   21   47 1
  44   21   48 1
  45   21   49 1
  46   22   23 ar
  47   22   50 1
  48   23   24 ar
  49   23   51 1
  50   24   25 ar
  51   24   52 1
  52   25   26 ar
  53   25   27 1
  54   26   53 1

#	End of record

