#	Name: ASD09116182
#	Creating user name:	WinNT
#	Creation time:	15. 06. 2019 21:21

#	Modifying user name:	WinNT
#	Modification time:	15. 06. 2019 21:21

#	Program:	/corina/corina34_cracker 3.40 0067  02.08.2006

@<TRIPOS>MOLECULE
ASD09116182
  55   60    0    0    0
SMALL
NO_CHARGES


@<TRIPOS>ATOM
   1 N1            -0.5879     3.8320    -0.5516 N.2     
   2 C2            -1.1934     4.8445    -1.4346 C.3     
   3 C3             0.7051     3.9613    -0.6747 C.2     
   4 N4             1.0534     4.9397    -1.5350 N.2     
   5 C5             0.0088     5.5350    -2.0489 C.2     
   6 N6             1.6189     3.1796     0.0037 N.pl3   
   7 C7             2.9868     3.4548    -0.0982 C.ar    
   8 C8             3.4330     4.7581    -0.2988 C.ar    
   9 C9             3.9181     2.4285    -0.0033 C.ar    
  10 N10            5.2083     2.6812    -0.0920 N.ar    
  11 C11            5.6545     3.9168    -0.2753 C.ar    
  12 C12            4.8041     4.9749    -0.3984 C.ar    
  13 N13            0.0019     6.5575    -2.9458 N.pl3   
  14 C14           -2.0313     4.1872    -2.5009 C.ar    
  15 C15           -3.2857     4.6989    -2.8303 C.ar    
  16 N16           -1.5857     3.1208    -3.1411 N.ar    
  17 C17           -2.3131     2.5378    -4.0773 C.ar    
  18 N18           -3.4992     2.9747    -4.4207 N.ar    
  19 C19           -4.0369     4.0608    -3.8275 C.ar    
  20 C20           -5.2757     4.6839    -4.0455 C.2     
  21 C21           -5.5251     5.7473    -3.2985 C.2     
  22 S22           -4.1855     6.0762    -2.2124 S.3     
  23 C23           -6.2598     4.1741    -5.0667 C.3     
  24 C24            7.1678     4.1162    -0.3454 C.3     
  25 C25            7.5014     4.6274    -1.7518 C.3     
  26 C26            7.2645     6.1146    -1.8789 C.3     
  27 N27            5.8877     6.4914    -1.9924 N.3     
  28 C28            5.2999     6.3688    -0.6627 C.3     
  29 C29            7.6957     6.7794    -0.5737 C.3     
  30 C30            6.4419     6.7425     0.3013 C.3     
  31 C31            5.1413     5.8073    -3.0358 C.3     
  32 H32           -1.7916     5.5497    -0.8575 H       
  33 H33            1.3125     2.4396     0.5509 H       
  34 H34            2.7407     5.5835    -0.3758 H       
  35 H35            3.5797     1.4137     0.1449 H       
  36 H36            0.8394     6.9223    -3.2718 H       
  37 H37           -0.8406     6.9220    -3.2593 H       
  38 H38           -1.9146     1.6682    -4.5786 H       
  39 H39           -6.4312     6.3328    -3.3489 H       
  40 H40           -6.9257     3.4488    -4.5992 H       
  41 H41           -6.8453     5.0076    -5.4547 H       
  42 H42           -5.7201     3.6972    -5.8849 H       
  43 H43            7.5156     4.7878     0.4197 H       
  44 H44            7.6514     3.1399    -0.2081 H       
  45 H45            8.5655     4.4339    -1.9359 H       
  46 H46            6.9288     4.0709    -2.4830 H       
  47 H47            7.8489     6.5201    -2.7176 H       
  48 H48            4.4757     7.0820    -0.5512 H       
  49 H49            8.5168     6.2329    -0.1116 H       
  50 H50            7.9985     7.8144    -0.7610 H       
  51 H51            6.2589     7.7354     0.7273 H       
  52 H52            6.5331     6.0176     1.1043 H       
  53 H53            5.1541     4.7338    -2.8474 H       
  54 H54            4.1112     6.1634    -3.0388 H       
  55 H55            5.5992     6.0117    -4.0036 H       
@<TRIPOS>BOND
   1    1    2 1
   2    1    3 2
   3    2   14 1
   4    2    5 1
   5    2   32 1
   6    3    4 1
   7    3    6 1
   8    4    5 2
   9    5   13 1
  10    6    7 1
  11    6   33 1
  12    7    8 ar
  13    7    9 ar
  14    8   12 ar
  15    8   34 1
  16    9   10 ar
  17    9   35 1
  18   10   11 ar
  19   11   12 ar
  20   11   24 1
  21   12   28 1
  22   13   36 1
  23   13   37 1
  24   14   15 ar
  25   14   16 ar
  26   15   19 ar
  27   15   22 1
  28   16   17 ar
  29   17   18 ar
  30   17   38 1
  31   18   19 ar
  32   19   20 1
  33   20   21 2
  34   20   23 1
  35   21   22 1
  36   21   39 1
  37   23   40 1
  38   23   41 1
  39   23   42 1
  40   24   25 1
  41   24   43 1
  42   24   44 1
  43   25   26 1
  44   25   45 1
  45   25   46 1
  46   26   27 1
  47   26   29 1
  48   26   47 1
  49   27   28 1
  50   27   31 1
  51   28   30 1
  52   28   48 1
  53   29   30 1
  54   29   49 1
  55   29   50 1
  56   30   51 1
  57   30   52 1
  58   31   53 1
  59   31   54 1
  60   31   55 1

#	End of record

