#	Name: ASD01917834
#	Creating user name:	WinNT
#	Creation time:	15. 06. 2019 20:10

#	Modifying user name:	WinNT
#	Modification time:	15. 06. 2019 20:10

#	Program:	/corina/corina34_cracker 3.40 0067  02.08.2006

@<TRIPOS>MOLECULE
ASD01917834
  45   48    0    0    0
SMALL
NO_CHARGES


@<TRIPOS>ATOM
   1 C1            -0.0057     1.3043    -0.0367 C.2     
   2 C2            -0.0074    -0.0419    -0.0279 C.2     
   3 C3            -1.2842    -0.8679     0.0020 C.3     
   4 C4            -2.4380     0.0102     0.4919 C.3     
   5 N5            -2.4045     1.2937    -0.2254 N.am    
   6 C6            -1.2425     2.1727    -0.0066 C.3     
   7 C7            -3.4039     1.6536    -1.0549 C.2     
   8 O8            -4.2993     0.8694    -1.3044 O.2     
   9 S9             1.6599     1.8650    -0.0809 S.3     
  10 C10            2.2121     0.2475    -0.0791 C.2     
  11 N11            1.2123    -0.5617    -0.0494 N.2     
  12 C12            3.6598    -0.1702    -0.1085 C.3     
  13 O13            4.0867    -0.3137    -1.4647 O.3     
  14 C14            5.3769    -0.6887    -1.6690 C.ar    
  15 C15            5.8583    -0.8469    -2.9604 C.ar    
  16 C16            7.1701    -1.2282    -3.1654 C.ar    
  17 C17            8.0032    -1.4520    -2.0848 C.ar    
  18 C18            7.5257    -1.2954    -0.7967 C.ar    
  19 C19            6.2163    -0.9083    -0.5865 C.ar    
  20 C20           -3.4117     2.9980    -1.6598 C.2     
  21 N21           -2.5426     4.0100    -1.3918 N.2     
  22 C22           -2.8690     5.0364    -2.1186 C.2     
  23 O23           -3.9385     4.7270    -2.8652 O.3     
  24 C24           -4.2858     3.4584    -2.5958 C.2     
  25 C25           -5.4285     2.6916    -3.2099 C.3     
  26 C26           -2.1580     6.3652    -2.1213 C.3     
  27 H27           -1.5050    -1.2337    -1.0008 H       
  28 H28           -1.1560    -1.7124     0.6790 H       
  29 H29           -3.3859    -0.4915     0.2971 H       
  30 H30           -2.3318     0.1879     1.5620 H       
  31 H31           -1.3277     2.6650     0.9621 H       
  32 H32           -1.1885     2.9193    -0.7989 H       
  33 H33            4.2669     0.5885     0.3852 H       
  34 H34            3.7740    -1.1216     0.4110 H       
  35 H35            5.2079    -0.6725    -3.8048 H       
  36 H36            7.5453    -1.3518    -4.1706 H       
  37 H37            9.0285    -1.7500    -2.2472 H       
  38 H38            8.1781    -1.4715     0.0457 H       
  39 H39            5.8438    -0.7861     0.4198 H       
  40 H40           -6.3279     2.8388    -2.6119 H       
  41 H41           -5.6037     3.0508    -4.2240 H       
  42 H42           -5.1806     1.6305    -3.2380 H       
  43 H43           -1.3667     6.3524    -2.8708 H       
  44 H44           -2.8688     7.1572    -2.3570 H       
  45 H45           -1.7242     6.5471    -1.1380 H       
@<TRIPOS>BOND
   1    1    2 2
   2    1    9 1
   3    1    6 1
   4    2    3 1
   5    2   11 1
   6    3    4 1
   7    3   27 1
   8    3   28 1
   9    4    5 1
  10    4   29 1
  11    4   30 1
  12    5    6 1
  13    5    7 am
  14    6   31 1
  15    6   32 1
  16    7    8 2
  17    7   20 1
  18    9   10 1
  19   10   11 2
  20   10   12 1
  21   12   13 1
  22   12   33 1
  23   12   34 1
  24   13   14 1
  25   14   15 ar
  26   14   19 ar
  27   15   16 ar
  28   15   35 1
  29   16   17 ar
  30   16   36 1
  31   17   18 ar
  32   17   37 1
  33   18   19 ar
  34   18   38 1
  35   19   39 1
  36   20   21 1
  37   20   24 2
  38   21   22 2
  39   22   23 1
  40   22   26 1
  41   23   24 1
  42   24   25 1
  43   25   40 1
  44   25   41 1
  45   25   42 1
  46   26   43 1
  47   26   44 1
  48   26   45 1

#	End of record

