#	Name: ASD02500786
#	Creating user name:	WinNT
#	Creation time:	15. 06. 2019 20:23

#	Modifying user name:	WinNT
#	Modification time:	15. 06. 2019 20:23

#	Program:	/corina/corina34_cracker 3.40 0067  02.08.2006

@<TRIPOS>MOLECULE
ASD02500786
  47   50    0    0    0
SMALL
NO_CHARGES


@<TRIPOS>ATOM
   1 N1            -0.0160     1.3296     0.0094 N.am    
   2 C2             0.0021    -0.0041     0.0020 C.2     
   3 C3             1.2717    -0.8072     0.0806 C.3     
   4 N4             2.4162     0.0882    -0.1449 N.am    
   5 C5             2.3873     1.4017     0.5204 C.3     
   6 C6             1.1716     2.1727     0.0025 C.3     
   7 O7            -1.0537    -0.5965    -0.0710 O.2     
   8 S8            -1.4924     2.0795     0.0202 S.o2    
   9 O9            -1.2867     3.3784    -0.5181 O.2     
  10 O10           -2.4187     1.1499    -0.5250 O.2     
  11 O11           -3.0387     2.8209     5.6587 O.3     
  12 C12           -2.6729     2.6614     4.3575 C.ar    
  13 C13           -1.9448     3.6447     3.6975 C.ar    
  14 O14           -1.5765     4.7873     4.3389 O.3     
  15 C15           -2.2730     5.0976     5.5508 C.3     
  16 C16           -2.3412     3.8242     6.4049 C.3     
  17 C17           -1.5863     3.4634     2.3704 C.ar    
  18 C18           -1.9497     2.3065     1.7066 C.ar    
  19 C19           -2.6715     1.3279     2.3635 C.ar    
  20 C20           -3.0336     1.5030     3.6861 C.ar    
  21 S21            3.6861    -0.3624    -1.1075 S.o2    
  22 O22            4.8011     0.4132    -0.6898 O.2     
  23 O23            3.6910    -1.7833    -1.1262 O.2     
  24 C24            3.3063     0.1554    -2.7483 C.ar    
  25 C25            3.6893     1.4122    -3.1840 C.ar    
  26 C26            3.3902     1.8181    -4.4737 C.ar    
  27 C27            2.7097     0.9689    -5.3257 C.ar    
  28 C28            2.3268    -0.2861    -4.8917 C.ar    
  29 C29            2.6298    -0.6963    -3.6043 C.ar    
  30 F30            2.2607    -1.9255    -3.1822 F       
  31 F31            4.3542     2.2426    -2.3513 F       
  32 H32            1.3543    -1.2639     1.0669 H       
  33 H33            1.2600    -1.5843    -0.6836 H       
  34 H34            2.3048     1.2660     1.5988 H       
  35 H35            3.2987     1.9522     0.2871 H       
  36 H36            1.3671     2.5089    -1.0157 H       
  37 H37            0.9993     3.0404     0.6392 H       
  38 H38           -1.7370     5.8761     6.0938 H       
  39 H39           -3.2817     5.4389     5.3181 H       
  40 H40           -2.8762     4.0314     7.3317 H       
  41 H41           -1.3324     3.4790     6.6314 H       
  42 H42           -1.0226     4.2268     1.8548 H       
  43 H43           -2.9534     0.4248     1.8425 H       
  44 H44           -3.5976     0.7367     4.1970 H       
  45 H45            3.6886     2.7987    -4.8138 H       
  46 H46            2.4765     1.2865    -6.3313 H       
  47 H47            1.7947    -0.9487    -5.5582 H       
@<TRIPOS>BOND
   1    1    2 am
   2    1    6 1
   3    1    8 am
   4    2    3 1
   5    2    7 2
   6    3    4 1
   7    3   32 1
   8    3   33 1
   9    4    5 1
  10    4   21 am
  11    5    6 1
  12    5   34 1
  13    5   35 1
  14    6   36 1
  15    6   37 1
  16    8    9 2
  17    8   10 2
  18    8   18 1
  19   11   12 1
  20   11   16 1
  21   12   13 ar
  22   12   20 ar
  23   13   14 1
  24   13   17 ar
  25   14   15 1
  26   15   16 1
  27   15   38 1
  28   15   39 1
  29   16   40 1
  30   16   41 1
  31   17   18 ar
  32   17   42 1
  33   18   19 ar
  34   19   20 ar
  35   19   43 1
  36   20   44 1
  37   21   22 2
  38   21   23 2
  39   21   24 1
  40   24   25 ar
  41   24   29 ar
  42   25   26 ar
  43   25   31 1
  44   26   27 ar
  45   26   45 1
  46   27   28 ar
  47   27   46 1
  48   28   29 ar
  49   28   47 1
  50   29   30 1

#	End of record

