#	Name: ASD04230094
#	Creating user name:	WinNT
#	Creation time:	15. 06. 2019 20:48

#	Modifying user name:	WinNT
#	Modification time:	15. 06. 2019 20:48

#	Program:	/corina/corina34_cracker 3.40 0067  02.08.2006

@<TRIPOS>MOLECULE
ASD04230094
  50   54    0    0    0
SMALL
NO_CHARGES


@<TRIPOS>ATOM
   1 C1             1.5359     4.6862     1.7201 C.ar    
   2 C2             2.5439     5.3840     2.3698 C.ar    
   3 C3             3.8005     4.8589     2.4683 C.ar    
   4 C4             4.0825     3.6080     1.9004 C.ar    
   5 C5             3.0564     2.8818     1.2693 C.ar    
   6 C6             1.7832     3.4396     1.1729 C.ar    
   7 C7             5.3934     3.0678     1.9620 C.2     
   8 C8             5.6628     1.9284     1.2156 C.2     
   9 C9             4.5671     1.3877     0.3905 C.2     
  10 O10            3.2979     1.6422     0.7794 O.3     
  11 C11            6.9879     1.2871     1.2463 C.2     
  12 N12            7.2188     0.1818     0.5105 N.am    
  13 O13            7.8740     1.7548     1.9358 O.2     
  14 C14            8.5059    -0.3623     0.4510 C.ar    
  15 C15            8.6754    -1.7390     0.3688 C.ar    
  16 C16            9.9457    -2.2805     0.3098 C.ar    
  17 C17           11.0533    -1.4570     0.3322 C.ar    
  18 C18           10.8930    -0.0744     0.4150 C.ar    
  19 C19            9.6135     0.4724     0.4682 C.ar    
  20 C20           12.0820     0.8119     0.4402 C.ar    
  21 O21            4.7981     0.7334    -0.6091 O.2     
  22 N22           11.9147     2.1230     0.6206 N.ar    
  23 C23           12.9175     2.9661     0.6541 C.ar    
  24 C24           14.2349     2.5043     0.4969 C.ar    
  25 C25           14.4548     1.1148     0.3025 C.ar    
  26 C26           13.3404     0.2601     0.2816 C.ar    
  27 C27           15.3347     3.3759     0.5262 C.ar    
  28 C28           16.5920     2.8768     0.3683 C.ar    
  29 C29           16.8068     1.5130     0.1777 C.ar    
  30 C30           15.7645     0.6368     0.1434 C.ar    
  31 O31            0.7869     2.7609     0.5439 O.3     
  32 C32           -0.4924     3.3949     0.4835 C.3     
  33 F33           -0.3781     4.6116    -0.1976 F       
  34 F34           -1.3929     2.5648    -0.1925 F       
  35 F35           -0.9584     3.6292     1.7817 F       
  36 H36            0.5488     5.1177     1.6448 H       
  37 H37            2.3328     6.3513     2.8013 H       
  38 H38            4.5764     5.4065     2.9826 H       
  39 H39            6.1576     3.5287     2.5702 H       
  40 H40            6.4924    -0.2364     0.0223 H       
  41 H41            7.8121    -2.3878     0.3513 H       
  42 H42           10.0722    -3.3512     0.2463 H       
  43 H43           12.0443    -1.8837     0.2859 H       
  44 H44            9.4840     1.5427     0.5324 H       
  45 H45           12.7304     4.0194     0.8026 H       
  46 H46           13.4626    -0.8031     0.1365 H       
  47 H47           15.1849     4.4354     0.6727 H       
  48 H48           17.4369     3.5492     0.3909 H       
  49 H49           17.8148     1.1453     0.0553 H       
  50 H50           15.9446    -0.4177    -0.0049 H       
@<TRIPOS>BOND
   1    1    2 ar
   2    1    6 ar
   3    1   36 1
   4    2    3 ar
   5    2   37 1
   6    3    4 ar
   7    3   38 1
   8    4    5 ar
   9    4    7 1
  10    5    6 ar
  11    5   10 1
  12    6   31 1
  13    7    8 2
  14    7   39 1
  15    8    9 1
  16    8   11 1
  17    9   10 1
  18    9   21 2
  19   11   12 am
  20   11   13 2
  21   12   14 1
  22   12   40 1
  23   14   15 ar
  24   14   19 ar
  25   15   16 ar
  26   15   41 1
  27   16   17 ar
  28   16   42 1
  29   17   18 ar
  30   17   43 1
  31   18   19 ar
  32   18   20 1
  33   19   44 1
  34   20   22 ar
  35   20   26 ar
  36   22   23 ar
  37   23   24 ar
  38   23   45 1
  39   24   25 ar
  40   24   27 ar
  41   25   26 ar
  42   25   30 ar
  43   26   46 1
  44   27   28 ar
  45   27   47 1
  46   28   29 ar
  47   28   48 1
  48   29   30 ar
  49   29   49 1
  50   30   50 1
  51   31   32 1
  52   32   33 1
  53   32   34 1
  54   32   35 1

#	End of record

