#	Name: ASD03092655
#	Creating user name:	WinNT
#	Creation time:	15. 06. 2019 20:32

#	Modifying user name:	WinNT
#	Modification time:	15. 06. 2019 20:32

#	Program:	/corina/corina34_cracker 3.40 0067  02.08.2006

@<TRIPOS>MOLECULE
ASD03092655
  50   53    0    0    0
SMALL
NO_CHARGES


@<TRIPOS>ATOM
   1 C1            -0.4009     1.5745     0.2872 C.ar    
   2 C2            -0.3122     0.1711     0.1872 C.ar    
   3 C3             0.9641    -0.4334     0.1644 C.ar    
   4 C4             2.0793     0.3988     0.2429 C.ar    
   5 C5             1.8987     1.7699     0.3391 C.ar    
   6 N6             0.6994     2.3087     0.3584 N.ar    
   7 N7            -2.4586     0.6789     0.1975 N.2     
   8 N8            -1.7407     1.8770     0.2926 N.pl3   
   9 C9            -1.6320    -0.3260     0.1300 C.2     
  10 C10            1.1122    -1.9006     0.0612 C.2     
  11 O11            0.3080    -2.6324     0.6050 O.2     
  12 N12            2.1387    -2.4270    -0.6357 N.am    
  13 C13            1.8874    -4.5930     0.4128 C.ar    
  14 C14            2.3484    -3.8117    -0.6352 C.ar    
  15 C15            3.0257    -4.4276    -1.6921 C.ar    
  16 C16            3.2074    -5.8056    -1.6438 C.ar    
  17 C17            2.7170    -6.5116    -0.5633 C.ar    
  18 N18            2.0823    -5.8979     0.4172 N.ar    
  19 C19            2.9096    -8.0050    -0.5029 C.3     
  20 O20            3.4935    -3.6993    -2.7387 O.3     
  21 C21            4.1733    -4.4130    -3.7734 C.3     
  22 C22           -2.2928     3.1612     0.3784 C.ar    
  23 C23           -3.4634     3.4624    -0.3054 C.ar    
  24 C24           -4.0053     4.7298    -0.2188 C.ar    
  25 C25           -3.3835     5.6984     0.5478 C.ar    
  26 C26           -2.2178     5.4016     1.2299 C.ar    
  27 C27           -1.6739     4.1344     1.1520 C.ar    
  28 C28            3.1077     2.6657     0.4237 C.3     
  29 C29           -2.0204    -1.7778     0.0189 C.3     
  30 H30            3.0745    -0.0205     0.2293 H       
  31 H31            2.7323    -1.8467    -1.1375 H       
  32 H32            1.3668    -4.1280     1.2369 H       
  33 H33            3.7253    -6.3171    -2.4417 H       
  34 H34            3.8476    -8.2302     0.0044 H       
  35 H35            2.0825    -8.4561     0.0454 H       
  36 H36            2.9378    -8.4089    -1.5150 H       
  37 H37            4.4942    -3.7144    -4.5461 H       
  38 H38            5.0443    -4.9173    -3.3550 H       
  39 H39            3.4998    -5.1515    -4.2082 H       
  40 H40           -3.9492     2.7066    -0.9045 H       
  41 H41           -4.9154     4.9648    -0.7506 H       
  42 H42           -3.8091     6.6888     0.6136 H       
  43 H43           -1.7344     6.1602     1.8275 H       
  44 H44           -0.7661     3.9018     1.6888 H       
  45 H45            3.4160     2.9558    -0.5808 H       
  46 H46            2.8596     3.5574     0.9993 H       
  47 H47            3.9219     2.1318     0.9137 H       
  48 H48           -2.0364    -2.2267     1.0120 H       
  49 H49           -3.0101    -1.8557    -0.4311 H       
  50 H50           -1.2956    -2.3011    -0.6048 H       
@<TRIPOS>BOND
   1    1    2 ar
   2    1    6 ar
   3    1    8 1
   4    2    3 ar
   5    2    9 1
   6    3    4 ar
   7    3   10 1
   8    4    5 ar
   9    4   30 1
  10    5    6 ar
  11    5   28 1
  12    7    8 1
  13    7    9 2
  14    8   22 1
  15    9   29 1
  16   10   11 2
  17   10   12 am
  18   12   14 1
  19   12   31 1
  20   13   14 ar
  21   13   18 ar
  22   13   32 1
  23   14   15 ar
  24   15   16 ar
  25   15   20 1
  26   16   17 ar
  27   16   33 1
  28   17   18 ar
  29   17   19 1
  30   19   34 1
  31   19   35 1
  32   19   36 1
  33   20   21 1
  34   21   37 1
  35   21   38 1
  36   21   39 1
  37   22   23 ar
  38   22   27 ar
  39   23   24 ar
  40   23   40 1
  41   24   25 ar
  42   24   41 1
  43   25   26 ar
  44   25   42 1
  45   26   27 ar
  46   26   43 1
  47   27   44 1
  48   28   45 1
  49   28   46 1
  50   28   47 1
  51   29   48 1
  52   29   49 1
  53   29   50 1

#	End of record

