#	Name: ASD03910072
#	Creating user name:	WinNT
#	Creation time:	15. 06. 2019 20:47

#	Modifying user name:	WinNT
#	Modification time:	15. 06. 2019 20:47

#	Program:	/corina/corina34_cracker 3.40 0067  02.08.2006

@<TRIPOS>MOLECULE
ASD03910072
  73   75    0    0    0
SMALL
NO_CHARGES


@<TRIPOS>ATOM
   1 C1             0.5375    16.2476    -5.2138 C.ar    
   2 C2             0.9776    16.4164    -6.5138 C.ar    
   3 C3             1.5729    15.3657    -7.1873 C.ar    
   4 C4             1.7294    14.1436    -6.5632 C.ar    
   5 C5             1.2885    13.9708    -5.2577 C.ar    
   6 C6             0.6965    15.0299    -4.5820 C.ar    
   7 N7             1.4455    12.7340    -4.6226 N.am    
   8 C8             0.5204    12.3072    -3.7402 C.2     
   9 O9            -0.4036    13.0304    -3.4330 O.2     
  10 C10           -0.5161    10.7024    -2.1889 C.ar    
  11 C11           -1.6937    10.1481    -2.6554 C.ar    
  12 C12           -2.7475     9.9317    -1.7887 C.ar    
  13 C13           -2.6234    10.2712    -0.4493 C.ar    
  14 C14           -1.4407    10.8273     0.0163 C.ar    
  15 C15           -0.3899    11.0417    -0.8545 C.ar    
  16 O16           -3.6587    10.0597     0.4053 O.3     
  17 C17           -3.4397    10.3778     1.7811 C.3     
  18 C18           -2.2762     9.5828     2.3154 C.2     
  19 C19           -0.1109    17.3955    -4.4836 C.3     
  20 C20            2.0511    15.5540    -8.6040 C.3     
  21 O21           -1.5153    10.0846     3.1155 O.2     
  22 N22           -2.0811     8.3143     1.9040 N.am    
  23 C23            0.6340    10.9316    -3.1354 C.3     
  24 C24           -0.8947     7.5759     2.3437 C.3     
  25 C25           -1.1637     6.9463     3.6862 C.2     
  26 O26           -2.2365     7.0987     4.2208 O.2     
  27 O27           -0.2116     6.2162     4.2879 O.3     
  28 C28           -0.5673     6.4830     1.3242 C.3     
  29 C29           -3.1649    11.8838     1.9367 C.3     
  30 C30           -4.2777    12.4430     2.8471 C.3     
  31 C31           -4.7645    11.2123     3.6517 C.3     
  32 C32           -4.7094    10.0732     2.6025 C.3     
  33 C33           -0.1728     7.1280    -0.0059 C.3     
  34 C34            0.1545     6.0350    -1.0254 C.3     
  35 C35            0.5490     6.6800    -2.3555 C.3     
  36 N36            0.8633     5.6307    -3.3344 N.3     
  37 H37            0.8557    17.3709    -7.0043 H       
  38 H38            2.1939    13.3231    -7.0900 H       
  39 H39            0.3529    14.8988    -3.5666 H       
  40 H40            2.2202    12.1836    -4.8173 H       
  41 H41           -1.7900     9.8843    -3.6982 H       
  42 H42           -3.6673     9.4990    -2.1535 H       
  43 H43           -1.3417    11.0928     1.0584 H       
  44 H44            0.5310    11.4746    -0.4926 H       
  45 H45           -1.1867    17.3754    -4.6574 H       
  46 H46            0.0864    17.3044    -3.4155 H       
  47 H47            0.2989    18.3368    -4.8498 H       
  48 H48            3.0860    15.8963    -8.5957 H       
  49 H49            1.9861    14.6063    -9.1384 H       
  50 H50            1.4271    16.2958    -9.1025 H       
  51 H51           -2.7263     7.8902     1.3169 H       
  52 H52            0.6075    10.1832    -3.9274 H       
  53 H53            1.5746    10.8509    -2.5905 H       
  54 H54           -0.0505     8.2605     2.4261 H       
  55 H55           -0.4307     5.8323     5.1480 H       
  56 H56            0.2601     5.8774     1.6939 H       
  57 H57           -1.4426     5.8506     1.1759 H       
  58 H58           -2.1904    12.0397     2.3995 H       
  59 H59           -3.1987    12.3721     0.9628 H       
  60 H60           -3.8762    13.2027     3.5177 H       
  61 H61           -5.0907    12.8529     2.2479 H       
  62 H62           -4.0914    11.0035     4.4833 H       
  63 H63           -5.7841    11.3616     4.0069 H       
  64 H64           -5.5921    10.1001     1.9636 H       
  65 H65           -4.6233     9.1046     3.0951 H       
  66 H66           -1.0002     7.7336    -0.3756 H       
  67 H67            0.7025     7.7604     0.1424 H       
  68 H68            0.9819     5.4294    -0.6557 H       
  69 H69           -0.7208     5.4026    -1.1737 H       
  70 H70           -0.2784     7.2856    -2.7252 H       
  71 H71            1.4243     7.3124    -2.2072 H       
  72 H72            0.0891     4.9925    -3.4415 H       
  73 H73            1.1270     6.0314    -4.2220 H       
@<TRIPOS>BOND
   1    1    2 ar
   2    1   19 1
   3    1    6 ar
   4    2    3 ar
   5    2   37 1
   6    3    4 ar
   7    3   20 1
   8    4    5 ar
   9    4   38 1
  10    5    6 ar
  11    5    7 1
  12    6   39 1
  13    7    8 am
  14    7   40 1
  15    8    9 2
  16    8   23 1
  17   10   11 ar
  18   10   15 ar
  19   10   23 1
  20   11   12 ar
  21   11   41 1
  22   12   13 ar
  23   12   42 1
  24   13   14 ar
  25   13   16 1
  26   14   15 ar
  27   14   43 1
  28   15   44 1
  29   16   17 1
  30   17   18 1
  31   17   29 1
  32   17   32 1
  33   18   21 2
  34   18   22 am
  35   19   45 1
  36   19   46 1
  37   19   47 1
  38   20   48 1
  39   20   49 1
  40   20   50 1
  41   22   24 1
  42   22   51 1
  43   23   52 1
  44   23   53 1
  45   24   25 1
  46   24   28 1
  47   24   54 1
  48   25   26 2
  49   25   27 1
  50   27   55 1
  51   28   33 1
  52   28   56 1
  53   28   57 1
  54   29   30 1
  55   29   58 1
  56   29   59 1
  57   30   31 1
  58   30   60 1
  59   30   61 1
  60   31   32 1
  61   31   62 1
  62   31   63 1
  63   32   64 1
  64   32   65 1
  65   33   34 1
  66   33   66 1
  67   33   67 1
  68   34   35 1
  69   34   68 1
  70   34   69 1
  71   35   36 1
  72   35   70 1
  73   35   71 1
  74   36   72 1
  75   36   73 1

#	End of record

