#	Name: ASD01870388
#	Creating user name:	WinNT
#	Creation time:	15. 06. 2019 19:39

#	Modifying user name:	WinNT
#	Modification time:	15. 06. 2019 19:39

#	Program:	/corina/corina34_cracker 3.40 0067  02.08.2006

@<TRIPOS>MOLECULE
ASD01870388
  26   28    0    0    0
SMALL
NO_CHARGES


@<TRIPOS>ATOM
   1 C1            -0.0162     1.3436     0.0094 C.2     
   2 N2             0.0021    -0.0041     0.0020 N.am    
   3 O3             1.0285     1.9658     0.0028 O.2     
   4 C4             1.2109    -0.6803    -0.0132 C.2     
   5 O5             1.3623    -2.0137    -0.0218 O.3     
   6 C6             2.6865    -2.2774    -0.0358 C.2     
   7 C7             3.3272    -1.0983    -0.0356 C.2     
   8 N8             2.3972    -0.1251    -0.0272 N.2     
   9 C9            -1.3030     2.0633     0.0194 C.ar    
  10 C10           -1.3307     3.4805     0.0273 C.ar    
  11 C11           -2.5796     4.1478     0.0369 C.ar    
  12 C12           -3.7677     3.3943     0.0385 C.ar    
  13 C13           -3.7152     2.0330     0.0308 C.ar    
  14 C14           -2.4989     1.3607     0.0156 C.ar    
  15 N15           -0.2011     4.1917     0.0252 N.ar    
  16 C16           -0.2577     5.5050     0.0323 C.ar    
  17 C17           -1.4887     6.1643     0.0423 C.ar    
  18 N18           -2.6127     5.4850     0.0440 N.ar    
  19 H19           -0.8313    -0.5005     0.0073 H       
  20 H20            3.1448    -3.2553    -0.0451 H       
  21 H21            4.3977    -0.9556    -0.0445 H       
  22 H22           -4.7239     3.8963     0.0462 H       
  23 H23           -4.6347     1.4665     0.0325 H       
  24 H24           -2.4848     0.2809     0.0051 H       
  25 H25            0.6567     6.0797     0.0306 H       
  26 H26           -1.5167     7.2439     0.0484 H       
@<TRIPOS>BOND
   1    1    2 am
   2    1    3 2
   3    1    9 1
   4    2    4 1
   5    2   19 1
   6    4    5 1
   7    4    8 2
   8    5    6 1
   9    6    7 2
  10    6   20 1
  11    7    8 1
  12    7   21 1
  13    9   10 ar
  14    9   14 ar
  15   10   15 ar
  16   10   11 ar
  17   11   12 ar
  18   11   18 ar
  19   12   13 ar
  20   12   22 1
  21   13   14 ar
  22   13   23 1
  23   14   24 1
  24   15   16 ar
  25   16   17 ar
  26   16   25 1
  27   17   18 ar
  28   17   26 1

#	End of record

