#	Name: ASD01152194
#	Creating user name:	WinNT
#	Creation time:	15. 06. 2019 19:05

#	Modifying user name:	WinNT
#	Modification time:	15. 06. 2019 19:05

#	Program:	/corina/corina34_cracker 3.40 0067  02.08.2006

@<TRIPOS>MOLECULE
ASD01152194
  14   14    0    0    0
SMALL
NO_CHARGES


@<TRIPOS>ATOM
   1 N1            -0.0154     1.2825     0.0091 N.am    
   2 N2             0.0021    -0.0041     0.0020 N.2     
   3 C3             1.1319    -0.6582    -0.0123 C.2     
   4 H4             1.1355    -1.7381    -0.0185 H       
   5 C5             2.3500     0.0579    -0.0202 C.2     
   6 N6             2.3103     1.3827    -0.0127 N.2     
   7 C7             1.1237     1.9980     0.0021 C.2     
   8 O8             1.0734     3.2169     0.0087 O.2     
   9 O9             3.5329    -0.5956    -0.0346 O.3     
  10 C10            4.7164     0.2052    -0.0416 C.3     
  11 H11           -0.8675     1.7459     0.0156 H       
  12 H12            4.7210     0.8388    -0.9285 H       
  13 H13            4.7378     0.8299     0.8513 H       
  14 H14            5.5932    -0.4423    -0.0531 H       
@<TRIPOS>BOND
   1    1    2 1
   2    1    7 am
   3    1   11 1
   4    2    3 2
   5    3    4 1
   6    3    5 1
   7    5    6 2
   8    5    9 1
   9    6    7 1
  10    7    8 2
  11    9   10 1
  12   10   12 1
  13   10   13 1
  14   10   14 1

#	End of record

