#	Name: ASD01001035
#	Creating user name:	WinNT
#	Creation time:	15. 06. 2019 18:54

#	Modifying user name:	WinNT
#	Modification time:	15. 06. 2019 18:54

#	Program:	/corina/corina34_cracker 3.40 0067  02.08.2006

@<TRIPOS>MOLECULE
ASD01001035
  47   49    0    0    0
SMALL
NO_CHARGES


@<TRIPOS>ATOM
   1 C1             0.0216     1.7156    -0.9977 C.ar    
   2 C2            -0.0970     0.3381    -1.0090 C.ar    
   3 C3             1.2313     2.3031    -0.6785 C.ar    
   4 C4             0.9939    -0.4522    -0.7007 C.ar    
   5 C5             2.3234     1.5136    -0.3703 C.ar    
   6 C6             2.2052     0.1354    -0.3810 C.ar    
   7 C7             3.6424     2.1542    -0.0228 C.3     
   8 C8             4.0653     1.7173     1.3561 C.ar    
   9 C9             4.6855     1.7322    -1.0254 C.ar    
  10 S10            3.4657     3.9592    -0.0575 S.3     
  11 C11            3.2774     0.8372     2.0742 C.ar    
  12 C12            5.2438     2.1921     1.9006 C.ar    
  13 C13            4.3626     0.8274    -2.0193 C.ar    
  14 C14            5.9635     2.2543    -0.9545 C.ar    
  15 C15            2.3558     4.2875     1.3393 C.3     
  16 C16            3.6681     0.4320     3.3368 C.ar    
  17 C17            5.6317     1.7914     3.1654 C.ar    
  18 C18            5.3178     0.4446    -2.9424 C.ar    
  19 C19            6.9202     1.8672    -1.8741 C.ar    
  20 C20            1.9930     5.7737     1.3641 C.3     
  21 C21            4.8469     0.9065     3.8810 C.ar    
  22 C22            6.5957     0.9671    -2.8717 C.ar    
  23 N23            3.2161     6.5738     1.5120 N.3     
  24 Cl24           3.5760    -0.8567     0.0069 Cl      
  25 C25            1.0709     6.0464     2.5245 C.2     
  26 O26            1.5092     6.5199     3.5460 O.2     
  27 O27           -0.2372     5.7631     2.4231 O.3     
  28 H28           -0.8302     2.3327    -1.2427 H       
  29 H29           -1.0425    -0.1203    -1.2585 H       
  30 H30            1.3234     3.3791    -0.6701 H       
  31 H31            0.9010    -1.5281    -0.7089 H       
  32 H32            2.3565     0.4665     1.6490 H       
  33 H33            5.8618     2.8760     1.3376 H       
  34 H34            3.3642     0.4192    -2.0745 H       
  35 H35            6.2144     2.9649    -0.1808 H       
  36 H36            1.4483     3.6938     1.2295 H       
  37 H37            2.8548     4.0197     2.2706 H       
  38 H38            3.0522    -0.2550     3.8981 H       
  39 H39            6.5526     2.1621     3.5906 H       
  40 H40            5.0658    -0.2628    -3.7185 H       
  41 H41            7.9186     2.2754    -1.8189 H       
  42 H42            1.4940     6.0415     0.4328 H       
  43 H43            5.1519     0.5902     4.8676 H       
  44 H44            7.3432     0.6646    -3.5902 H       
  45 H45            3.0103     7.5606     1.4665 H       
  46 H46            3.6972     6.3439     2.3686 H       
  47 H47           -0.7890     5.9555     3.1936 H       
@<TRIPOS>BOND
   1    1    2 ar
   2    1    3 ar
   3    1   28 1
   4    2    4 ar
   5    2   29 1
   6    3    5 ar
   7    3   30 1
   8    4    6 ar
   9    4   31 1
  10    5    6 ar
  11    5    7 1
  12    6   24 1
  13    7   10 1
  14    7    8 1
  15    7    9 1
  16    8   12 ar
  17    8   11 ar
  18    9   14 ar
  19    9   13 ar
  20   10   15 1
  21   11   16 ar
  22   11   32 1
  23   12   17 ar
  24   12   33 1
  25   13   18 ar
  26   13   34 1
  27   14   19 ar
  28   14   35 1
  29   15   20 1
  30   15   36 1
  31   15   37 1
  32   16   21 ar
  33   16   38 1
  34   17   21 ar
  35   17   39 1
  36   18   22 ar
  37   18   40 1
  38   19   22 ar
  39   19   41 1
  40   20   23 1
  41   20   25 1
  42   20   42 1
  43   21   43 1
  44   22   44 1
  45   23   45 1
  46   23   46 1
  47   25   26 2
  48   25   27 1
  49   27   47 1

#	End of record

