#	Name: ASD01940134
#	Creating user name:	WinNT
#	Creation time:	15. 06. 2019 20:11

#	Modifying user name:	WinNT
#	Modification time:	15. 06. 2019 20:11

#	Program:	/corina/corina34_cracker 3.40 0067  02.08.2006

@<TRIPOS>MOLECULE
ASD01940134
  19   19    0    0    0
SMALL
NO_CHARGES


@<TRIPOS>ATOM
   1 C1            -0.0187     1.5258     0.0104 C.3     
   2 C2             0.0021    -0.0041     0.0020 C.3     
   3 C3             1.3165     0.7789    -0.0063 C.3     
   4 S4            -0.5282     2.3649    -1.5150 S.o2    
   5 O5            -0.4940     3.7751    -1.3436 O.2     
   6 O6             0.0717     1.7497    -2.6467 O.2     
   7 Cl7           -2.4931     1.9325    -1.6959 Cl      
   8 C8            -0.4237     2.2196     1.3125 C.3     
   9 C9            -0.2648     3.7102     1.1579 C.2     
  10 C10           -1.2783     4.5052     1.3964 C.2     
  11 H11           -0.2728    -0.5162     0.9241 H       
  12 H12           -0.2904    -0.5063    -0.9201 H       
  13 H13            1.8888     0.7918    -0.9339 H       
  14 H14            1.9064     0.7818     0.9103 H       
  15 H15           -1.4640     1.9868     1.5399 H       
  16 H16            0.2131     1.8687     2.1245 H       
  17 H17            0.6846     4.1231     0.8504 H       
  18 H18           -2.2278     4.0924     1.7039 H       
  19 H19           -1.1645     5.5735     1.2856 H       
@<TRIPOS>BOND
   1    1    2 1
   2    1    3 1
   3    1    4 1
   4    1    8 1
   5    2    3 1
   6    2   11 1
   7    2   12 1
   8    3   13 1
   9    3   14 1
  10    4    5 2
  11    4    6 2
  12    4    7 1
  13    8    9 1
  14    8   15 1
  15    8   16 1
  16    9   10 2
  17    9   17 1
  18   10   18 1
  19   10   19 1

#	End of record

