#	Name: ASD01885640
#	Creating user name:	WinNT
#	Creation time:	15. 06. 2019 19:49

#	Modifying user name:	WinNT
#	Modification time:	15. 06. 2019 19:49

#	Program:	/corina/corina34_cracker 3.40 0067  02.08.2006

@<TRIPOS>MOLECULE
ASD01885640
  34   36    0    0    0
SMALL
NO_CHARGES


@<TRIPOS>ATOM
   1 C1            -0.0170     1.4042     0.0098 C.ar    
   2 C2             1.2139     2.1083     0.0018 C.ar    
   3 C3             1.1962     3.5257     0.0097 C.ar    
   4 C4            -0.0389     4.1602     0.0249 C.ar    
   5 C5            -1.2081     3.3920     0.0319 C.ar    
   6 N6            -1.1701     2.0727     0.0299 N.ar    
   7 C7             0.0021    -0.0041     0.0020 C.ar    
   8 C8             1.1922    -0.6627    -0.0129 C.ar    
   9 C9             2.3993     0.0338    -0.0208 C.ar    
  10 C10            2.4203     1.3961    -0.0132 C.ar    
  11 C11            2.4550     4.3051     0.0024 C.ar    
  12 C12            2.7924     5.1012     1.0966 C.ar    
  13 C13            3.9670     5.8249     1.0843 C.ar    
  14 C14            4.8108     5.7634    -0.0105 C.ar    
  15 C15            4.4839     4.9769    -1.1002 C.ar    
  16 C16            3.3133     4.2418    -1.0985 C.ar    
  17 C17           -2.5230     4.0772     0.0481 C.2     
  18 N18           -3.6600     3.3534     0.0551 N.am    
  19 O19           -2.5755     5.2910     0.0552 O.2     
  20 C20            1.2056    -2.1696    -0.0206 C.3     
  21 F21            2.9944     3.4733    -2.1629 F       
  22 H22           -0.0965     5.2387     0.0268 H       
  23 H23           -0.9245    -0.5588     0.0083 H       
  24 H24            3.3303    -0.5135    -0.0323 H       
  25 H25            3.3623     1.9244    -0.0194 H       
  26 H26            2.1351     5.1514     1.9521 H       
  27 H27            4.2285     6.4415     1.9316 H       
  28 H28            5.7287     6.3324    -0.0144 H       
  29 H29            5.1466     4.9334    -1.9519 H       
  30 H30           -3.6181     2.3844     0.0494 H       
  31 H31           -4.5202     3.8017     0.0657 H       
  32 H32            1.1987    -2.5278    -1.0501 H       
  33 H33            2.1037    -2.5276     0.4826 H       
  34 H34            0.3239    -2.5435     0.5000 H       
@<TRIPOS>BOND
   1    1    7 ar
   2    1    2 ar
   3    1    6 ar
   4    2    3 ar
   5    2   10 ar
   6    3   11 1
   7    3    4 ar
   8    4    5 ar
   9    4   22 1
  10    5   17 1
  11    5    6 ar
  12    7    8 ar
  13    7   23 1
  14    8    9 ar
  15    8   20 1
  16    9   10 ar
  17    9   24 1
  18   10   25 1
  19   11   12 ar
  20   11   16 ar
  21   12   13 ar
  22   12   26 1
  23   13   14 ar
  24   13   27 1
  25   14   15 ar
  26   14   28 1
  27   15   16 ar
  28   15   29 1
  29   16   21 1
  30   17   18 am
  31   17   19 2
  32   18   30 1
  33   18   31 1
  34   20   32 1
  35   20   33 1
  36   20   34 1

#	End of record

