#	Name: ASD09120024
#	Creating user name:	WinNT
#	Creation time:	15. 06. 2019 21:21

#	Modifying user name:	WinNT
#	Modification time:	15. 06. 2019 21:21

#	Program:	/corina/corina34_cracker 3.40 0067  02.08.2006

@<TRIPOS>MOLECULE
ASD09120024
  52   54    0    0    0
SMALL
NO_CHARGES


@<TRIPOS>ATOM
   1 C1             0.0111     1.3758    -0.0549 C.ar    
   2 C2             0.0398    -0.0027    -0.0799 C.ar    
   3 C3             1.0850    -0.6879     0.5150 C.ar    
   4 C4             2.1077     0.0031     1.1384 C.ar    
   5 C5             2.0919     1.3841     1.1716 C.ar    
   6 C6             1.0399     2.0814     0.5726 C.ar    
   7 N7            -1.0504    -0.7516    -0.7444 N.pl3   
   8 O8            -1.9712    -0.1503    -1.2680 O.2     
   9 O9            -1.0268    -1.9692    -0.7674 O.2     
  10 C10            1.0159     3.5582     0.6028 C.2     
  11 O11            1.9130     4.1697     1.1498 O.2     
  12 N12           -0.0005     4.2277     0.0238 N.am    
  13 C13           -0.0658     5.6212     0.1220 C.ar    
  14 Cl14           3.3760     2.2506     1.9551 Cl      
  15 C15            1.0273     7.7304     0.4041 C.ar    
  16 C16            1.0957     6.3543     0.3120 C.ar    
  17 C17           -1.2979     6.2664     0.0226 C.ar    
  18 C18           -0.1938     8.3664     0.3109 C.ar    
  19 C19           -2.5221     5.4148    -0.2020 C.3     
  20 N20           -3.7295     6.2275    -0.0194 N.am    
  21 C21           -3.7424     7.5655    -0.6337 C.3     
  22 C22           -2.6567     8.4025     0.0410 C.3     
  23 C23           -1.3620     7.6372     0.1215 C.ar    
  24 C24           -4.7846     5.7678     0.6819 C.2     
  25 O25           -4.7478     4.6593     1.1783 O.2     
  26 O26           -5.8794     6.5369     0.8326 O.3     
  27 C27           -6.9776     5.9772     1.6001 C.3     
  28 C28           -6.4992     5.6606     3.0185 C.3     
  29 C29           -8.1239     6.9887     1.6624 C.3     
  30 C30           -7.4668     4.6926     0.9283 C.3     
  31 H31           -0.8030     1.9086    -0.5235 H       
  32 H32            1.1017    -1.7676     0.4924 H       
  33 H33            2.9202    -0.5379     1.6006 H       
  34 H34           -0.6868     3.7429    -0.4609 H       
  35 H35            1.9282     8.3081     0.5491 H       
  36 H36            2.0487     5.8517     0.3878 H       
  37 H37           -0.2420     9.4429     0.3819 H       
  38 H38           -2.5043     5.0142    -1.2155 H       
  39 H39           -2.5274     4.5917     0.5126 H       
  40 H40           -3.5350     7.4835    -1.7006 H       
  41 H41           -4.7157     8.0320    -0.4812 H       
  42 H42           -2.4986     9.3150    -0.5337 H       
  43 H43           -2.9808     8.6655     1.0479 H       
  44 H44           -6.1506     6.5758     3.4972 H       
  45 H45           -7.3236     5.2405     3.5947 H       
  46 H46           -5.6825     4.9401     2.9742 H       
  47 H47           -8.4647     7.2142     0.6519 H       
  48 H48           -8.9482     6.5685     2.2386 H       
  49 H49           -7.7753     7.9038     2.1410 H       
  50 H50           -6.6502     3.9720     0.8840 H       
  51 H51           -8.2912     4.2725     1.5045 H       
  52 H52           -7.8076     4.9181    -0.0822 H       
@<TRIPOS>BOND
   1    1    2 ar
   2    1    6 ar
   3    1   31 1
   4    2    3 ar
   5    2    7 1
   6    3    4 ar
   7    3   32 1
   8    4    5 ar
   9    4   33 1
  10    5    6 ar
  11    5   14 1
  12    6   10 1
  13    7    8 2
  14    7    9 2
  15   10   11 2
  16   10   12 am
  17   12   13 1
  18   12   34 1
  19   13   17 ar
  20   13   16 ar
  21   15   16 ar
  22   15   18 ar
  23   15   35 1
  24   16   36 1
  25   17   19 1
  26   17   23 ar
  27   18   23 ar
  28   18   37 1
  29   19   20 1
  30   19   38 1
  31   19   39 1
  32   20   21 1
  33   20   24 am
  34   21   22 1
  35   21   40 1
  36   21   41 1
  37   22   23 1
  38   22   42 1
  39   22   43 1
  40   24   25 2
  41   24   26 1
  42   26   27 1
  43   27   28 1
  44   27   29 1
  45   27   30 1
  46   28   44 1
  47   28   45 1
  48   28   46 1
  49   29   47 1
  50   29   48 1
  51   29   49 1
  52   30   50 1
  53   30   51 1
  54   30   52 1

#	End of record

