#	Name: ASD08170085
#	Creating user name:	WinNT
#	Creation time:	15. 06. 2019 21:17

#	Modifying user name:	WinNT
#	Modification time:	15. 06. 2019 21:17

#	Program:	/corina/corina34_cracker 3.40 0067  02.08.2006

@<TRIPOS>MOLECULE
ASD08170085
  14   14    0    0    0
SMALL
NO_CHARGES


@<TRIPOS>ATOM
   1 S1             2.6469     4.7235     1.9132 S.2     
   2 N2            -0.0150     1.2568     0.0090 N.2     
   3 N3             1.3887    -1.9608    -0.0217 N.pl3   
   4 N4             0.0021    -0.0041     0.0020 N.2     
   5 C5             1.3107     3.3735     0.0081 C.3     
   6 C6             1.1641    -0.5922    -0.0122 C.2     
   7 C7             1.3879     3.8637     1.4310 C.2     
   8 C8             1.1187     1.8788     0.0015 C.2     
   9 S9             2.4013     0.6666    -0.0173 S.3     
  10 H10            0.6384    -2.5755    -0.0182 H       
  11 H11            2.2962    -2.3032    -0.0319 H       
  12 H12            0.4696     3.8501    -0.4952 H       
  13 H13            2.2349     3.6234    -0.5129 H       
  14 H14            0.5930     3.6343     2.1251 H       
@<TRIPOS>BOND
   1    1    7 2
   2    2    4 1
   3    2    8 2
   4    3    6 1
   5    3   10 1
   6    3   11 1
   7    4    6 2
   8    5    7 1
   9    5    8 1
  10    5   12 1
  11    5   13 1
  12    6    9 1
  13    7   14 1
  14    8    9 1

#	End of record

