#	Name: ASD01820003
#	Creating user name:	WinNT
#	Creation time:	15. 06. 2019 19:36

#	Modifying user name:	WinNT
#	Modification time:	15. 06. 2019 19:36

#	Program:	/corina/corina34_cracker 3.40 0067  02.08.2006

@<TRIPOS>MOLECULE
ASD01820003
  72   76    0    0    0
SMALL
NO_CHARGES


@<TRIPOS>ATOM
   1 C1            -0.0167     1.3809     0.0096 C.ar    
   2 C2             0.0021    -0.0041     0.0020 C.ar    
   3 C3             1.1823    -0.7276    -0.0126 C.ar    
   4 C4             2.3691     0.0030    -0.0194 C.ar    
   5 C5             2.3432     1.4194    -0.0124 C.ar    
   6 C6             1.1370     2.1260     0.0026 C.ar    
   7 N7             3.6796    -0.3820    -0.0318 N.pl3   
   8 C8             4.4862     0.7341    -0.0352 C.2     
   9 C9             3.7303     1.8486    -0.0241 C.2     
  10 C10            4.2291     3.2706    -0.0234 C.3     
  11 N11            4.3784     3.7378    -1.4081 N.4     
  12 C12            4.1766    -1.7656    -0.0394 C.3     
  13 C13            5.6466    -1.7597     0.3052 C.2     
  14 N14            6.4533    -0.6437     0.2983 N.pl3   
  15 C15            5.9957     0.7098    -0.0480 C.3     
  16 C16            6.3622    -2.8424     0.6650 C.2     
  17 C17            7.7211    -2.3912     0.9065 C.ar    
  18 C18            7.7224    -0.9961     0.6602 C.ar    
  19 C19            8.8830    -3.0622     1.2993 C.ar    
  20 C20           10.0202    -2.3039     1.4336 C.ar    
  21 C21           10.0276    -0.9397     1.1941 C.ar    
  22 C22            8.8915    -0.2514     0.8045 C.ar    
  23 C23            5.8499    -4.2538     0.7935 C.3     
  24 N24            5.9965    -4.9470    -0.4934 N.4     
  25 C25            5.3418     2.8813    -2.1126 C.3     
  26 C26            3.0782     3.6754    -2.0889 C.3     
  27 C27            5.2246    -4.2375    -1.5224 C.3     
  28 C28            7.4144    -4.9737    -0.8764 C.3     
  29 C29            4.8647     5.1240    -1.4074 C.3     
  30 C30            5.4970    -6.3227    -0.3682 C.3     
  31 C31            5.6474    -7.0339    -1.6883 C.2     
  32 C32            6.3035    -8.1660    -1.7515 C.2     
  33 C33            5.0179     5.6033    -2.8279 C.2     
  34 C34            4.4127     6.6973    -3.2189 C.2     
  35 H35           -0.9686     1.8910     0.0169 H       
  36 H36           -0.9366    -0.5381     0.0080 H       
  37 H37            1.1832    -1.8076    -0.0181 H       
  38 H38            1.1135     3.2058     0.0080 H       
  39 H39            3.5143     3.9062     0.4994 H       
  40 H40            5.1939     3.3170     0.4818 H       
  41 H41            3.6311    -2.3534     0.6988 H       
  42 H42            4.0356    -2.1986    -1.0297 H       
  43 H43            6.3569     0.9741    -1.0419 H       
  44 H44            6.3783     1.4225     0.6826 H       
  45 H45            8.8861    -4.1255     1.4883 H       
  46 H46           10.9378    -2.7866     1.7360 H       
  47 H47           10.9517    -0.3940     1.3157 H       
  48 H48            8.9103     0.8127     0.6205 H       
  49 H49            6.4226    -4.7802     1.5570 H       
  50 H50            4.7978    -4.2339     1.0777 H       
  51 H51            4.9809     1.8528    -2.1131 H       
  52 H52            5.4526     3.2280    -3.1401 H       
  53 H53            6.3065     2.9277    -1.6075 H       
  54 H54            2.3635     4.3109    -1.5661 H       
  55 H55            3.1890     4.0220    -3.1163 H       
  56 H56            2.7174     2.6468    -2.0894 H       
  57 H57            5.5952    -3.2167    -1.6153 H       
  58 H58            5.3334    -4.7519    -2.4773 H       
  59 H59            4.1725    -4.2177    -1.2382 H       
  60 H60            7.9871    -5.5001    -0.1129 H       
  61 H61            7.5232    -5.4881    -1.8313 H       
  62 H62            7.7850    -3.9529    -0.9693 H       
  63 H63            4.1499     5.7595    -0.8846 H       
  64 H64            5.8295     5.1704    -0.9023 H       
  65 H65            6.0697    -6.8491     0.3954 H       
  66 H66            4.4449    -6.3029    -0.0840 H       
  67 H67            5.2143    -6.6101    -2.5823 H       
  68 H68            6.7366    -8.5897    -0.8574 H       
  69 H69            6.4112    -8.6756    -2.6975 H       
  70 H70            5.6267     5.0448    -3.5236 H       
  71 H71            4.5225     7.0408    -4.2370 H       
  72 H72            3.8039     7.2558    -2.5233 H       
@<TRIPOS>BOND
   1    1    2 ar
   2    1    6 ar
   3    1   35 1
   4    2    3 ar
   5    2   36 1
   6    3    4 ar
   7    3   37 1
   8    4    5 ar
   9    4    7 1
  10    5    6 ar
  11    5    9 1
  12    6   38 1
  13    7    8 1
  14    7   12 1
  15    8    9 2
  16    8   15 1
  17    9   10 1
  18   10   11 1
  19   10   39 1
  20   10   40 1
  21   11   25 1
  22   11   26 1
  23   11   29 1
  24   12   13 1
  25   12   41 1
  26   12   42 1
  27   13   14 1
  28   13   16 2
  29   14   15 1
  30   14   18 1
  31   15   43 1
  32   15   44 1
  33   16   17 1
  34   16   23 1
  35   17   18 ar
  36   17   19 ar
  37   18   22 ar
  38   19   20 ar
  39   19   45 1
  40   20   21 ar
  41   20   46 1
  42   21   22 ar
  43   21   47 1
  44   22   48 1
  45   23   24 1
  46   23   49 1
  47   23   50 1
  48   24   27 1
  49   24   28 1
  50   24   30 1
  51   25   51 1
  52   25   52 1
  53   25   53 1
  54   26   54 1
  55   26   55 1
  56   26   56 1
  57   27   57 1
  58   27   58 1
  59   27   59 1
  60   28   60 1
  61   28   61 1
  62   28   62 1
  63   29   33 1
  64   29   63 1
  65   29   64 1
  66   30   31 1
  67   30   65 1
  68   30   66 1
  69   31   32 2
  70   31   67 1
  71   32   68 1
  72   32   69 1
  73   33   34 2
  74   33   70 1
  75   34   71 1
  76   34   72 1

#	End of record

