#	Name: ASD03900052
#	Creating user name:	WinNT
#	Creation time:	15. 06. 2019 20:47

#	Modifying user name:	WinNT
#	Modification time:	15. 06. 2019 20:47

#	Program:	/corina/corina34_cracker 3.40 0067  02.08.2006

@<TRIPOS>MOLECULE
ASD03900052
  39   41    0    0    0
SMALL
NO_CHARGES


@<TRIPOS>ATOM
   1 C1             0.1057     1.1323    -0.9144 C.ar    
   2 C2             0.3441    -0.1653    -1.3521 C.ar    
   3 C3             1.6238    -0.7047    -1.2928 C.ar    
   4 C4             2.6599     0.0365    -0.8028 C.ar    
   5 C5             2.4288     1.3525    -0.3567 C.ar    
   6 C6             1.1284     1.8899    -0.4214 C.ar    
   7 C7             3.5314     2.1551     0.1705 C.2     
   8 N8             4.7026     1.5549     0.5246 N.2     
   9 C9             3.3775     3.6017     0.3179 C.ar    
  10 C10            2.7471     4.3541    -0.6924 C.ar    
  11 C11            2.6083     5.7039    -0.5454 C.ar    
  12 C12            3.0866     6.3363     0.5963 C.ar    
  13 C13            3.7101     5.6028     1.5990 C.ar    
  14 C14            3.8535     4.2512     1.4736 C.ar    
  15 Cl15           2.9044     8.0538     0.7710 Cl      
  16 Cl16          -0.9653    -1.1188    -1.9765 Cl      
  17 N17            5.7209     2.2736     0.8573 N.pl3   
  18 C18            6.8648     1.6712     1.3190 C.ar    
  19 C19            7.9719     2.4478     1.6810 C.ar    
  20 C20            9.1162     1.8362     2.1439 C.ar    
  21 C21            9.1732     0.4555     2.2516 C.ar    
  22 C22            8.0807    -0.3204     1.8950 C.ar    
  23 C23            6.9280     0.2771     1.4356 C.ar    
  24 N24           10.2880     2.6555     2.5267 N.pl3   
  25 O25           10.2358     3.9675     2.4246 O.2     
  26 O26           11.3828     2.0724     2.9694 O.2     
  27 H27           -0.8913     1.5440    -0.9687 H       
  28 H28            1.7988    -1.7138    -1.6354 H       
  29 H29            3.6533    -0.3846    -0.7569 H       
  30 H30            0.9411     2.8979    -0.0818 H       
  31 H31            2.3752     3.8646    -1.5804 H       
  32 H32            2.1256     6.2827    -1.3190 H       
  33 H33            4.0783     6.1034     2.4823 H       
  34 H34            4.3382     3.6830     2.2537 H       
  35 H35            5.6783     3.2397     0.7813 H       
  36 H36            7.9291     3.5237     1.5972 H       
  37 H37           10.0731    -0.0185     2.6148 H       
  38 H38            8.1325    -1.3957     1.9813 H       
  39 H39            6.0779    -0.3284     1.1581 H       
@<TRIPOS>BOND
   1    1    2 ar
   2    1    6 ar
   3    1   27 1
   4    2    3 ar
   5    2   16 1
   6    3    4 ar
   7    3   28 1
   8    4    5 ar
   9    4   29 1
  10    5    6 ar
  11    5    7 1
  12    6   30 1
  13    7    8 2
  14    7    9 1
  15    8   17 1
  16    9   10 ar
  17    9   14 ar
  18   10   11 ar
  19   10   31 1
  20   11   12 ar
  21   11   32 1
  22   12   13 ar
  23   12   15 1
  24   13   14 ar
  25   13   33 1
  26   14   34 1
  27   17   18 1
  28   17   35 1
  29   18   19 ar
  30   18   23 ar
  31   19   20 ar
  32   19   36 1
  33   20   24 1
  34   20   21 ar
  35   21   22 ar
  36   21   37 1
  37   22   23 ar
  38   22   38 1
  39   23   39 1
  40   24   25 2
  41   24   26 2

#	End of record

