#	Name: ASD01917242
#	Creating user name:	WinNT
#	Creation time:	15. 06. 2019 20:08

#	Modifying user name:	WinNT
#	Modification time:	15. 06. 2019 20:08

#	Program:	/corina/corina34_cracker 3.40 0067  02.08.2006

@<TRIPOS>MOLECULE
ASD01917242
  45   48    0    0    0
SMALL
NO_CHARGES


@<TRIPOS>ATOM
   1 C1             0.1520     0.6867    -0.4932 C.ar    
   2 C2             0.3200    -0.6721    -0.3024 C.ar    
   3 C3             1.5843    -1.1891    -0.0900 C.ar    
   4 C4             2.6807    -0.3475    -0.0689 C.ar    
   5 C5             2.5128     1.0112    -0.2606 C.ar    
   6 C6             1.2484     1.5284    -0.4716 C.ar    
   7 C7             3.7080     1.9288    -0.2370 C.3     
   8 O8             4.2410     2.0507    -1.5573 O.3     
   9 C9             5.3309     2.8494    -1.7118 C.2     
  10 N10            5.9349     3.5175    -0.7507 N.2     
  11 N11            6.9993     4.2204    -1.3003 N.pl3   
  12 C12            7.0327     3.9420    -2.6483 C.2     
  13 C13            6.0003     3.0926    -2.9192 C.2     
  14 C14            7.9638     5.1268    -0.6748 C.3     
  15 C15            9.2815     5.0718    -1.4475 C.3     
  16 N16            9.0894     5.1602    -2.8907 N.am    
  17 C17            8.0734     4.5182    -3.5158 C.2     
  18 O18            8.0239     4.4226    -4.7275 O.2     
  19 C19            9.9782     5.9292    -3.6500 C.ar    
  20 C20           11.3018     5.5327    -3.7822 C.ar    
  21 C21           12.1796     6.2959    -4.5351 C.ar    
  22 C22           11.7334     7.4561    -5.1558 C.ar    
  23 C23           10.4137     7.8496    -5.0222 C.ar    
  24 C24            9.5353     7.0870    -4.2767 C.ar    
  25 F25           12.5888     8.2007    -5.8900 F       
  26 O26           13.4767     5.9102    -4.6659 O.3     
  27 C27           13.8660     4.7072    -4.0001 C.3     
  28 H28           -0.8352     1.0901    -0.6636 H       
  29 H29           -0.5366    -1.3296    -0.3189 H       
  30 H30            1.7154    -2.2506     0.0598 H       
  31 H31            3.6684    -0.7513     0.0978 H       
  32 H32            1.1173     2.5899    -0.6217 H       
  33 H33            3.4046     2.9114     0.1245 H       
  34 H34            4.4692     1.5170     0.4256 H       
  35 H35            5.7426     2.6870    -3.8864 H       
  36 H36            7.5728     6.1440    -0.6939 H       
  37 H37            8.1342     4.8210     0.3575 H       
  38 H38            9.9137     5.8991    -1.1251 H       
  39 H39            9.7867     4.1341    -1.2162 H       
  40 H40           11.6470     4.6307    -3.2987 H       
  41 H41           10.0687     8.7521    -5.5048 H       
  42 H42            8.5055     7.3959    -4.1741 H       
  43 H43           13.6992     4.8147    -2.9284 H       
  44 H44           13.2732     3.8744    -4.3784 H       
  45 H45           14.9227     4.5148    -4.1858 H       
@<TRIPOS>BOND
   1    1    2 ar
   2    1    6 ar
   3    1   28 1
   4    2    3 ar
   5    2   29 1
   6    3    4 ar
   7    3   30 1
   8    4    5 ar
   9    4   31 1
  10    5    6 ar
  11    5    7 1
  12    6   32 1
  13    7    8 1
  14    7   33 1
  15    7   34 1
  16    8    9 1
  17    9   10 2
  18    9   13 1
  19   10   11 1
  20   11   12 1
  21   11   14 1
  22   12   13 2
  23   12   17 1
  24   13   35 1
  25   14   15 1
  26   14   36 1
  27   14   37 1
  28   15   16 1
  29   15   38 1
  30   15   39 1
  31   16   17 am
  32   16   19 1
  33   17   18 2
  34   19   20 ar
  35   19   24 ar
  36   20   21 ar
  37   20   40 1
  38   21   22 ar
  39   21   26 1
  40   22   23 ar
  41   22   25 1
  42   23   24 ar
  43   23   41 1
  44   24   42 1
  45   26   27 1
  46   27   43 1
  47   27   44 1
  48   27   45 1

#	End of record

