#	Name: ASD01870616
#	Creating user name:	WinNT
#	Creation time:	15. 06. 2019 19:39

#	Modifying user name:	WinNT
#	Modification time:	15. 06. 2019 19:39

#	Program:	/corina/corina34_cracker 3.40 0067  02.08.2006

@<TRIPOS>MOLECULE
ASD01870616
  41   44    0    0    0
SMALL
NO_CHARGES


@<TRIPOS>ATOM
   1 C1            -0.0402     1.4009     0.0481 C.ar    
   2 C2            -0.0260     0.0148     0.0489 C.ar    
   3 C3             1.1726    -0.6738     0.0389 C.ar    
   4 C4             2.3771     0.0120     0.0283 C.ar    
   5 C5             2.3786     1.3977     0.0273 C.ar    
   6 C6             1.1562     2.1001     0.0371 C.ar    
   7 C7             3.4373     2.4288     0.0177 C.2     
   8 N8             2.8547     3.6414     0.0217 N.am    
   9 C9             1.5138     3.5340     0.0334 C.2     
  10 C10            3.5491     4.8500     0.0150 C.ar    
  11 N11            4.8722     4.8323     0.0034 N.ar    
  12 C12            5.5651     5.9587    -0.0036 C.ar    
  13 C13            4.8835     7.1727     0.0013 C.ar    
  14 C14            3.4915     7.1501     0.0135 C.ar    
  15 N15            2.8673     5.9842     0.0150 N.ar    
  16 O16            0.7286     4.4603     0.0393 O.2     
  17 O17            4.6330     2.2170     0.0078 O.2     
  18 N18            5.5811     8.3870    -0.0055 N.am    
  19 C19            5.0781     9.4495    -0.6646 C.2     
  20 C20            5.7462    10.7516    -0.5745 C.2     
  21 O21            4.0693     9.3282    -1.3347 O.2     
  22 C22            5.3450    11.9036    -1.1884 C.2     
  23 C23            6.2703    12.8959    -0.8288 C.2     
  24 C24            7.1842    12.3136    -0.0214 C.2     
  25 O25            6.8617    11.0230     0.1341 O.3     
  26 C26            4.1421    12.0759    -2.0797 C.3     
  27 C27           -1.3511     2.1442     0.0528 C.3     
  28 H28           -0.9579    -0.5309     0.0579 H       
  29 H29            1.1704    -1.7538     0.0397 H       
  30 H30            3.3104    -0.5314     0.0212 H       
  31 H31            6.6448     5.9372    -0.0128 H       
  32 H32            2.9291     8.0721     0.0176 H       
  33 H33            6.4264     8.4633     0.4643 H       
  34 H34            6.2548    13.9302    -1.1390 H       
  35 H35            8.0325    12.8085     0.4279 H       
  36 H36            3.2789    12.3545    -1.4752 H       
  37 H37            4.3412    12.8590    -2.8113 H       
  38 H38            3.9361    11.1390    -2.5972 H       
  39 H39           -1.6630     2.3241     1.0816 H       
  40 H40           -1.2302     3.0973    -0.4621 H       
  41 H41           -2.1081     1.5489    -0.4576 H       
@<TRIPOS>BOND
   1    1    2 ar
   2    1    6 ar
   3    1   27 1
   4    2    3 ar
   5    2   28 1
   6    3    4 ar
   7    3   29 1
   8    4    5 ar
   9    4   30 1
  10    5    7 1
  11    5    6 ar
  12    6    9 1
  13    7    8 am
  14    7   17 2
  15    8    9 am
  16    8   10 1
  17    9   16 2
  18   10   11 ar
  19   10   15 ar
  20   11   12 ar
  21   12   13 ar
  22   12   31 1
  23   13   14 ar
  24   13   18 1
  25   14   15 ar
  26   14   32 1
  27   18   19 am
  28   18   33 1
  29   19   20 1
  30   19   21 2
  31   20   22 2
  32   20   25 1
  33   22   23 1
  34   22   26 1
  35   23   24 2
  36   23   34 1
  37   24   25 1
  38   24   35 1
  39   26   36 1
  40   26   37 1
  41   26   38 1
  42   27   39 1
  43   27   40 1
  44   27   41 1

#	End of record

