#	Name: ASD01148186
#	Creating user name:	WinNT
#	Creation time:	15. 06. 2019 19:02

#	Modifying user name:	WinNT
#	Modification time:	15. 06. 2019 19:02

#	Program:	/corina/corina34_cracker 3.40 0067  02.08.2006

@<TRIPOS>MOLECULE
ASD01148186
  55   58    0    0    0
SMALL
NO_CHARGES


@<TRIPOS>ATOM
   1 C1             0.0848     2.6490     0.7023 C.ar    
   2 C2            -0.3628     1.3429     0.7618 C.ar    
   3 C3             0.5228     0.2986     0.5622 C.ar    
   4 C4             1.8558     0.5627     0.3032 C.ar    
   5 C5             2.3023     1.8697     0.2439 C.ar    
   6 C6             1.4172     2.9124     0.4434 C.ar    
   7 C7             3.7544     2.1576    -0.0383 C.3     
   8 O8             4.3251     1.1445    -0.8912 O.3     
   9 C9             3.9081     3.4267    -0.9102 C.3     
  10 C10            3.9680     2.8565    -2.3145 C.2     
  11 N11            4.1978     1.5892    -2.2273 N.2     
  12 C12            3.7935     3.6197    -3.5659 C.ar    
  13 C13            3.8733     2.9673    -4.7990 C.ar    
  14 C14            3.5428     4.9934    -3.5173 C.ar    
  15 C15            3.3796     5.7050    -4.6841 C.ar    
  16 C16            3.4647     5.0536    -5.9174 C.ar    
  17 C17            3.7102     3.6788    -5.9659 C.ar    
  18 C18            3.2896     5.8172    -7.1696 C.2     
  19 O19            2.2672     6.4457    -7.3601 O.2     
  20 N20            4.2639     5.8168    -8.1009 N.am    
  21 C21            4.5471     2.2875     1.2639 C.3     
  22 F22            4.4439     1.0981     1.9932 F       
  23 F23            5.8913     2.5382     0.9684 F       
  24 F24            4.0308     3.3448     2.0206 F       
  25 Cl25          -0.0386    -1.3424     0.6374 Cl      
  26 C26            4.0374     6.4589    -9.3981 C.3     
  27 C27            4.4571     7.9043    -9.3232 C.ar    
  28 N28            3.6097     8.8061    -8.8679 N.ar    
  29 C29            5.4464     5.2257    -7.8389 C.2     
  30 C30            3.9332    10.0820    -8.7844 C.ar    
  31 C31            5.1835    10.5212    -9.1758 C.ar    
  32 C32            6.1018     9.6018    -9.6601 C.ar    
  33 C33            5.7277     8.2686    -9.7274 C.ar    
  34 O34            5.6741     4.7886    -6.7287 O.2     
  35 O35            6.3750     5.1196    -8.8075 O.3     
  36 C36            7.6252     4.4714    -8.4539 C.3     
  37 H37           -0.6072     3.4643     0.8537 H       
  38 H38           -1.4035     1.1373     0.9645 H       
  39 H39            2.5475    -0.2519     0.1476 H       
  40 H40            1.7665     3.9333     0.3969 H       
  41 H41            3.0447     4.0821    -0.7951 H       
  42 H42            4.8306     3.9538    -0.6669 H       
  43 H43            4.0634     1.9048    -4.8365 H       
  44 H44            3.4766     5.4968    -2.5641 H       
  45 H45            3.1855     6.7667    -4.6465 H       
  46 H46            3.7759     3.1753    -6.9190 H       
  47 H47            4.6237     5.9495   -10.1629 H       
  48 H48            2.9791     6.4005    -9.6526 H       
  49 H49            3.2124    10.7917    -8.4062 H       
  50 H50            5.4423    11.5674    -9.1058 H       
  51 H51            7.0862     9.9163    -9.9736 H       
  52 H52            6.4175     7.5252   -10.0990 H       
  53 H53            8.2830     4.4520    -9.3228 H       
  54 H54            8.1057     5.0244    -7.6467 H       
  55 H55            7.4256     3.4510    -8.1266 H       
@<TRIPOS>BOND
   1    1    2 ar
   2    1    6 ar
   3    1   37 1
   4    2    3 ar
   5    2   38 1
   6    3    4 ar
   7    3   25 1
   8    4    5 ar
   9    4   39 1
  10    5    6 ar
  11    5    7 1
  12    6   40 1
  13    7    8 1
  14    7    9 1
  15    7   21 1
  16    8   11 1
  17    9   10 1
  18    9   41 1
  19    9   42 1
  20   10   11 2
  21   10   12 1
  22   12   13 ar
  23   12   14 ar
  24   13   17 ar
  25   13   43 1
  26   14   15 ar
  27   14   44 1
  28   15   16 ar
  29   15   45 1
  30   16   17 ar
  31   16   18 1
  32   17   46 1
  33   18   19 2
  34   18   20 am
  35   20   26 1
  36   20   29 am
  37   21   22 1
  38   21   23 1
  39   21   24 1
  40   26   27 1
  41   26   47 1
  42   26   48 1
  43   27   28 ar
  44   27   33 ar
  45   28   30 ar
  46   29   34 2
  47   29   35 1
  48   30   31 ar
  49   30   49 1
  50   31   32 ar
  51   31   50 1
  52   32   33 ar
  53   32   51 1
  54   33   52 1
  55   35   36 1
  56   36   53 1
  57   36   54 1
  58   36   55 1

#	End of record

