#	Name: ASD02038035
#	Creating user name:	WinNT
#	Creation time:	15. 06. 2019 20:16

#	Modifying user name:	WinNT
#	Modification time:	15. 06. 2019 20:16

#	Program:	/corina/corina34_cracker 3.40 0067  02.08.2006

@<TRIPOS>MOLECULE
ASD02038035
  35   37    0    0    0
SMALL
NO_CHARGES


@<TRIPOS>ATOM
   1 N1            -0.0163     1.3789    -0.0919 N.am    
   2 N2            -0.9770     3.4951     0.1276 N.am    
   3 C3            -1.1102     2.1583     0.0193 C.2     
   4 C4            -0.6499     6.8653     0.6007 C.3     
   5 O5             0.2783     7.4856     1.4926 O.3     
   6 C6             0.5429     8.8039     1.2895 C.ar    
   7 C7             1.4344     9.4681     2.1188 C.ar    
   8 C8            -0.0744     9.4829     0.2495 C.ar    
   9 C9             0.1943    10.8220     0.0431 C.ar    
  10 C10            1.0812    11.4877     0.8762 C.ar    
  11 C11            1.7031    10.8072     1.9125 C.ar    
  12 O12           -2.2164     1.6559     0.0219 O.2     
  13 O13            1.3461    12.8059     0.6728 O.3     
  14 C14           -1.8865     4.6501     0.1683 C.3     
  15 C15           -0.8188     5.3935     0.9830 C.3     
  16 C16            0.1415     4.4402     0.2637 C.3     
  17 C17            0.0113     0.0043    -0.1071 C.2     
  18 C18            1.2730     1.8030    -0.2167 C.2     
  19 N19            2.0460     0.7571    -0.3033 N.2     
  20 C20            1.2998    -0.3571    -0.2389 C.2     
  21 H21           -1.6130     7.3712     0.6689 H       
  22 H22           -0.2746     6.9347    -0.4203 H       
  23 H23            1.9182     8.9384     2.9261 H       
  24 H24           -0.7650     8.9645    -0.3992 H       
  25 H25           -0.2858    11.3505    -0.7671 H       
  26 H26            2.3934    11.3257     2.5614 H       
  27 H27            0.7556    13.4041     1.1508 H       
  28 H28           -2.0711     5.0920    -0.8109 H       
  29 H29           -2.8039     4.4607     0.7256 H       
  30 H30           -0.8833     5.2300     2.0587 H       
  31 H31            0.9471     4.0738     0.9001 H       
  32 H32            0.4997     4.8241    -0.6915 H       
  33 H33           -0.8383    -0.6577    -0.0278 H       
  34 H34            1.5992     2.8323    -0.2399 H       
  35 H35            1.6709    -1.3703    -0.2848 H       
@<TRIPOS>BOND
   1    1   17 1
   2    1   18 1
   3    1    3 am
   4    2    3 am
   5    2   14 1
   6    2   16 1
   7    3   12 2
   8    4    5 1
   9    4   15 1
  10    4   21 1
  11    4   22 1
  12    5    6 1
  13    6    7 ar
  14    6    8 ar
  15    7   11 ar
  16    7   23 1
  17    8    9 ar
  18    8   24 1
  19    9   10 ar
  20    9   25 1
  21   10   11 ar
  22   10   13 1
  23   11   26 1
  24   13   27 1
  25   14   15 1
  26   14   28 1
  27   14   29 1
  28   15   16 1
  29   15   30 1
  30   16   31 1
  31   16   32 1
  32   17   20 2
  33   17   33 1
  34   18   19 2
  35   18   34 1
  36   19   20 1
  37   20   35 1

#	End of record

