#	Name: ASD05430080
#	Creating user name:	WinNT
#	Creation time:	15. 06. 2019 20:59

#	Modifying user name:	WinNT
#	Modification time:	15. 06. 2019 20:59

#	Program:	/corina/corina34_cracker 3.40 0067  02.08.2006

@<TRIPOS>MOLECULE
ASD05430080
  57   62    0    0    0
SMALL
NO_CHARGES


@<TRIPOS>ATOM
   1 C1            -0.0807     1.1947    -0.3632 C.ar    
   2 C2            -0.0157    -0.0174     0.3274 C.ar    
   3 C3            -1.1532    -0.5467     0.9223 C.ar    
   4 C4            -2.3533     0.1231     0.8331 C.ar    
   5 C5            -2.4273     1.3386     0.1429 C.ar    
   6 C6            -1.2817     1.8742    -0.4513 C.ar    
   7 C7            -4.8570    -0.1415    -0.2150 C.3     
   8 C8            -4.8622     1.3622    -0.0482 C.2     
   9 C9            -3.7100     2.0543     0.0471 C.2     
  10 C10           -6.1894    -0.5918    -0.8212 C.3     
  11 C11           -6.9067     0.4341    -1.7059 C.3     
  12 N12           -7.1356     1.6510    -0.9238 N.pl3   
  13 C13           -6.1636     2.0455     0.0063 C.2     
  14 C14           -8.3318     2.4714    -1.1140 C.3     
  15 C15           -8.8270     2.9497     0.2553 C.3     
  16 N16           -7.7026     3.5027     1.0139 N.pl3   
  17 N17           -6.4211     2.9533     0.8955 N.2     
  18 C18           -7.9956     3.6626    -1.9737 C.ar    
  19 C19           -8.8878     4.0919    -2.9385 C.ar    
  20 C20           -6.3214    -2.0661    -1.2102 C.3     
  21 C21           -7.0626    -1.5290     0.0157 C.3     
  22 C22           -8.5808     5.1844    -3.7271 C.ar    
  23 C23           -7.3790     5.8491    -3.5507 C.ar    
  24 C24           -6.4862     5.4182    -2.5841 C.ar    
  25 C25           -6.7977     4.3287    -1.7931 C.ar    
  26 F26           -7.0776     6.9170    -4.3213 F       
  27 O27            1.1646     1.4586    -0.8305 O.3     
  28 C28            1.9924     0.4686    -0.4614 C.2     
  29 N29            1.3069    -0.4502     0.2469 N.am    
  30 O30            3.1779     0.4099    -0.7255 O.2     
  31 C31            1.8524    -1.6799     0.8269 C.3     
  32 C32            2.3493    -1.3978     2.2462 C.3     
  33 H33           -1.0969    -1.4845     1.4551 H       
  34 H34           -3.2376    -0.2898     1.2956 H       
  35 H35           -1.3358     2.8119    -0.9846 H       
  36 H36           -4.0405    -0.4309    -0.8766 H       
  37 H37           -4.7219    -0.6146     0.7576 H       
  38 H38           -3.7276     3.1341     0.0532 H       
  39 H39           -6.2868     0.6672    -2.5716 H       
  40 H40           -7.8622     0.0270    -2.0366 H       
  41 H41           -9.1085     1.8781    -1.5965 H       
  42 H42           -9.5867     3.7193     0.1186 H       
  43 H43           -9.2552     2.1089     0.8010 H       
  44 H44           -7.8479     4.2580     1.6049 H       
  45 H45           -9.8249     3.5731    -3.0762 H       
  46 H46           -6.9148    -2.3023    -2.0935 H       
  47 H47           -5.4609    -2.7119    -1.0352 H       
  48 H48           -6.6898    -1.8215     0.9973 H       
  49 H49           -8.1436    -1.4120    -0.0610 H       
  50 H50           -9.2778     5.5194    -4.4810 H       
  51 H51           -5.5486     5.9359    -2.4455 H       
  52 H52           -6.1015     3.9924    -1.0390 H       
  53 H53            1.0744    -2.4426     0.8592 H       
  54 H54            2.6823    -2.0333     0.2149 H       
  55 H55            2.7551    -2.3127     2.6777 H       
  56 H56            3.1273    -0.6351     2.2138 H       
  57 H57            1.5194    -1.0444     2.8581 H       
@<TRIPOS>BOND
   1    1    2 ar
   2    1   27 1
   3    1    6 ar
   4    2    3 ar
   5    2   29 1
   6    3    4 ar
   7    3   33 1
   8    4    5 ar
   9    4   34 1
  10    5    6 ar
  11    5    9 1
  12    6   35 1
  13    7    8 1
  14    7   10 1
  15    7   36 1
  16    7   37 1
  17    8    9 2
  18    8   13 1
  19    9   38 1
  20   10   11 1
  21   10   20 1
  22   10   21 1
  23   11   12 1
  24   11   39 1
  25   11   40 1
  26   12   13 1
  27   12   14 1
  28   13   17 2
  29   14   15 1
  30   14   18 1
  31   14   41 1
  32   15   16 1
  33   15   42 1
  34   15   43 1
  35   16   17 1
  36   16   44 1
  37   18   19 ar
  38   18   25 ar
  39   19   22 ar
  40   19   45 1
  41   20   21 1
  42   20   46 1
  43   20   47 1
  44   21   48 1
  45   21   49 1
  46   22   23 ar
  47   22   50 1
  48   23   24 ar
  49   23   26 1
  50   24   25 ar
  51   24   51 1
  52   25   52 1
  53   27   28 1
  54   28   29 am
  55   28   30 2
  56   29   31 1
  57   31   32 1
  58   31   53 1
  59   31   54 1
  60   32   55 1
  61   32   56 1
  62   32   57 1

#	End of record

