#	Name: ASD02198467
#	Creating user name:	WinNT
#	Creation time:	15. 06. 2019 20:19

#	Modifying user name:	WinNT
#	Modification time:	15. 06. 2019 20:19

#	Program:	/corina/corina34_cracker 3.40 0067  02.08.2006

@<TRIPOS>MOLECULE
ASD02198467
  45   48    0    0    0
SMALL
NO_CHARGES


@<TRIPOS>ATOM
   1 C1            -0.2809     1.6236    -0.2710 C.2     
   2 C2            -0.4265     0.2759    -0.2151 C.2     
   3 N3             0.6495    -0.5328    -0.0845 N.pl3   
   4 N4             1.8524    -0.0969    -0.0062 N.2     
   5 C5             2.1346     1.1872    -0.0475 C.2     
   6 C6             1.0304     2.1506    -0.1882 C.2     
   7 C7             0.4391    -1.9146    -0.0318 C.ar    
   8 C8            -1.0571    -3.7850     0.0860 C.ar    
   9 C9             0.0230    -4.6482     0.0724 C.ar    
  10 C10            1.3112    -4.1481     0.0126 C.ar    
  11 C11            1.5224    -2.7846    -0.0395 C.ar    
  12 C12            3.5328     1.6538     0.0461 C.2     
  13 N13            4.1835     2.4535    -0.8505 N.pl3   
  14 N14            5.4873     2.6504    -0.3789 N.2     
  15 C15            5.6287     2.0033     0.7507 C.2     
  16 C16            4.4249     1.3693     1.0571 C.2     
  17 C17            3.6429     2.9819    -2.0310 C.ar    
  18 C18            2.8446     2.1892    -2.8450 C.ar    
  19 O19            1.2370     3.3541    -0.2321 O.2     
  20 C20           -0.8530    -2.4200     0.0342 C.ar    
  21 C21            3.9009     4.2999    -2.3840 C.ar    
  22 C22            3.3679     4.8198    -3.5466 C.ar    
  23 C23            2.5742     4.0258    -4.3620 C.ar    
  24 C24            2.3121     2.7102    -4.0073 C.ar    
  25 C25           -2.4589    -4.3345     0.1513 C.3     
  26 F26           -2.4106    -5.7321     0.1894 F       
  27 F27           -3.0933    -3.8582     1.3036 F       
  28 F28           -3.1740    -3.9232    -0.9786 F       
  29 O29            2.0493     4.5384    -5.5063 O.3     
  30 C30            1.2416     3.6648    -6.2978 C.3     
  31 H31           -1.1371     2.2729    -0.3796 H       
  32 H32           -1.4143    -0.1566    -0.2752 H       
  33 H33           -0.1396    -5.7153     0.1089 H       
  34 H34            2.1527    -4.8251     0.0024 H       
  35 H35            2.5285    -2.3948    -0.0866 H       
  36 H36            6.5274     1.9700     1.3486 H       
  37 H37            4.2292     0.7595     1.9267 H       
  38 H38            2.6405     1.1651    -2.5691 H       
  39 H39           -1.6971    -1.7464     0.0452 H       
  40 H40            4.5181     4.9182    -1.7491 H       
  41 H41            3.5684     5.8448    -3.8213 H       
  42 H42            1.6943     2.0927    -4.6424 H       
  43 H43            1.8336     2.8036    -6.6073 H       
  44 H44            0.3882     3.3268    -5.7099 H       
  45 H45            0.8868     4.1978    -7.1800 H       
@<TRIPOS>BOND
   1    1    2 2
   2    1    6 1
   3    1   31 1
   4    2    3 1
   5    2   32 1
   6    3    4 1
   7    3    7 1
   8    4    5 2
   9    5    6 1
  10    5   12 1
  11    6   19 2
  12    7   20 ar
  13    7   11 ar
  14    8    9 ar
  15    8   25 1
  16    8   20 ar
  17    9   10 ar
  18    9   33 1
  19   10   11 ar
  20   10   34 1
  21   11   35 1
  22   12   13 1
  23   12   16 2
  24   13   14 1
  25   13   17 1
  26   14   15 2
  27   15   16 1
  28   15   36 1
  29   16   37 1
  30   17   21 ar
  31   17   18 ar
  32   18   24 ar
  33   18   38 1
  34   20   39 1
  35   21   22 ar
  36   21   40 1
  37   22   23 ar
  38   22   41 1
  39   23   24 ar
  40   23   29 1
  41   24   42 1
  42   25   26 1
  43   25   27 1
  44   25   28 1
  45   29   30 1
  46   30   43 1
  47   30   44 1
  48   30   45 1

#	End of record

