#	Name: ASD01917527
#	Creating user name:	WinNT
#	Creation time:	15. 06. 2019 20:09

#	Modifying user name:	WinNT
#	Modification time:	15. 06. 2019 20:09

#	Program:	/corina/corina34_cracker 3.40 0067  02.08.2006

@<TRIPOS>MOLECULE
ASD01917527
  40   42    0    0    0
SMALL
NO_CHARGES


@<TRIPOS>ATOM
   1 C1            -0.0166     1.3763     0.0096 C.ar    
   2 C2             0.0021    -0.0041     0.0020 C.ar    
   3 C3             1.2089    -0.6830    -0.0132 C.ar    
   4 C4             2.4034     0.0157    -0.0203 C.ar    
   5 C5             2.4000     1.3947    -0.0124 C.ar    
   6 C6             1.1860     2.0875     0.0019 C.ar    
   7 C7             1.1750     3.5195     0.0093 C.1     
   8 C8             1.1660     4.6934     0.0153 C.1     
   9 C9             1.1550     6.1254     0.0226 C.ar    
  10 N10           -0.0714     8.1395     0.0496 N.ar    
  11 C11           -0.0570     6.8262     0.0433 C.ar    
  12 C12            2.3581     6.8460     0.0150 C.ar    
  13 C13            2.2964     8.2255     0.0225 C.ar    
  14 C14            1.0496     8.8518     0.0372 C.ar    
  15 C15            0.9753    10.3302     0.0451 C.2     
  16 C16            1.5404    12.4932     0.0429 C.3     
  17 N17            2.0172    11.1013     0.0286 N.2     
  18 N18           -0.2073    11.0335     0.0649 N.am    
  19 C19            0.0304    12.3621     0.0669 C.2     
  20 C20            2.0392    13.2185     1.2943 C.3     
  21 C21            1.9921    13.2282    -1.2207 C.3     
  22 O22           -0.7872    13.2574     0.0850 O.2     
  23 C23           -1.5396    10.4246     0.0810 C.3     
  24 Cl24          -1.4904    -0.8907     0.0121 Cl      
  25 H25           -0.9583     1.9050     0.0170 H       
  26 H26            1.2180    -1.7629    -0.0190 H       
  27 H27            3.3409    -0.5204    -0.0318 H       
  28 H28            3.3333     1.9382    -0.0174 H       
  29 H29           -0.9894     6.2813     0.0538 H       
  30 H30            3.3093     6.3347     0.0039 H       
  31 H31            3.2027     8.8128     0.0173 H       
  32 H32            3.1290    13.2404     1.2915 H       
  33 H33            1.6553    14.2386     1.3004 H       
  34 H34            1.6887    12.6931     2.1827 H       
  35 H35            1.6084    12.7096    -2.0994 H       
  36 H36            1.6084    14.2483    -1.2045 H       
  37 H37            3.0812    13.2502    -1.2586 H       
  38 H38           -1.8556    10.2690     1.1125 H       
  39 H39           -2.2472    11.0852    -0.4200 H       
  40 H40           -1.5075     9.4664    -0.4376 H       
@<TRIPOS>BOND
   1    1    2 ar
   2    1    6 ar
   3    1   25 1
   4    2    3 ar
   5    2   24 1
   6    3    4 ar
   7    3   26 1
   8    4    5 ar
   9    4   27 1
  10    5    6 ar
  11    5   28 1
  12    6    7 1
  13    7    8 3
  14    8    9 1
  15    9   12 ar
  16    9   11 ar
  17   10   11 ar
  18   10   14 ar
  19   11   29 1
  20   12   13 ar
  21   12   30 1
  22   13   14 ar
  23   13   31 1
  24   14   15 1
  25   15   18 1
  26   15   17 2
  27   16   17 1
  28   16   19 1
  29   16   20 1
  30   16   21 1
  31   18   19 am
  32   18   23 1
  33   19   22 2
  34   20   32 1
  35   20   33 1
  36   20   34 1
  37   21   35 1
  38   21   36 1
  39   21   37 1
  40   23   38 1
  41   23   39 1
  42   23   40 1

#	End of record

