#	Name: ASD01940100
#	Creating user name:	WinNT
#	Creation time:	15. 06. 2019 20:11

#	Modifying user name:	WinNT
#	Modification time:	15. 06. 2019 20:11

#	Program:	/corina/corina34_cracker 3.40 0067  02.08.2006

@<TRIPOS>MOLECULE
ASD01940100
  32   33    0    0    0
SMALL
NO_CHARGES


@<TRIPOS>ATOM
   1 I1             2.7954    -4.5934    -1.6082 I       
   2 F2             1.9010     1.6010     2.2882 F       
   3 C3             1.0631     2.1524     1.3832 C.ar    
   4 C4             1.3885     2.1340     0.0334 C.ar    
   5 C5             0.5206     2.7038    -0.8967 C.ar    
   6 C6            -0.6635     3.2863    -0.4702 C.ar    
   7 C7            -0.9822     3.3021     0.8753 C.ar    
   8 C8            -0.1246     2.7318     1.8005 C.ar    
   9 N9             2.5868     1.5445    -0.3926 N.pl3   
  10 N10            0.8442     2.6885    -2.2600 N.am    
  11 C11            2.6338     0.1743    -0.6636 C.ar    
  12 C12            1.4784    -0.5916    -0.5801 C.ar    
  13 C13            1.5279    -1.9457    -0.8491 C.ar    
  14 C14            2.7264    -2.5394    -1.2014 C.ar    
  15 C15            3.8800    -1.7799    -1.2853 C.ar    
  16 C16            3.8364    -0.4241    -1.0232 C.ar    
  17 Cl17           5.2839     0.5285    -1.1286 Cl      
  18 F18           -0.4435     2.7450     3.1132 F       
  19 S19            0.4284     3.9691    -3.2241 S.o2    
  20 O20            0.9943     3.6539    -4.4889 O.2     
  21 O21           -0.9781     4.0890    -3.0602 O.2     
  22 C22            1.2790     5.3892    -2.4823 C.3     
  23 Cl23           3.0576     5.0935    -2.4861 Cl      
  24 Cl24           0.9146     6.8742    -3.4376 Cl      
  25 H25           -1.3371     3.7282    -1.1894 H       
  26 H26           -1.9048     3.7566     1.2048 H       
  27 H27            3.3834     2.0876    -0.4993 H       
  28 H28            1.3118     1.9278    -2.6390 H       
  29 H29            0.5421    -0.1291    -0.3048 H       
  30 H30            0.6295    -2.5416    -0.7838 H       
  31 H31            4.8144    -2.2466    -1.5600 H       
  32 H32            0.9352     5.5235    -1.4567 H       
@<TRIPOS>BOND
   1    1   14 1
   2    2    3 1
   3    3    4 ar
   4    3    8 ar
   5    4    5 ar
   6    4    9 1
   7    5    6 ar
   8    5   10 1
   9    6    7 ar
  10    6   25 1
  11    7    8 ar
  12    7   26 1
  13    8   18 1
  14    9   11 1
  15    9   27 1
  16   10   19 am
  17   10   28 1
  18   11   12 ar
  19   11   16 ar
  20   12   13 ar
  21   12   29 1
  22   13   14 ar
  23   13   30 1
  24   14   15 ar
  25   15   16 ar
  26   15   31 1
  27   16   17 1
  28   19   20 2
  29   19   21 2
  30   19   22 1
  31   22   23 1
  32   22   24 1
  33   22   32 1

#	End of record

