#	Name: ASD01840049
#	Creating user name:	WinNT
#	Creation time:	15. 06. 2019 19:37

#	Modifying user name:	WinNT
#	Modification time:	15. 06. 2019 19:37

#	Program:	/corina/corina34_cracker 3.40 0067  02.08.2006

@<TRIPOS>MOLECULE
ASD01840049
  43   45    0    0    0
SMALL
NO_CHARGES


@<TRIPOS>ATOM
   1 C1             0.2771     1.7749    -1.0321 C.ar    
   2 C2             0.4059     0.5586    -1.6662 C.ar    
   3 N3             1.5186    -0.1435    -1.5387 N.ar    
   4 N4             2.5121     0.2579    -0.8374 N.ar    
   5 C5             2.4992     1.4200    -0.1797 C.ar    
   6 C6             1.3627     2.2365    -0.2527 C.ar    
   7 S7             3.7224     2.1753     0.8321 S.3     
   8 C8             2.7110     3.5713     1.1488 C.2     
   9 C9             1.5095     3.4580     0.5163 C.2     
  10 C10           -0.9815     2.5922    -1.1702 C.3     
  11 N11            0.5200     4.4224     0.5975 N.pl3   
  12 C12            3.0889     4.6632     1.9521 C.2     
  13 C13            4.4458     4.6827     2.6075 C.3     
  14 O14            2.3210     5.5904     2.1173 O.2     
  15 C15            4.6023     5.9710     3.4179 C.3     
  16 C16            5.9592     5.9904     4.0732 C.ar    
  17 C17            7.3697     5.4616     5.9361 C.ar    
  18 C18            6.1250     5.4448     5.3327 C.ar    
  19 C19            7.0371     6.5489     3.4115 C.ar    
  20 C20            8.2827     6.5685     4.0094 C.ar    
  21 C21            8.4523     6.0274     5.2747 C.ar    
  22 C22           -0.7255     0.0266    -2.5076 C.3     
  23 O23            9.6769     6.0461     5.8649 O.3     
  24 F24            7.5321     4.9285     7.1668 F       
  25 C25           10.7441     6.6441     5.1262 C.3     
  26 H26           -1.6358     2.3982    -0.3202 H       
  27 H27           -0.7257     3.6514    -1.1975 H       
  28 H28           -1.4933     2.3181    -2.0926 H       
  29 H29           -0.4008     4.1903     0.3994 H       
  30 H30            0.7473     5.3303     0.8524 H       
  31 H31            4.5415     3.8226     3.2702 H       
  32 H32            5.2199     4.6390     1.8414 H       
  33 H33            4.5065     6.8310     2.7551 H       
  34 H34            3.8281     6.0146     4.1840 H       
  35 H35            5.2823     5.0055     5.8458 H       
  36 H36            6.9054     6.9701     2.4258 H       
  37 H37            9.1239     7.0047     3.4911 H       
  38 H38           -0.6067     0.3699    -3.5353 H       
  39 H39           -0.7141    -1.0631    -2.4849 H       
  40 H40           -1.6743     0.3883    -2.1112 H       
  41 H41           10.8800     6.1089     4.1864 H       
  42 H42           10.5029     7.6867     4.9190 H       
  43 H43           11.6633     6.5928     5.7097 H       
@<TRIPOS>BOND
   1    1    2 ar
   2    1    6 ar
   3    1   10 1
   4    2    3 ar
   5    2   22 1
   6    3    4 ar
   7    4    5 ar
   8    5    7 1
   9    5    6 ar
  10    6    9 1
  11    7    8 1
  12    8    9 2
  13    8   12 1
  14    9   11 1
  15   10   26 1
  16   10   27 1
  17   10   28 1
  18   11   29 1
  19   11   30 1
  20   12   13 1
  21   12   14 2
  22   13   15 1
  23   13   31 1
  24   13   32 1
  25   15   16 1
  26   15   33 1
  27   15   34 1
  28   16   19 ar
  29   16   18 ar
  30   17   18 ar
  31   17   21 ar
  32   17   24 1
  33   18   35 1
  34   19   20 ar
  35   19   36 1
  36   20   21 ar
  37   20   37 1
  38   21   23 1
  39   22   38 1
  40   22   39 1
  41   22   40 1
  42   23   25 1
  43   25   41 1
  44   25   42 1
  45   25   43 1

#	End of record

