#	Name: ASD02039315
#	Creating user name:	WinNT
#	Creation time:	15. 06. 2019 20:18

#	Modifying user name:	WinNT
#	Modification time:	15. 06. 2019 20:18

#	Program:	/corina/corina34_cracker 3.40 0067  02.08.2006

@<TRIPOS>MOLECULE
ASD02039315
  46   48    0    0    0
SMALL
NO_CHARGES


@<TRIPOS>ATOM
   1 C1             0.1360     1.1854    -0.3157 C.ar    
   2 C2             0.5182    -0.0927     0.0508 C.ar    
   3 C3            -0.3854    -1.1371    -0.0166 C.ar    
   4 C4            -1.6779    -0.9087    -0.4515 C.ar    
   5 C5            -2.0681     0.3797    -0.8224 C.ar    
   6 C6            -1.1526     1.4277    -0.7460 C.ar    
   7 C7            -3.4519     0.6328    -1.2897 C.ar    
   8 C8             1.1279     2.3174    -0.2388 C.3     
   9 N9             1.9438     2.3351    -1.4554 N.am    
  10 C10            1.4500     3.0091    -2.6588 C.3     
  11 C11            3.1488     1.7315    -1.4676 C.2     
  12 C12            3.6007     0.9652    -0.2933 C.2     
  13 C13            4.7336     0.2098    -0.2106 C.2     
  14 C14            2.4327     4.1083    -3.0674 C.3     
  15 N15            2.9686     0.8869     0.9056 N.2     
  16 C16            3.6616     0.1208     1.6976 C.2     
  17 N17            4.7644    -0.3171     1.0361 N.pl3   
  18 O18            3.8631     1.8193    -2.4481 O.2     
  19 C19            5.8007    -1.2014     1.5749 C.3     
  20 C20            1.3199     1.9930    -3.7953 C.3     
  21 N21           -4.3098    -0.3769    -1.3501 N.ar    
  22 N22           -3.8046     1.8645    -1.6323 N.ar    
  23 C23           -5.0307     2.1240    -2.0526 C.ar    
  24 C24           -5.9515     1.0900    -2.1328 C.ar    
  25 C25           -5.5511    -0.1850    -1.7619 C.ar    
  26 F26           -2.5606    -1.9292    -0.5178 F       
  27 H27            1.5269    -0.2756     0.3907 H       
  28 H28           -0.0811    -2.1328     0.2705 H       
  29 H29           -1.4487     2.4264    -1.0312 H       
  30 H30            0.5937     3.2629    -0.1458 H       
  31 H31            1.7725     2.1773     0.6289 H       
  32 H32            0.4751     3.4513    -2.4534 H       
  33 H33            5.4657     0.0603    -0.9904 H       
  34 H34            3.4234     3.6760    -3.2080 H       
  35 H35            2.1000     4.5650    -3.9995 H       
  36 H36            2.4748     4.8669    -2.2858 H       
  37 H37            3.4031    -0.1246     2.7171 H       
  38 H38            5.5326    -2.2389     1.3755 H       
  39 H39            6.7549    -0.9749     1.0994 H       
  40 H40            5.8855    -1.0484     2.6508 H       
  41 H41            0.5858     1.2349    -3.5227 H       
  42 H42            0.9961     2.5026    -4.7029 H       
  43 H43            2.2852     1.5178    -3.9701 H       
  44 H44           -5.3121     3.1292    -2.3299 H       
  45 H45           -6.9599     1.2745    -2.4729 H       
  46 H46           -6.2440    -1.0119    -1.8130 H       
@<TRIPOS>BOND
   1    1    2 ar
   2    1    8 1
   3    1    6 ar
   4    2    3 ar
   5    2   27 1
   6    3    4 ar
   7    3   28 1
   8    4    5 ar
   9    4   26 1
  10    5    6 ar
  11    5    7 1
  12    6   29 1
  13    7   21 ar
  14    7   22 ar
  15    8    9 1
  16    8   30 1
  17    8   31 1
  18    9   10 1
  19    9   11 am
  20   10   20 1
  21   10   14 1
  22   10   32 1
  23   11   12 1
  24   11   18 2
  25   12   13 2
  26   12   15 1
  27   13   17 1
  28   13   33 1
  29   14   34 1
  30   14   35 1
  31   14   36 1
  32   15   16 2
  33   16   17 1
  34   16   37 1
  35   17   19 1
  36   19   38 1
  37   19   39 1
  38   19   40 1
  39   20   41 1
  40   20   42 1
  41   20   43 1
  42   21   25 ar
  43   22   23 ar
  44   23   24 ar
  45   23   44 1
  46   24   25 ar
  47   24   45 1
  48   25   46 1

#	End of record

