#	Name: ASD01200137
#	Creating user name:	WinNT
#	Creation time:	15. 06. 2019 19:08

#	Modifying user name:	WinNT
#	Modification time:	15. 06. 2019 19:08

#	Program:	/corina/corina34_cracker 3.40 0067  02.08.2006

@<TRIPOS>MOLECULE
ASD01200137
  53   56    0    0    0
SMALL
NO_CHARGES


@<TRIPOS>ATOM
   1 C1             0.0951     1.6121     0.1196 C.ar    
   2 C2             0.0283     0.2303     0.1331 C.ar    
   3 C3             1.1893    -0.5236     0.0850 C.ar    
   4 C4             2.4125     0.1021     0.0235 C.ar    
   5 C5             2.4915     1.4969     0.0093 C.ar    
   6 C6             1.3172     2.2498     0.0581 C.ar    
   7 C7             3.8312    -0.4061    -0.0385 C.3     
   8 N8             4.6912     0.7818    -0.0873 N.am    
   9 C9             3.9150     1.8789    -0.0596 C.2     
  10 O10            4.3269     3.0221    -0.0870 O.2     
  11 O11            4.1272    -1.1791     1.1264 O.3     
  12 C12            6.1546     0.7734    -0.1551 C.3     
  13 C13            6.5901     0.6359    -1.5913 C.ar    
  14 C14            3.9183    -0.4810     2.3557 C.3     
  15 C15            4.1435    -1.4212     3.5118 C.2     
  16 N16            4.0016    -0.9794     4.7771 N.am    
  17 O17            4.4524    -2.5752     3.3035 O.2     
  18 C18            4.3114    -1.8146     5.8434 C.ar    
  19 N19            4.8511    -3.0019     5.6077 N.ar    
  20 C20            5.1616    -3.8264     6.5861 C.ar    
  21 C21            4.9281    -3.4686     7.9154 C.ar    
  22 C22            4.3575    -2.2170     8.1934 C.ar    
  23 C23            4.0555    -1.3897     7.1449 C.ar    
  24 C24            5.2756    -4.3925     9.0110 C.2     
  25 O25            5.0686    -4.0721    10.1646 O.2     
  26 O26            5.8227    -5.5921     8.7328 O.3     
  27 C27            6.1391    -6.4499     9.8608 C.3     
  28 C28            6.7914     1.7645    -2.3636 C.ar    
  29 C29            7.1909     1.6384    -3.6809 C.ar    
  30 C30            7.3895     0.3836    -4.2258 C.ar    
  31 C31            7.1891    -0.7451    -3.4532 C.ar    
  32 C32            6.7938    -0.6188    -2.1346 C.ar    
  33 H33           -0.8138     2.1944     0.1528 H       
  34 H34           -0.9318    -0.2619     0.1817 H       
  35 H35            1.1340    -1.6022     0.0960 H       
  36 H36            1.3649     3.3287     0.0474 H       
  37 H37            3.9742    -1.0092    -0.9351 H       
  38 H38            6.5426     1.7060     0.2545 H       
  39 H39            6.5404    -0.0659     0.4235 H       
  40 H40            4.6176     0.3524     2.4236 H       
  41 H41            2.8969    -0.1020     2.3893 H       
  42 H42            3.6831    -0.0784     4.9434 H       
  43 H43            5.5999    -4.7869     6.3588 H       
  44 H44            4.1648    -1.9116     9.2113 H       
  45 H45            3.6156    -0.4200     7.3250 H       
  46 H46            6.5724    -7.3820     9.4981 H       
  47 H47            6.8538    -5.9458    10.5114 H       
  48 H48            5.2285    -6.6658    10.4197 H       
  49 H49            6.6362     2.7449    -1.9379 H       
  50 H50            7.3474     2.5202    -4.2846 H       
  51 H51            7.7009     0.2850    -5.2552 H       
  52 H52            7.3440    -1.7254    -3.8790 H       
  53 H53            6.6373    -1.5005    -1.5310 H       
@<TRIPOS>BOND
   1    1    2 ar
   2    1    6 ar
   3    1   33 1
   4    2    3 ar
   5    2   34 1
   6    3    4 ar
   7    3   35 1
   8    4    5 ar
   9    4    7 1
  10    5    6 ar
  11    5    9 1
  12    6   36 1
  13    7    8 1
  14    7   11 1
  15    7   37 1
  16    8    9 am
  17    8   12 1
  18    9   10 2
  19   11   14 1
  20   12   13 1
  21   12   38 1
  22   12   39 1
  23   13   28 ar
  24   13   32 ar
  25   14   15 1
  26   14   40 1
  27   14   41 1
  28   15   16 am
  29   15   17 2
  30   16   18 1
  31   16   42 1
  32   18   19 ar
  33   18   23 ar
  34   19   20 ar
  35   20   21 ar
  36   20   43 1
  37   21   22 ar
  38   21   24 1
  39   22   23 ar
  40   22   44 1
  41   23   45 1
  42   24   25 2
  43   24   26 1
  44   26   27 1
  45   27   46 1
  46   27   47 1
  47   27   48 1
  48   28   29 ar
  49   28   49 1
  50   29   30 ar
  51   29   50 1
  52   30   31 ar
  53   30   51 1
  54   31   32 ar
  55   31   52 1
  56   32   53 1

#	End of record

