#	Name: ASD01900199
#	Creating user name:	WinNT
#	Creation time:	15. 06. 2019 19:51

#	Modifying user name:	WinNT
#	Modification time:	15. 06. 2019 19:51

#	Program:	/corina/corina34_cracker 3.40 0067  02.08.2006

@<TRIPOS>MOLECULE
ASD01900199
  41   44    0    0    0
SMALL
NO_CHARGES


@<TRIPOS>ATOM
   1 C1            -0.0169     1.3858    -0.0023 C.ar    
   2 C2             0.5996     1.1179    -1.2188 C.ar    
   3 C3             1.8151     0.4536    -1.2301 C.ar    
   4 C4             2.3764     0.0776    -0.0205 C.ar    
   5 C5             1.7076     0.3760     1.1607 C.ar    
   6 N6             0.5461     1.0128     1.1375 N.ar    
   7 N7            -1.2351     2.0576     0.0190 N.pl3   
   8 N8             2.2631     0.0026     2.3789 N.pl3   
   9 S9            -4.0339     2.0399     0.1574 S.3     
  10 C10           -2.4225     1.3407     0.0207 C.2     
  11 N11           -2.5199     0.0495    -0.0782 N.2     
  12 C12           -3.7365    -0.4661    -0.0748 C.2     
  13 C13           -4.1340    -1.8929    -0.3180 C.2     
  14 C14           -5.2295    -2.1756    -1.1592 C.2     
  15 C15           -5.9545    -1.1197    -1.9369 C.3     
  16 C16           -6.8934    -0.2745    -1.0587 C.3     
  17 C17           -6.1734     0.0426     0.2614 C.3     
  18 C18           -4.7378     0.4318     0.0960 C.2     
  19 N19           -5.4109    -3.4642    -1.1423 N.2     
  20 N20           -4.4147    -4.0428    -0.3394 N.pl3   
  21 C21           -3.6323    -3.0482     0.1486 C.2     
  22 C22           -1.2636     3.5222     0.0397 C.3     
  23 C23            3.5472    -0.7018     2.4132 C.3     
  24 H24            0.1360     1.4240    -2.1449 H       
  25 H25            2.3145     0.2332    -2.1620 H       
  26 H26            3.3229    -0.4420     0.0042 H       
  27 H27            1.8006     0.2085     3.2063 H       
  28 H28           -5.2220    -0.4614    -2.4039 H       
  29 H29           -6.5421    -1.6001    -2.7192 H       
  30 H30           -7.1392     0.6541    -1.5739 H       
  31 H31           -7.8054    -0.8349    -0.8529 H       
  32 H32           -6.6994     0.8590     0.7561 H       
  33 H33           -6.2226    -0.8369     0.9034 H       
  34 H34           -4.3052    -4.9904    -0.1638 H       
  35 H35           -2.7710    -3.1631     0.7899 H       
  36 H36           -1.2807     3.8997    -0.9827 H       
  37 H37           -2.1554     3.8608     0.5671 H       
  38 H38           -0.3758     3.8957     0.5501 H       
  39 H39            3.4619    -1.6395     1.8642 H       
  40 H40            4.3151    -0.0799     1.9531 H       
  41 H41            3.8198    -0.9100     3.4478 H       
@<TRIPOS>BOND
   1    1    2 ar
   2    1    6 ar
   3    1    7 1
   4    2    3 ar
   5    2   24 1
   6    3    4 ar
   7    3   25 1
   8    4    5 ar
   9    4   26 1
  10    5    6 ar
  11    5    8 1
  12    7   10 1
  13    7   22 1
  14    8   23 1
  15    8   27 1
  16    9   10 1
  17    9   18 1
  18   10   11 2
  19   11   12 1
  20   12   13 1
  21   12   18 2
  22   13   14 1
  23   13   21 2
  24   14   15 1
  25   14   19 2
  26   15   16 1
  27   15   28 1
  28   15   29 1
  29   16   17 1
  30   16   30 1
  31   16   31 1
  32   17   18 1
  33   17   32 1
  34   17   33 1
  35   19   20 1
  36   20   21 1
  37   20   34 1
  38   21   35 1
  39   22   36 1
  40   22   37 1
  41   22   38 1
  42   23   39 1
  43   23   40 1
  44   23   41 1

#	End of record

