#	Name: ASD05430315
#	Creating user name:	WinNT
#	Creation time:	15. 06. 2019 21:00

#	Modifying user name:	WinNT
#	Modification time:	15. 06. 2019 21:00

#	Program:	/corina/corina34_cracker 3.40 0067  02.08.2006

@<TRIPOS>MOLECULE
ASD05430315
  56   60    0    0    0
SMALL
NO_CHARGES


@<TRIPOS>ATOM
   1 N1            -0.1766     1.7848     0.1056 N.pl3   
   2 C2            -0.5044     0.3676     0.2825 C.3     
   3 C3             0.3254    -0.4182    -0.7462 C.3     
   4 N4             1.7316    -0.0062    -0.6660 N.3     
   5 C5             1.9241     1.4052    -1.0326 C.3     
   6 C6             1.2125     2.2819     0.0027 C.3     
   7 O7             1.0583     3.6231    -0.4735 O.3     
   8 N8            -0.3228     3.9276    -0.3725 N.2     
   9 C9            -1.0055     2.8725    -0.0339 C.2     
  10 C10            1.9145     2.2331     1.3353 C.ar    
  11 C11            3.1469     2.8403     1.4894 C.ar    
  12 C12            1.3231     1.5860     2.4043 C.ar    
  13 C13            1.9655     1.5413     3.6270 C.ar    
  14 C14            3.2022     2.1446     3.7811 C.ar    
  15 C15            3.7914     2.7965     2.7111 C.ar    
  16 F16            3.8312     2.1015     4.9760 F       
  17 C17           -2.4593     2.8474     0.1701 C.2     
  18 C18           -3.1811     3.9715     0.0072 C.2     
  19 C19           -4.6388     3.9463     0.2117 C.ar    
  20 C20           -5.2751     2.7550     0.5752 C.ar    
  21 C21           -5.3895     5.1144     0.0486 C.ar    
  22 C22           -6.7577     5.0852     0.2422 C.ar    
  23 C23           -7.3861     3.8927     0.5994 C.ar    
  24 C24           -6.6395     2.7334     0.7666 C.ar    
  25 N25           -8.7734     3.8651     0.7958 N.pl3   
  26 C26           -9.4969     4.7181     1.5665 C.2     
  27 N27          -10.7544     4.3747     1.4986 N.2     
  28 C28          -10.8809     3.3076     0.6959 C.2     
  29 C29           -9.6574     2.9757     0.2417 C.2     
  30 O30           -7.4908     6.2193     0.0850 O.3     
  31 C31           -6.7816     7.4047    -0.2811 C.3     
  32 C32          -12.1701     2.6047     0.3569 C.3     
  33 H33           -0.2440     0.0489     1.2918 H       
  34 H34           -1.5675     0.2067     0.1035 H       
  35 H35            0.2476    -1.4850    -0.5362 H       
  36 H36           -0.0547    -0.2179    -1.7479 H       
  37 H37            2.1129    -0.1975     0.2483 H       
  38 H38            2.9886     1.6392    -1.0403 H       
  39 H39            1.4999     1.5877    -2.0200 H       
  40 H40            3.6063     3.3487     0.6547 H       
  41 H41            0.3584     1.1155     2.2838 H       
  42 H42            1.5030     1.0363     4.4622 H       
  43 H43            4.7562     3.2671     2.8300 H       
  44 H44           -2.9493     1.9268     0.4507 H       
  45 H45           -2.6911     4.8920    -0.2735 H       
  46 H46           -4.6972     1.8520     0.7055 H       
  47 H47           -4.9015     6.0373    -0.2277 H       
  48 H48           -7.1301     1.8118     1.0429 H       
  49 H49           -9.0984     5.5420     2.1398 H       
  50 H50           -9.4176     2.1611    -0.4256 H       
  51 H51           -6.0428     7.6375     0.4857 H       
  52 H52           -6.2780     7.2469    -1.2348 H       
  53 H53           -7.4831     8.2338    -0.3735 H       
  54 H54          -12.6077     3.0576    -0.5328 H       
  55 H55          -11.9699     1.5503     0.1668 H       
  56 H56          -12.8651     2.6980     1.1914 H       
@<TRIPOS>BOND
   1    1    2 1
   2    1    6 1
   3    1    9 1
   4    2    3 1
   5    2   33 1
   6    2   34 1
   7    3    4 1
   8    3   35 1
   9    3   36 1
  10    4    5 1
  11    4   37 1
  12    5    6 1
  13    5   38 1
  14    5   39 1
  15    6    7 1
  16    6   10 1
  17    7    8 1
  18    8    9 2
  19    9   17 1
  20   10   11 ar
  21   10   12 ar
  22   11   15 ar
  23   11   40 1
  24   12   13 ar
  25   12   41 1
  26   13   14 ar
  27   13   42 1
  28   14   15 ar
  29   14   16 1
  30   15   43 1
  31   17   18 2
  32   17   44 1
  33   18   19 1
  34   18   45 1
  35   19   20 ar
  36   19   21 ar
  37   20   24 ar
  38   20   46 1
  39   21   22 ar
  40   21   47 1
  41   22   23 ar
  42   22   30 1
  43   23   24 ar
  44   23   25 1
  45   24   48 1
  46   25   26 1
  47   25   29 1
  48   26   27 2
  49   26   49 1
  50   27   28 1
  51   28   29 2
  52   28   32 1
  53   29   50 1
  54   30   31 1
  55   31   51 1
  56   31   52 1
  57   31   53 1
  58   32   54 1
  59   32   55 1
  60   32   56 1

#	End of record

