#	Name: ASD00461050
#	Creating user name:	WinNT
#	Creation time:	15. 06. 2019 18:36

#	Modifying user name:	WinNT
#	Modification time:	15. 06. 2019 18:36

#	Program:	/corina/corina34_cracker 3.40 0067  02.08.2006

@<TRIPOS>MOLECULE
ASD00461050
  75   78    0    0    0
SMALL
NO_CHARGES


@<TRIPOS>ATOM
   1 C1            -0.0520     1.3401     0.0385 C.ar    
   2 C2             0.0011    -0.0368     0.1096 C.ar    
   3 C3             1.2339    -0.6870     0.0716 C.ar    
   4 C4             2.4062     0.0591    -0.0380 C.ar    
   5 C5             2.3407     1.4359    -0.1084 C.ar    
   6 C6             1.1149     2.0755    -0.0702 C.ar    
   7 C7             3.7426    -0.6362    -0.0792 C.3     
   8 O8             4.6858     0.1851    -0.7705 O.3     
   9 C9             5.7036    -0.5484    -1.4547 C.3     
  10 C10            6.6516     0.4270    -2.1552 C.3     
  11 C11            7.8104    -0.3501    -2.7830 C.3     
  12 N12            8.7818     0.5938    -3.3517 N.3     
  13 C13            9.9110    -0.1184    -3.9646 C.3     
  14 O14            5.9416     1.1309    -3.1763 O.3     
  15 C15           10.8992     0.8956    -4.5445 C.3     
  16 C16           10.6149    -0.9672    -2.9039 C.3     
  17 C17            9.3952    -1.0252    -5.0837 C.3     
  18 C18           12.0576     0.1650    -5.1733 C.ar    
  19 C19           11.9932    -0.1958    -6.5175 C.ar    
  20 C20           13.0218    -0.8568    -7.1159 C.ar    
  21 C21           14.1673    -1.1811    -6.3699 C.ar    
  22 C22           14.2331    -0.8136    -5.0025 C.ar    
  23 C23           13.1536    -0.1276    -4.4209 C.ar    
  24 C24           15.2491    -1.8633    -6.9528 C.ar    
  25 C25           16.3423    -2.1610    -6.1989 C.ar    
  26 C26           16.4071    -1.7995    -4.8543 C.ar    
  27 C27           15.3789    -1.1383    -4.2561 C.ar    
  28 C28            1.2977    -2.1664     0.1481 C.ar    
  29 C29            1.6904    -2.9055    -0.9679 C.ar    
  30 C30            1.7501    -4.2792    -0.8982 C.ar    
  31 C31            1.4175    -4.9329     0.2913 C.ar    
  32 C32            1.0247    -4.1910     1.4089 C.ar    
  33 C33            0.9705    -2.8176     1.3380 C.ar    
  34 C34            2.0489    -2.2002    -2.2504 C.3     
  35 C35            4.2326    -0.8843     1.3488 C.3     
  36 C36            1.4806    -6.4055     0.3672 C.2     
  37 O37            1.8217    -7.0499    -0.6046 O.2     
  38 O38            1.1598    -7.0353     1.5144 O.3     
  39 H39           -1.0067     1.8446     0.0633 H       
  40 H40           -0.9103    -0.6098     0.1948 H       
  41 H41            3.2483     2.0151    -0.1930 H       
  42 H42            1.0684     3.1530    -0.1259 H       
  43 H43            3.6406    -1.5888    -0.5990 H       
  44 H44            6.2640    -1.1478    -0.7373 H       
  45 H45            5.2440    -1.2033    -2.1950 H       
  46 H46            7.0429     1.1387    -1.4283 H       
  47 H47            8.2972    -0.9564    -2.0192 H       
  48 H48            7.4283    -0.9978    -3.5721 H       
  49 H49            8.3398     1.2109    -4.0164 H       
  50 H50            5.5649     0.5591    -3.8591 H       
  51 H51           10.3978     1.5003    -5.3001 H       
  52 H52           11.2667     1.5416    -3.7472 H       
  53 H53            9.9109    -1.6896    -2.4908 H       
  54 H54           11.4527    -1.4957    -3.3587 H       
  55 H55           10.9824    -0.3212    -2.1067 H       
  56 H56            8.8937    -0.4205    -5.8393 H       
  57 H57           10.2330    -1.5537    -5.5385 H       
  58 H58            8.6912    -1.7476    -4.6706 H       
  59 H59           11.1137     0.0523    -7.0933 H       
  60 H60           12.9576    -1.1307    -8.1587 H       
  61 H61           13.1898     0.1587    -3.3801 H       
  62 H62           15.2129    -2.1500    -7.9934 H       
  63 H63           17.1721    -2.6856    -6.6492 H       
  64 H64           17.2864    -2.0479    -4.2785 H       
  65 H65           15.4433    -0.8643    -3.2135 H       
  66 H66            2.0534    -4.8512    -1.7626 H       
  67 H67            0.7674    -4.6950     2.3287 H       
  68 H68            0.6674    -2.2441     2.2015 H       
  69 H69            3.1283    -2.0556    -2.2961 H       
  70 H70            1.7269    -2.8035    -3.0992 H       
  71 H71            1.5508    -1.2312    -2.2836 H       
  72 H72            3.4728    -1.4354     1.9031 H       
  73 H73            5.1546    -1.4650     1.3209 H       
  74 H74            4.4194     0.0707     1.8399 H       
  75 H75            1.2162    -8.0006     1.5159 H       
@<TRIPOS>BOND
   1    1    2 ar
   2    1    6 ar
   3    1   39 1
   4    2    3 ar
   5    2   40 1
   6    3    4 ar
   7    3   28 1
   8    4    5 ar
   9    4    7 1
  10    5    6 ar
  11    5   41 1
  12    6   42 1
  13    7    8 1
  14    7   35 1
  15    7   43 1
  16    8    9 1
  17    9   10 1
  18    9   44 1
  19    9   45 1
  20   10   11 1
  21   10   14 1
  22   10   46 1
  23   11   12 1
  24   11   47 1
  25   11   48 1
  26   12   13 1
  27   12   49 1
  28   13   15 1
  29   13   16 1
  30   13   17 1
  31   14   50 1
  32   15   18 1
  33   15   51 1
  34   15   52 1
  35   16   53 1
  36   16   54 1
  37   16   55 1
  38   17   56 1
  39   17   57 1
  40   17   58 1
  41   18   19 ar
  42   18   23 ar
  43   19   20 ar
  44   19   59 1
  45   20   21 ar
  46   20   60 1
  47   21   22 ar
  48   21   24 ar
  49   22   23 ar
  50   22   27 ar
  51   23   61 1
  52   24   25 ar
  53   24   62 1
  54   25   26 ar
  55   25   63 1
  56   26   27 ar
  57   26   64 1
  58   27   65 1
  59   28   29 ar
  60   28   33 ar
  61   29   30 ar
  62   29   34 1
  63   30   31 ar
  64   30   66 1
  65   31   32 ar
  66   31   36 1
  67   32   33 ar
  68   32   67 1
  69   33   68 1
  70   34   69 1
  71   34   70 1
  72   34   71 1
  73   35   72 1
  74   35   73 1
  75   35   74 1
  76   36   37 2
  77   36   38 1
  78   38   75 1

#	End of record

