#	Name: ASD00170439
#	Creating user name:	WinNT
#	Creation time:	15. 06. 2019 18:32

#	Modifying user name:	WinNT
#	Modification time:	15. 06. 2019 18:32

#	Program:	/corina/corina34_cracker 3.40 0067  02.08.2006

@<TRIPOS>MOLECULE
ASD00170439
  62   64    0    0    0
SMALL
NO_CHARGES


@<TRIPOS>ATOM
   1 C1            -0.1339     1.8084     0.1302 C.2     
   2 C2             0.1284     0.4905    -0.1748 C.2     
   3 C3            -0.9814    -0.3839     0.1207 C.2     
   4 C4            -2.0366     0.2639     0.6299 C.2     
   5 S5            -1.7030     1.9805     0.7722 S.3     
   6 C6            -0.9554    -1.8714    -0.1197 C.3     
   7 N7             0.7546     2.8459    -0.0536 N.pl3   
   8 C8             1.3970     0.0267    -0.7385 C.2     
   9 C9             1.5281    -0.1747    -2.1974 C.ar    
  10 O10            2.3445    -0.1932    -0.0059 O.2     
  11 C11            2.6987    -0.7212    -2.7270 C.ar    
  12 C12            2.8150    -0.9072    -4.0884 C.ar    
  13 C13            1.7734    -0.5530    -4.9300 C.ar    
  14 C14            0.6097    -0.0104    -4.4105 C.ar    
  15 C15            0.4797     0.1754    -3.0503 C.ar    
  16 Cl16           1.9273    -0.7895    -6.6429 Cl      
  17 C17           -3.3072    -0.3798     1.0234 C.ar    
  18 C18           -3.3055    -1.4311     1.9420 C.ar    
  19 C19           -4.4952    -2.0276     2.3050 C.ar    
  20 C20           -5.6884    -1.5863     1.7608 C.ar    
  21 C21           -5.6971    -0.5452     0.8495 C.ar    
  22 C22           -4.5152     0.0643     0.4826 C.ar    
  23 N23           -0.6383    -2.5649     1.1358 N.3     
  24 C24           -0.8351    -4.0144     1.0009 C.3     
  25 C25            0.7292    -2.2580     1.5759 C.3     
  26 C26           -2.3319    -4.3302     1.0243 C.3     
  27 C27           -2.5345    -5.8454     0.9598 C.3     
  28 C28           -4.0314    -6.1612     0.9832 C.3     
  29 C29            0.9093    -2.7027     3.0287 C.3     
  30 C30            2.3353    -2.3878     3.4854 C.3     
  31 C31            2.5154    -2.8325     4.9382 C.3     
  32 H32           -1.9311    -2.1985    -0.4791 H       
  33 H33           -0.1961    -2.1056    -0.8659 H       
  34 H34            1.6594     2.6626    -0.3512 H       
  35 H35            0.4750     3.7593     0.1148 H       
  36 H36            3.5116    -0.9974    -2.0718 H       
  37 H37            3.7201    -1.3295    -4.4993 H       
  38 H38           -0.1990     0.2642    -5.0716 H       
  39 H39           -0.4283     0.5982    -2.6462 H       
  40 H40           -2.3749    -1.7768     2.3673 H       
  41 H41           -4.4953    -2.8412     3.0153 H       
  42 H42           -6.6170    -2.0568     2.0484 H       
  43 H43           -6.6318    -0.2057     0.4283 H       
  44 H44           -4.5234     0.8769    -0.2288 H       
  45 H45           -0.4070    -4.3529     0.0573 H       
  46 H46           -0.3427    -4.5264     1.8276 H       
  47 H47            1.4419    -2.7869     0.9431 H       
  48 H48            0.9030    -1.1846     1.5003 H       
  49 H49           -2.7704    -3.9439     1.9444 H       
  50 H50           -2.8155    -3.8622     0.1668 H       
  51 H51           -2.0960    -6.2318     0.0397 H       
  52 H52           -2.0510    -6.3134     1.8172 H       
  53 H53           -4.1757    -7.2407     0.9373 H       
  54 H54           -4.4699    -5.7749     1.9033 H       
  55 H55           -4.5149    -5.6932     0.1258 H       
  56 H56            0.1993    -2.1710     3.6621 H       
  57 H57            0.7319    -3.7754     3.1050 H       
  58 H58            3.0454    -2.9195     2.8520 H       
  59 H59            2.5127    -1.3151     3.4091 H       
  60 H60            1.8053    -2.3008     5.5716 H       
  61 H61            2.3379    -3.9053     5.0145 H       
  62 H62            3.5312    -2.6082     5.2636 H       
@<TRIPOS>BOND
   1    1    2 2
   2    1    7 1
   3    1    5 1
   4    2    3 1
   5    2    8 1
   6    3    4 2
   7    3    6 1
   8    4    5 1
   9    4   17 1
  10    6   23 1
  11    6   32 1
  12    6   33 1
  13    7   34 1
  14    7   35 1
  15    8    9 1
  16    8   10 2
  17    9   11 ar
  18    9   15 ar
  19   11   12 ar
  20   11   36 1
  21   12   13 ar
  22   12   37 1
  23   13   14 ar
  24   13   16 1
  25   14   15 ar
  26   14   38 1
  27   15   39 1
  28   17   18 ar
  29   17   22 ar
  30   18   19 ar
  31   18   40 1
  32   19   20 ar
  33   19   41 1
  34   20   21 ar
  35   20   42 1
  36   21   22 ar
  37   21   43 1
  38   22   44 1
  39   23   24 1
  40   23   25 1
  41   24   26 1
  42   24   45 1
  43   24   46 1
  44   25   29 1
  45   25   47 1
  46   25   48 1
  47   26   27 1
  48   26   49 1
  49   26   50 1
  50   27   28 1
  51   27   51 1
  52   27   52 1
  53   28   53 1
  54   28   54 1
  55   28   55 1
  56   29   30 1
  57   29   56 1
  58   29   57 1
  59   30   31 1
  60   30   58 1
  61   30   59 1
  62   31   60 1
  63   31   61 1
  64   31   62 1

#	End of record

