#	Name: ASD01884682
#	Creating user name:	WinNT
#	Creation time:	15. 06. 2019 19:48

#	Modifying user name:	WinNT
#	Modification time:	15. 06. 2019 19:48

#	Program:	/corina/corina34_cracker 3.40 0067  02.08.2006

@<TRIPOS>MOLECULE
ASD01884682
  37   40    0    0    0
SMALL
NO_CHARGES


@<TRIPOS>ATOM
   1 C1            -0.0164     1.3575     0.0095 C.2     
   2 C2             0.0021    -0.0041     0.0020 C.2     
   3 C3             1.2441    -0.6750    -0.0134 C.2     
   4 C4             2.4025     0.0467    -0.0206 C.2     
   5 N5             2.3701     1.4022    -0.0130 N.am    
   6 C6             1.1988     2.0651     0.0017 C.2     
   7 O7             1.1913     3.2854     0.0083 O.2     
   8 C8             1.2900    -2.1582    -0.0214 C.ar    
   9 C9             3.6267     2.1552    -0.0205 C.3     
  10 C10            4.0446     2.4211    -1.4438 C.2     
  11 N11            3.7006     3.4552    -2.1137 N.2     
  12 C12            0.8131    -2.8784     1.0721 C.ar    
  13 C13            1.8048    -2.8360    -1.1246 C.ar    
  14 C14            1.8451    -4.2156    -1.1266 C.ar    
  15 C15            1.3756    -4.9253    -0.0361 C.ar    
  16 C16            0.8582    -4.2577     1.0594 C.ar    
  17 C17            4.1487     3.5627    -3.3791 C.ar    
  18 C18            4.9451     2.4713    -3.7429 C.ar    
  19 S19            5.0419     1.3839    -2.3613 S.3     
  20 C20            3.9276     4.5806    -4.3289 C.ar    
  21 C21            4.4801     4.4967    -5.5708 C.ar    
  22 C22            5.2691     3.4114    -5.9253 C.ar    
  23 C23            5.5021     2.4025    -5.0182 C.ar    
  24 H24           -0.9563     1.8894     0.0168 H       
  25 H25           -0.9217    -0.5636     0.0082 H       
  26 H26            3.3529    -0.4662    -0.0321 H       
  27 H27            3.4856     3.1026     0.4997 H       
  28 H28            4.4005     1.5758     0.4831 H       
  29 H29            0.4093    -2.3581     1.9281 H       
  30 H30            2.1713    -2.2828    -1.9767 H       
  31 H31            2.2436    -4.7419    -1.9813 H       
  32 H32            1.4090    -6.0048    -0.0418 H       
  33 H33            0.4934    -4.8168     1.9083 H       
  34 H34            3.3159     5.4322    -4.0702 H       
  35 H35            4.3018     5.2839    -6.2884 H       
  36 H36            5.7008     3.3583    -6.9138 H       
  37 H37            6.1162     1.5583    -5.2948 H       
@<TRIPOS>BOND
   1    1    2 2
   2    1    6 1
   3    1   24 1
   4    2    3 1
   5    2   25 1
   6    3    4 2
   7    3    8 1
   8    4    5 1
   9    4   26 1
  10    5    6 am
  11    5    9 1
  12    6    7 2
  13    8   12 ar
  14    8   13 ar
  15    9   10 1
  16    9   27 1
  17    9   28 1
  18   10   11 2
  19   10   19 1
  20   11   17 1
  21   12   16 ar
  22   12   29 1
  23   13   14 ar
  24   13   30 1
  25   14   15 ar
  26   14   31 1
  27   15   16 ar
  28   15   32 1
  29   16   33 1
  30   17   18 ar
  31   17   20 ar
  32   18   19 1
  33   18   23 ar
  34   20   21 ar
  35   20   34 1
  36   21   22 ar
  37   21   35 1
  38   22   23 ar
  39   22   36 1
  40   23   37 1

#	End of record

