#	Name: ASD03331011
#	Creating user name:	WinNT
#	Creation time:	15. 06. 2019 20:38

#	Modifying user name:	WinNT
#	Modification time:	15. 06. 2019 20:38

#	Program:	/corina/corina34_cracker 3.40 0067  02.08.2006

@<TRIPOS>MOLECULE
ASD03331011
  68   71    0    0    0
SMALL
NO_CHARGES


@<TRIPOS>ATOM
   1 N1            -0.8201     1.7204    -0.3876 N.pl3   
   2 C2            -0.6631     0.4006    -0.1015 C.2     
   3 C3             0.6358    -0.2700     0.2625 C.3     
   4 N4             1.3234     0.5337     1.2852 N.3     
   5 C5             2.1871     1.5449     0.6726 C.3     
   6 C6             1.5855     2.0584    -0.6324 C.3     
   7 C7             0.2394     2.7324    -0.3529 C.3     
   8 C8            -2.1346     1.9181    -0.6958 C.2     
   9 N9            -2.7671     0.7732    -0.5873 N.2     
  10 C10           -1.8874    -0.1838    -0.2190 C.2     
  11 C11           -2.1973    -1.6055     0.0138 C.2     
  12 O12           -1.3145    -2.3742     0.3438 O.2     
  13 N13           -3.4591    -2.0539    -0.1391 N.am    
  14 C14            2.0854    -0.3230     2.2035 C.3     
  15 C15           -4.9962    -3.8485    -0.6921 C.2     
  16 C16           -3.7672    -3.4673     0.0924 C.3     
  17 C17           -4.0226    -3.6961     1.5835 C.3     
  18 C18           -4.4356    -5.1513     1.8127 C.3     
  19 O19           -5.8392    -3.0132    -0.9421 O.2     
  20 O20           -5.0726    -7.2901    -2.7977 O.3     
  21 C21           -6.0188    -6.2589    -3.0894 C.3     
  22 C22           -6.3968    -5.5385    -1.7901 C.3     
  23 N23           -5.1585    -5.1176    -1.1157 N.am    
  24 C24           -4.1025    -6.1231    -0.9179 C.3     
  25 C25           -3.8363    -6.8150    -2.2597 C.3     
  26 C26           -2.7452    -3.3983     2.3712 C.3     
  27 C27           -5.1423    -2.7674     2.0575 C.3     
  28 C28           -2.7449     3.2074    -1.0864 C.ar    
  29 C29           -3.5961     3.2743    -2.1927 C.ar    
  30 C30           -4.1631     4.4822    -2.5525 C.ar    
  31 C31           -3.8898     5.6231    -1.8203 C.ar    
  32 C32           -3.0467     5.5634    -0.7224 C.ar    
  33 C33           -2.4779     4.3607    -0.3488 C.ar    
  34 F34           -2.7846     6.6825    -0.0123 F       
  35 F35           -3.8637     2.1606    -2.9092 F       
  36 H36            0.4337    -1.2659     0.6569 H       
  37 H37            1.2659    -0.3489    -0.6234 H       
  38 H38            2.3080     2.3789     1.3638 H       
  39 H39            3.1635     1.1057     0.4684 H       
  40 H40            2.2651     2.7803    -1.0854 H       
  41 H41            1.4373     1.2230    -1.3166 H       
  42 H42            0.0458     3.4890    -1.1134 H       
  43 H43            0.2638     3.2010     0.6309 H       
  44 H44           -4.1631    -1.4408    -0.4023 H       
  45 H45            2.7827    -0.9369     1.6335 H       
  46 H46            2.6396     0.2997     2.9058 H       
  47 H47            1.3991    -0.9676     2.7528 H       
  48 H48           -2.9256    -4.0802    -0.2304 H       
  49 H49           -3.6352    -5.8128     1.4812 H       
  50 H50           -4.6241    -5.3126     2.8741 H       
  51 H51           -5.3419    -5.3654     1.2462 H       
  52 H52           -5.5772    -5.5460    -3.7858 H       
  53 H53           -6.9112    -6.6988    -3.5346 H       
  54 H54           -7.0057    -4.6639    -2.0190 H       
  55 H55           -6.9548    -6.2159    -1.1437 H       
  56 H56           -3.1921    -5.6356    -0.5693 H       
  57 H57           -4.4295    -6.8594    -0.1837 H       
  58 H58           -3.1585    -7.6550    -2.1080 H       
  59 H59           -3.3868    -6.1041    -2.9530 H       
  60 H60           -2.4510    -2.3616     2.2079 H       
  61 H61           -2.9272    -3.5613     3.4335 H       
  62 H62           -1.9475    -4.0600     2.0335 H       
  63 H63           -6.0523    -2.9795     1.4963 H       
  64 H64           -5.3242    -2.9304     3.1198 H       
  65 H65           -4.8480    -1.7307     1.8942 H       
  66 H66           -4.8208     4.5354    -3.4075 H       
  67 H67           -4.3351     6.5647    -2.1058 H       
  68 H68           -1.8245     4.3147     0.5099 H       
@<TRIPOS>BOND
   1    1    2 1
   2    1    7 1
   3    1    8 1
   4    2    3 1
   5    2   10 2
   6    3    4 1
   7    3   36 1
   8    3   37 1
   9    4    5 1
  10    4   14 1
  11    5    6 1
  12    5   38 1
  13    5   39 1
  14    6    7 1
  15    6   40 1
  16    6   41 1
  17    7   42 1
  18    7   43 1
  19    8    9 2
  20    8   28 1
  21    9   10 1
  22   10   11 1
  23   11   12 2
  24   11   13 am
  25   13   16 1
  26   13   44 1
  27   14   45 1
  28   14   46 1
  29   14   47 1
  30   15   19 2
  31   15   23 am
  32   15   16 1
  33   16   17 1
  34   16   48 1
  35   17   18 1
  36   17   26 1
  37   17   27 1
  38   18   49 1
  39   18   50 1
  40   18   51 1
  41   20   21 1
  42   20   25 1
  43   21   22 1
  44   21   52 1
  45   21   53 1
  46   22   23 1
  47   22   54 1
  48   22   55 1
  49   23   24 1
  50   24   25 1
  51   24   56 1
  52   24   57 1
  53   25   58 1
  54   25   59 1
  55   26   60 1
  56   26   61 1
  57   26   62 1
  58   27   63 1
  59   27   64 1
  60   27   65 1
  61   28   29 ar
  62   28   33 ar
  63   29   30 ar
  64   29   35 1
  65   30   31 ar
  66   30   66 1
  67   31   32 ar
  68   31   67 1
  69   32   33 ar
  70   32   34 1
  71   33   68 1

#	End of record

