#	Name: ASD01948006
#	Creating user name:	WinNT
#	Creation time:	15. 06. 2019 20:13

#	Modifying user name:	WinNT
#	Modification time:	15. 06. 2019 20:13

#	Program:	/corina/corina34_cracker 3.40 0067  02.08.2006

@<TRIPOS>MOLECULE
ASD01948006
  43   44    0    0    0
SMALL
NO_CHARGES


@<TRIPOS>ATOM
   1 O1             0.0788     1.3706    -0.0055 O.3     
   2 C2             0.0789    -0.0582     0.0180 C.3     
   3 C3            -1.3631    -0.5688    -0.0099 C.3     
   4 C4            -1.3616    -2.0955    -0.1105 C.3     
   5 C5            -2.7987    -2.5978    -0.2638 C.3     
   6 O6            -2.7973    -4.0237    -0.3578 O.3     
   7 C7            -4.0013    -4.6328    -0.4987 C.ar    
   8 C8            -5.1598    -3.8775    -0.5457 C.ar    
   9 C9            -6.3920    -4.4963    -0.6890 C.ar    
  10 F10           -7.5167    -3.7492    -0.7333 F       
  11 C11           -6.4780    -5.8743    -0.7876 C.ar    
  12 C12           -5.3289    -6.6499    -0.7427 C.ar    
  13 C13           -4.0751    -6.0306    -0.6030 C.ar    
  14 C14           -2.8501    -6.8421    -0.5546 C.2     
  15 O15           -2.2586    -7.1125    -1.5828 O.2     
  16 N16           -2.3823    -7.2863     0.6287 N.am    
  17 N17           -5.4165    -8.0328    -0.8413 N.pl3   
  18 C18           -6.5243    -8.6211    -1.4610 C.ar    
  19 C19           -7.2707    -7.8994    -2.3822 C.ar    
  20 C20           -8.3642    -8.4830    -2.9931 C.ar    
  21 C21           -8.7162    -9.7852    -2.6882 C.ar    
  22 C22           -7.9752   -10.5087    -1.7704 C.ar    
  23 C23           -6.8770    -9.9328    -1.1594 C.ar    
  24 F24           -6.1531   -10.6391    -0.2637 F       
  25 I25          -10.3754   -10.6641    -3.6173 I       
  26 O26           -2.0325    -0.1711     1.1884 O.3     
  27 H27            0.9619     1.7643     0.0102 H       
  28 H28            0.6149    -0.4358    -0.8528 H       
  29 H29            0.5703    -0.4066     0.9264 H       
  30 H30           -1.8809    -0.1483    -0.8720 H       
  31 H31           -0.7753    -2.4019    -0.9768 H       
  32 H32           -0.9232    -2.5188     0.7932 H       
  33 H33           -3.3850    -2.2914     0.6024 H       
  34 H34           -3.2371    -2.1745    -1.1675 H       
  35 H35           -5.1038    -2.8016    -0.4700 H       
  36 H36           -7.4426    -6.3469    -0.8994 H       
  37 H37           -2.8538    -7.0707     1.4485 H       
  38 H38           -1.5740    -7.8217     0.6606 H       
  39 H39           -4.7097    -8.5906    -0.4805 H       
  40 H40           -6.9973    -6.8823    -2.6211 H       
  41 H41           -8.9450    -7.9213    -3.7096 H       
  42 H42           -8.2528   -11.5253    -1.5341 H       
  43 H43           -1.6253    -0.5100     1.9974 H       
@<TRIPOS>BOND
   1    1    2 1
   2    1   27 1
   3    2    3 1
   4    2   28 1
   5    2   29 1
   6    3    4 1
   7    3   26 1
   8    3   30 1
   9    4    5 1
  10    4   31 1
  11    4   32 1
  12    5    6 1
  13    5   33 1
  14    5   34 1
  15    6    7 1
  16    7    8 ar
  17    7   13 ar
  18    8    9 ar
  19    8   35 1
  20    9   10 1
  21    9   11 ar
  22   11   12 ar
  23   11   36 1
  24   12   13 ar
  25   12   17 1
  26   13   14 1
  27   14   15 2
  28   14   16 am
  29   16   37 1
  30   16   38 1
  31   17   18 1
  32   17   39 1
  33   18   19 ar
  34   18   23 ar
  35   19   20 ar
  36   19   40 1
  37   20   21 ar
  38   20   41 1
  39   21   22 ar
  40   21   25 1
  41   22   23 ar
  42   22   42 1
  43   23   24 1
  44   26   43 1

#	End of record

