#	Name: ASD00990049
#	Creating user name:	WinNT
#	Creation time:	15. 06. 2019 18:54

#	Modifying user name:	WinNT
#	Modification time:	15. 06. 2019 18:54

#	Program:	/corina/corina34_cracker 3.40 0067  02.08.2006

@<TRIPOS>MOLECULE
ASD00990049
  27   26    0    0    0
SMALL
NO_CHARGES


@<TRIPOS>ATOM
   1 C1            -0.0170     1.4006     0.0097 C.ar    
   2 C2             0.0021    -0.0041     0.0020 C.ar    
   3 C3            -1.1912    -0.7133     0.0100 C.ar    
   4 C4            -2.3914    -0.0362     0.0255 C.ar    
   5 C5            -2.4161     1.3523     0.0332 C.ar    
   6 C6            -1.2425     2.0721     0.0301 C.ar    
   7 N7             1.2764     1.8141    -0.0004 N.2     
   8 C8             2.0661     0.7802    -0.0135 C.2     
   9 N9             1.3346    -0.3667    -0.0127 N.pl3   
  10 C10            3.5716     0.8439    -0.0283 C.3     
  11 N11            4.0419     0.9927    -1.4120 N.3     
  12 C12            5.5084     1.0584    -1.4655 C.3     
  13 Br13          -4.0742     2.2612     0.0544 Br      
  14 H14           -1.1790    -1.7933     0.0037 H       
  15 H15           -3.3191    -0.5891     0.0313 H       
  16 H16           -1.2690     3.1517     0.0362 H       
  17 H17            1.6842    -1.2715    -0.0206 H       
  18 H18            3.9050     1.6971     0.5625 H       
  19 H19            3.9783    -0.0736     0.3970 H       
  20 H20            3.6918     0.2473    -1.9950 H       
  21 H21            5.8552     1.9131    -0.8847 H       
  22 H22            5.9285     0.1424    -1.0502 H       
  23 H23            5.8297     1.1685    -2.5012 H       
  24 Cl24          10.9285     8.1517     5.5625 Cl      
  25 H25           10.9285     9.5217     5.5625 H       
  26 Cl26          15.9285    14.5217    10.5625 Cl      
  27 H27           15.9285    15.8917    10.5625 H       
@<TRIPOS>BOND
   1    1    2 ar
   2    1    7 1
   3    1    6 ar
   4    2    3 ar
   5    2    9 1
   6    3    4 ar
   7    3   14 1
   8    4    5 ar
   9    4   15 1
  10    5    6 ar
  11    5   13 1
  12    6   16 1
  13    7    8 2
  14    8    9 1
  15    8   10 1
  16    9   17 1
  17   10   11 1
  18   10   18 1
  19   10   19 1
  20   11   12 1
  21   11   20 1
  22   12   21 1
  23   12   22 1
  24   12   23 1
  25   24   25 1
  26   26   27 1

#	End of record

