#	Name: ASD03930185
#	Creating user name:	WinNT
#	Creation time:	15. 06. 2019 20:47

#	Modifying user name:	WinNT
#	Modification time:	15. 06. 2019 20:47

#	Program:	/corina/corina34_cracker 3.40 0067  02.08.2006

@<TRIPOS>MOLECULE
ASD03930185
  41   42    0    0    0
SMALL
NO_CHARGES


@<TRIPOS>ATOM
   1 S1            -0.0205     1.6625     0.0112 S.o2    
   2 N2             0.0021    -0.0041     0.0020 N.am    
   3 C3             0.3292    -0.7078    -1.2341 C.3     
   4 C4             1.7438    -0.4311    -1.7204 C.3     
   5 O5             1.9125     0.9479    -2.0695 O.3     
   6 C6             2.4389     1.7391    -1.1044 C.ar    
   7 C7             1.6901     2.1413    -0.0026 C.ar    
   8 C8             3.7676     2.1508    -1.1966 C.ar    
   9 C9             4.3279     2.9025    -0.1890 C.ar    
  10 C10            3.5774     3.2612     0.9315 C.ar    
  11 C11            2.2348     2.8725     1.0142 C.ar    
  12 O12           -0.5708     2.0718    -1.2334 O.2     
  13 O13           -0.5469     2.0584     1.2703 O.2     
  14 C14           -0.2785    -0.6949     1.1248 C.2     
  15 O15           -0.2602    -1.9098     1.1112 O.2     
  16 O16           -0.5789    -0.0388     2.2614 O.3     
  17 C17           -0.8703    -0.8473     3.4318 C.3     
  18 C18            0.3440    -1.7156     3.7671 C.3     
  19 C19           -1.1865     0.0669     4.6173 C.3     
  20 C20           -2.0755    -1.7450     3.1444 C.3     
  21 B21            4.2329     4.0941     2.0897 Du      
  22 O22            5.5949     4.4857     1.9996 O.3     
  23 O23            3.4639     4.4560     3.2272 O.3     
  24 H24            0.2190    -1.7793    -1.0674 H       
  25 H25           -0.3740    -0.4016    -2.0086 H       
  26 H26            2.4496    -0.6885    -0.9306 H       
  27 H27            1.9477    -1.0485    -2.5952 H       
  28 H28            4.3579     1.8792    -2.0593 H       
  29 H29            5.3581     3.2174    -0.2661 H       
  30 H30            1.6375     3.1477     1.8709 H       
  31 H31            1.2026    -1.0760     3.9718 H       
  32 H32            0.1253    -2.3225     4.6457 H       
  33 H33            0.5693    -2.3668     2.9225 H       
  34 H34           -2.0516     0.6855     4.3785 H       
  35 H35           -1.4052    -0.5400     5.4959 H       
  36 H36           -0.3279     0.7064     4.8220 H       
  37 H37           -1.8502    -2.3962     2.2999 H       
  38 H38           -2.2942    -2.3518     4.0230 H       
  39 H39           -2.9406    -1.1264     2.9056 H       
  40 H40            5.9089     4.9947     2.7595 H       
  41 H41            3.9530     4.9674     3.8862 H       
@<TRIPOS>BOND
   1    1    2 am
   2    1    7 1
   3    1   12 2
   4    1   13 2
   5    2    3 1
   6    2   14 am
   7    3    4 1
   8    3   24 1
   9    3   25 1
  10    4    5 1
  11    4   26 1
  12    4   27 1
  13    5    6 1
  14    6    7 ar
  15    6    8 ar
  16    7   11 ar
  17    8    9 ar
  18    8   28 1
  19    9   10 ar
  20    9   29 1
  21   10   11 ar
  22   10   21 1
  23   11   30 1
  24   14   15 2
  25   14   16 1
  26   16   17 1
  27   17   18 1
  28   17   20 1
  29   17   19 1
  30   18   31 1
  31   18   32 1
  32   18   33 1
  33   19   34 1
  34   19   35 1
  35   19   36 1
  36   20   37 1
  37   20   38 1
  38   20   39 1
  39   21   22 1
  40   21   23 1
  41   22   40 1
  42   23   41 1

#	End of record

