#	Name: ASD01028023
#	Creating user name:	WinNT
#	Creation time:	15. 06. 2019 18:56

#	Modifying user name:	WinNT
#	Modification time:	15. 06. 2019 18:56

#	Program:	/corina/corina34_cracker 3.40 0067  02.08.2006

@<TRIPOS>MOLECULE
ASD01028023
  43   44    0    0    0
SMALL
NO_CHARGES


@<TRIPOS>ATOM
   1 C1             0.0153     0.1823     1.2688 C.1     
   2 C2            -0.0086     1.5505     0.8469 C.ar    
   3 C3             1.1888     2.2363     0.6257 C.ar    
   4 C4             1.1602     3.5562     0.2182 C.ar    
   5 C5            -0.0610     4.2007     0.0287 C.ar    
   6 C6            -1.2503     3.5197     0.2484 C.ar    
   7 C7            -1.2293     2.2014     0.6498 C.ar    
   8 O8            -0.0873     5.4986    -0.3715 O.3     
   9 C9            -1.3728     6.0976    -0.5465 C.3     
  10 O10            2.3236     4.2266     0.0025 O.3     
  11 C11            3.5340     3.4732     0.0989 C.3     
  12 C12            4.6241     4.1468    -0.7392 C.3     
  13 C13            5.9335     3.3700    -0.5836 C.3     
  14 N14            6.3242     3.3453     0.8317 N.3     
  15 C15            5.3145     2.6611     1.6495 C.3     
  16 C16            3.9866     3.4168     1.5605 C.3     
  17 C17            7.6462     2.7279     1.0022 C.3     
  18 C18            8.1203     2.9384     2.4171 C.2     
  19 N19            9.3166     2.4545     2.8060 N.am    
  20 O20            7.4253     3.5431     3.2059 O.2     
  21 C21            9.7774     2.6591     4.1815 C.3     
  22 N22            0.0342    -0.9031     1.6035 N.1     
  23 H23            2.1344     1.7358     0.7733 H       
  24 H24           -2.1945     4.0228     0.1007 H       
  25 H25           -2.1562     1.6737     0.8197 H       
  26 H26           -1.2509     7.1324    -0.8667 H       
  27 H27           -1.9305     5.5463    -1.3036 H       
  28 H28           -1.9175     6.0711     0.3972 H       
  29 H29            3.3638     2.4617    -0.2700 H       
  30 H30            4.3262     4.1516    -1.7877 H       
  31 H31            4.7660     5.1716    -0.3959 H       
  32 H32            5.7947     2.3493    -0.9399 H       
  33 H33            6.7153     3.8553    -1.1678 H       
  34 H34            5.1786     1.6437     1.2827 H       
  35 H35            5.6467     2.6316     2.6872 H       
  36 H36            4.1184     4.4301     1.9400 H       
  37 H37            3.2333     2.9000     2.1551 H       
  38 H38            7.5774     1.6596     0.7971 H       
  39 H39            8.3530     3.1859     0.3103 H       
  40 H40            9.8724     1.9708     2.1752 H       
  41 H41            9.0705     2.2011     4.8734 H       
  42 H42           10.7583     2.2010     4.3080 H       
  43 H43            9.8462     3.7274     4.3865 H       
@<TRIPOS>BOND
   1    1    2 1
   2    1   22 3
   3    2    3 ar
   4    2    7 ar
   5    3    4 ar
   6    3   23 1
   7    4    5 ar
   8    4   10 1
   9    5    6 ar
  10    5    8 1
  11    6    7 ar
  12    6   24 1
  13    7   25 1
  14    8    9 1
  15    9   26 1
  16    9   27 1
  17    9   28 1
  18   10   11 1
  19   11   12 1
  20   11   16 1
  21   11   29 1
  22   12   13 1
  23   12   30 1
  24   12   31 1
  25   13   14 1
  26   13   32 1
  27   13   33 1
  28   14   15 1
  29   14   17 1
  30   15   16 1
  31   15   34 1
  32   15   35 1
  33   16   36 1
  34   16   37 1
  35   17   18 1
  36   17   38 1
  37   17   39 1
  38   18   19 am
  39   18   20 2
  40   19   21 1
  41   19   40 1
  42   21   41 1
  43   21   42 1
  44   21   43 1

#	End of record

