#	Name: ASD07930800
#	Creating user name:	WinNT
#	Creation time:	15. 06. 2019 21:13

#	Modifying user name:	WinNT
#	Modification time:	15. 06. 2019 21:13

#	Program:	/corina/corina34_cracker 3.40 0067  02.08.2006

@<TRIPOS>MOLECULE
ASD07930800
  47   50    0    0    0
SMALL
NO_CHARGES


@<TRIPOS>ATOM
   1 C1             2.9708    -1.1777    -1.4908 C.3     
   2 N2             2.4550    -3.0909     0.7418 N.2     
   3 N3             0.4222    -3.4515    -0.3532 N.pl3   
   4 C4            -0.9005    -2.8248    -0.2586 C.3     
   5 C5            -0.9795    -1.6575    -1.2522 C.3     
   6 S6             0.3863    -0.5085    -0.8934 S.o2    
   7 N7             1.7091    -1.5197    -0.8293 N.am    
   8 C8             1.5566    -2.7018    -0.1188 C.2     
   9 C9            -1.1175    -2.3016     1.1626 C.3     
  10 C10           -1.9634    -3.8404    -0.5898 C.ar    
  11 C11           -2.7958    -3.6333    -1.6685 C.ar    
  12 C12           -3.7751    -4.5679    -1.9753 C.ar    
  13 C13           -3.9158    -5.7218    -1.1865 C.ar    
  14 C14           -3.0645    -5.9178    -0.0955 C.ar    
  15 C15           -2.0942    -4.9826     0.1912 C.ar    
  16 F16           -1.2709    -5.1720     1.2455 F       
  17 N17           -4.7418    -4.6586    -2.9584 N.pl3   
  18 C18           -5.4204    -5.8192    -2.7524 C.2     
  19 N19           -4.9380    -6.4415    -1.7165 N.2     
  20 C20           -6.5650    -6.3120    -3.5998 C.3     
  21 O21            0.6377     0.3391    -2.0058 O.2     
  22 O22            0.2723     0.0150     0.4228 O.2     
  23 C23           -6.2584    -7.7001    -4.1000 C.ar    
  24 N24           -5.1412    -7.9214    -4.7643 N.ar    
  25 C25           -4.8314    -9.1193    -5.2207 C.ar    
  26 C26           -5.6759   -10.1937    -5.0164 C.ar    
  27 C27           -6.8604    -9.9997    -4.3219 C.ar    
  28 C28           -7.1490    -8.7277    -3.8522 C.ar    
  29 H29            3.6036    -0.6202    -0.8004 H       
  30 H30            3.4813    -2.0917    -1.7943 H       
  31 H31            2.7661    -0.5669    -2.3701 H       
  32 H32            3.2464    -2.5512     0.8943 H       
  33 H33            0.4991    -4.3924    -0.5763 H       
  34 H34           -0.8846    -2.0346    -2.2705 H       
  35 H35           -1.9331    -1.1419    -1.1382 H       
  36 H36           -0.3493    -1.5657     1.4002 H       
  37 H37           -2.1005    -1.8360     1.2323 H       
  38 H38           -1.0572    -3.1304     1.8681 H       
  39 H39           -2.6865    -2.7455    -2.2737 H       
  40 H40           -3.1638    -6.8013     0.5177 H       
  41 H41           -4.9062    -4.0139    -3.6642 H       
  42 H42           -7.4763    -6.3342    -3.0021 H       
  43 H43           -6.7034    -5.6422    -4.4485 H       
  44 H44           -3.9070    -9.2621    -5.7607 H       
  45 H45           -5.4170   -11.1722    -5.3933 H       
  46 H46           -7.5399   -10.8208    -4.1475 H       
  47 H47           -8.0623    -8.5403    -3.3069 H       
@<TRIPOS>BOND
   1    1    7 1
   2    1   29 1
   3    1   30 1
   4    1   31 1
   5    2    8 2
   6    2   32 1
   7    3    4 1
   8    3    8 1
   9    3   33 1
  10    4    5 1
  11    4    9 1
  12    4   10 1
  13    5    6 1
  14    5   34 1
  15    5   35 1
  16    6    7 am
  17    6   21 2
  18    6   22 2
  19    7    8 1
  20    9   36 1
  21    9   37 1
  22    9   38 1
  23   10   11 ar
  24   10   15 ar
  25   11   12 ar
  26   11   39 1
  27   12   13 ar
  28   12   17 1
  29   13   14 ar
  30   13   19 1
  31   14   15 ar
  32   14   40 1
  33   15   16 1
  34   17   18 1
  35   17   41 1
  36   18   19 2
  37   18   20 1
  38   20   23 1
  39   20   42 1
  40   20   43 1
  41   23   24 ar
  42   23   28 ar
  43   24   25 ar
  44   25   26 ar
  45   25   44 1
  46   26   27 ar
  47   26   45 1
  48   27   28 ar
  49   27   46 1
  50   28   47 1

#	End of record

