#	Name: ASD03092645
#	Creating user name:	WinNT
#	Creation time:	15. 06. 2019 20:32

#	Modifying user name:	WinNT
#	Modification time:	15. 06. 2019 20:32

#	Program:	/corina/corina34_cracker 3.40 0067  02.08.2006

@<TRIPOS>MOLECULE
ASD03092645
  48   50    0    0    0
SMALL
NO_CHARGES


@<TRIPOS>ATOM
   1 C1             0.4656     1.9404     0.0647 C.3     
   2 O2             0.3644     0.5152     0.0877 O.3     
   3 C3             0.9602    -0.1626    -0.9295 C.ar    
   4 C4             1.6323     0.5316    -1.9241 C.ar    
   5 C5             2.2395    -0.1544    -2.9594 C.ar    
   6 C6             2.1771    -1.5390    -3.0052 C.ar    
   7 N7             2.7929    -2.2349    -4.0553 N.pl3   
   8 C8             3.1013    -1.5763    -5.2381 C.ar    
   9 N9             2.7200    -0.3175    -5.4290 N.ar    
  10 C10            3.0082     0.3172    -6.5485 C.ar    
  11 C11            2.5529     1.7440    -6.7157 C.3     
  12 N12            3.6807    -0.2547    -7.5240 N.ar    
  13 C13            4.1032    -1.5163    -7.4184 C.ar    
  14 C14            3.8244    -2.2261    -6.2468 C.ar    
  15 N15            4.2509    -3.5482    -6.0881 N.pl3   
  16 C16            4.8600    -2.1521    -8.5225 C.ar    
  17 C17            4.4625    -3.3918    -9.0204 C.ar    
  18 C18            5.1711    -3.9794   -10.0486 C.ar    
  19 C19            6.2748    -3.3416   -10.5860 C.ar    
  20 C20            6.6762    -2.1116   -10.0975 C.ar    
  21 C21            5.9711    -1.5092    -9.0724 C.ar    
  22 F22            6.3595    -0.3047    -8.5996 F       
  23 C23            7.0434    -3.9902   -11.7084 C.3     
  24 F24            6.5048    -3.5886   -12.9355 F       
  25 F25            8.3859    -3.6026   -11.6391 F       
  26 F26            6.9531    -5.3814   -11.5924 F       
  27 C27            1.5021    -2.2379    -2.0064 C.ar    
  28 O28            1.4397    -3.5957    -2.0486 O.3     
  29 C29            0.7312    -4.2457    -0.9915 C.3     
  30 C30            0.8999    -1.5480    -0.9679 C.ar    
  31 H31            1.5158     2.2306     0.0950 H       
  32 H32            0.0093     2.3223    -0.8486 H       
  33 H33           -0.0512     2.3554     0.9300 H       
  34 H34            1.6811     1.6099    -1.8902 H       
  35 H35            2.7624     0.3882    -3.7330 H       
  36 H36            3.0035    -3.1765    -3.9553 H       
  37 H37            3.3241     2.4177    -6.3423 H       
  38 H38            2.3734     1.9468    -7.7715 H       
  39 H39            1.6317     1.8996    -6.1542 H       
  40 H40            3.9821    -4.0539    -5.3053 H       
  41 H41            4.8157    -3.9597    -6.7609 H       
  42 H42            3.6016    -3.8920    -8.6019 H       
  43 H43            4.8633    -4.9400   -10.4346 H       
  44 H44            7.5390    -1.6189   -10.5207 H       
  45 H45            1.1995    -4.0036    -0.0375 H       
  46 H46           -0.3042    -3.9050    -0.9848 H       
  47 H47            0.7577    -5.3244    -1.1459 H       
  48 H48            0.3800    -2.0880    -0.1904 H       
@<TRIPOS>BOND
   1    1    2 1
   2    1   31 1
   3    1   32 1
   4    1   33 1
   5    2    3 1
   6    3   30 ar
   7    3    4 ar
   8    4    5 ar
   9    4   34 1
  10    5    6 ar
  11    5   35 1
  12    6    7 1
  13    6   27 ar
  14    7    8 1
  15    7   36 1
  16    8   14 ar
  17    8    9 ar
  18    9   10 ar
  19   10   11 1
  20   10   12 ar
  21   11   37 1
  22   11   38 1
  23   11   39 1
  24   12   13 ar
  25   13   14 ar
  26   13   16 1
  27   14   15 1
  28   15   40 1
  29   15   41 1
  30   16   21 ar
  31   16   17 ar
  32   17   18 ar
  33   17   42 1
  34   18   19 ar
  35   18   43 1
  36   19   20 ar
  37   19   23 1
  38   20   21 ar
  39   20   44 1
  40   21   22 1
  41   23   24 1
  42   23   25 1
  43   23   26 1
  44   27   28 1
  45   27   30 ar
  46   28   29 1
  47   29   45 1
  48   29   46 1
  49   29   47 1
  50   30   48 1

#	End of record

