#	Name: ASD01812667
#	Creating user name:	WinNT
#	Creation time:	15. 06. 2019 19:29

#	Modifying user name:	WinNT
#	Modification time:	15. 06. 2019 19:29

#	Program:	/corina/corina34_cracker 3.40 0067  02.08.2006

@<TRIPOS>MOLECULE
ASD01812667
  57   61    0    0    0
SMALL
NO_CHARGES


@<TRIPOS>ATOM
   1 O1            -0.0163     1.3523     0.0095 O.3     
   2 C2             0.0099     0.0101     0.2041 C.ar    
   3 C3             1.2218    -0.6598     0.2780 C.ar    
   4 C4             1.2506    -2.0263     0.4756 C.ar    
   5 C5             0.0686    -2.7397     0.6016 C.ar    
   6 C6            -1.1401    -2.0895     0.5305 C.ar    
   7 C7            -1.1880    -0.7060     0.3372 C.ar    
   8 C8            -2.5716    -2.5557     0.6250 C.3     
   9 N9            -3.4036    -1.3573     0.4675 N.am    
  10 C10           -2.6002    -0.2910     0.3106 C.2     
  11 C11           -4.8681    -1.3261     0.4907 C.3     
  12 O12           -2.9854     0.8515     0.1536 O.2     
  13 C13           -5.3436    -1.1121     1.9046 C.ar    
  14 C14           -5.5386     0.1724     2.3791 C.ar    
  15 C15           -5.9744     0.3741     3.6731 C.ar    
  16 C16           -6.2180    -0.7189     4.5016 C.ar    
  17 C17           -6.0201    -2.0105     4.0187 C.ar    
  18 C18           -5.5891    -2.2010     2.7214 C.ar    
  19 C19           -6.6866    -0.5081     5.8946 C.2     
  20 C20           -6.9279     0.7344     6.5125 C.2     
  21 N21           -7.3278     0.5086     7.7358 N.2     
  22 N22           -7.3574    -0.8754     7.9458 N.pl3   
  23 C23           -6.9672    -1.4828     6.8071 C.2     
  24 C24           -7.7499    -1.5476     9.1869 C.3     
  25 C25            1.2358     1.9975    -0.2311 C.3     
  26 C26            1.0048     3.2699    -1.0050 C.ar    
  27 C27           -0.0732     4.0791    -0.6986 C.ar    
  28 C28            1.9045     2.3275     1.1049 C.3     
  29 C29            1.8741     3.6305    -2.0175 C.ar    
  30 C30            1.6622     4.7975    -2.7274 C.ar    
  31 C31            0.5807     5.6037    -2.4251 C.ar    
  32 C32           -0.2851     5.2462    -1.4085 C.ar    
  33 H33            2.1467    -0.1108     0.1804 H       
  34 H34            2.1981    -2.5416     0.5318 H       
  35 H35            0.0976    -3.8083     0.7557 H       
  36 H36           -2.7868    -3.2687    -0.1709 H       
  37 H37           -2.7533    -3.0129     1.5977 H       
  38 H38           -5.2242    -0.5113    -0.1397 H       
  39 H39           -5.2577    -2.2726     0.1157 H       
  40 H40           -5.3491     1.0192     1.7360 H       
  41 H41           -6.1260     1.3775     4.0427 H       
  42 H42           -6.2076    -2.8613     4.6569 H       
  43 H43           -5.4392    -3.2020     2.3447 H       
  44 H44           -6.8037     1.7048     6.0550 H       
  45 H45           -6.8886    -2.5480     6.6471 H       
  46 H46           -8.8221    -1.7430     9.1709 H       
  47 H47           -7.2101    -2.4904     9.2758 H       
  48 H48           -7.5094    -0.9097    10.0374 H       
  49 H49            1.8816     1.3344    -0.8066 H       
  50 H50           -0.7501     3.7994     0.0951 H       
  51 H51            2.0716     1.4073     1.6647 H       
  52 H52            2.8596     2.8197     0.9214 H       
  53 H53            1.2587     2.9907     1.6804 H       
  54 H54            2.7191     3.0007    -2.2536 H       
  55 H55            2.3418     5.0797    -3.5179 H       
  56 H56            0.4154     6.5157    -2.9795 H       
  57 H57           -1.1275     5.8783    -1.1694 H       
@<TRIPOS>BOND
   1    1    2 1
   2    1   25 1
   3    2    3 ar
   4    2    7 ar
   5    3    4 ar
   6    3   33 1
   7    4    5 ar
   8    4   34 1
   9    5    6 ar
  10    5   35 1
  11    6    8 1
  12    6    7 ar
  13    7   10 1
  14    8    9 1
  15    8   36 1
  16    8   37 1
  17    9   10 am
  18    9   11 1
  19   10   12 2
  20   11   13 1
  21   11   38 1
  22   11   39 1
  23   13   14 ar
  24   13   18 ar
  25   14   15 ar
  26   14   40 1
  27   15   16 ar
  28   15   41 1
  29   16   17 ar
  30   16   19 1
  31   17   18 ar
  32   17   42 1
  33   18   43 1
  34   19   20 1
  35   19   23 2
  36   20   21 2
  37   20   44 1
  38   21   22 1
  39   22   23 1
  40   22   24 1
  41   23   45 1
  42   24   46 1
  43   24   47 1
  44   24   48 1
  45   25   26 1
  46   25   28 1
  47   25   49 1
  48   26   29 ar
  49   26   27 ar
  50   27   32 ar
  51   27   50 1
  52   28   51 1
  53   28   52 1
  54   28   53 1
  55   29   30 ar
  56   29   54 1
  57   30   31 ar
  58   30   55 1
  59   31   32 ar
  60   31   56 1
  61   32   57 1

#	End of record

