#	Name: ASD01410653
#	Creating user name:	WinNT
#	Creation time:	15. 06. 2019 19:18

#	Modifying user name:	WinNT
#	Modification time:	15. 06. 2019 19:18

#	Program:	/corina/corina34_cracker 3.40 0067  02.08.2006

@<TRIPOS>MOLECULE
ASD01410653
  83   87    0    0    0
SMALL
NO_CHARGES


@<TRIPOS>ATOM
   1 C1             2.0539     3.6403     3.4599 C.ar    
   2 C2             2.8239     3.1279     4.4946 C.ar    
   3 C3             3.9137     2.3338     4.1966 C.ar    
   4 N4             4.2282     2.0591     2.9452 N.ar    
   5 C5             3.5188     2.5288     1.9320 C.ar    
   6 C6             2.4097     3.3339     2.1578 C.ar    
   7 O7             3.8781     2.2211     0.6605 O.3     
   8 C8             5.0253     1.5154     0.4743 C.ar    
   9 C9             5.1114     0.2028     0.9225 C.ar    
  10 C10            6.2711    -0.5226     0.7387 C.ar    
  11 C11            7.3615     0.0558     0.1039 C.ar    
  12 C12            7.2810     1.3808    -0.3510 C.ar    
  13 C13            6.1006     2.1045    -0.1655 C.ar    
  14 N14            8.5330    -0.6771    -0.0807 N.am    
  15 C15            8.7743    -1.2751    -1.2641 C.2     
  16 C16            9.5017    -0.7972     1.0118 C.3     
  17 O17            8.0150    -1.1067    -2.1947 O.2     
  18 C18            9.9877    -2.1531    -1.4311 C.3     
  19 C19           10.1538    -2.5180    -2.9076 C.3     
  20 C20           11.3858    -3.4094    -3.0772 C.3     
  21 C21           11.2087    -4.6863    -2.2530 C.3     
  22 C22           11.0426    -4.3213    -0.7765 C.3     
  23 C23            9.8107    -3.4300    -0.6070 C.3     
  24 C24           12.4406    -5.5776    -2.4226 C.3     
  25 C25            8.8082    -1.3750     2.2471 C.3     
  26 C26           10.0688     0.5843     1.3447 C.3     
  27 C27            2.4748     3.4352     5.9281 C.3     
  28 C28           11.0805     0.4589     2.4856 C.3     
  29 C29            1.5298     2.3843     6.4513 C.ar    
  30 N30            0.4057     2.1395     5.8066 N.ar    
  31 C31           -0.4506     1.2292     6.2270 C.ar    
  32 C32           -0.1964     0.4934     7.3692 C.ar    
  33 C33            0.9753     0.7229     8.0737 C.ar    
  34 C34            1.8539     1.6845     7.5979 C.ar    
  35 C35            9.8199    -1.5004     3.3880 C.3     
  36 C36           10.3870    -0.1189     3.7209 C.3     
  37 O37           11.3320    -0.2361     4.7865 O.3     
  38 C38           11.4180     0.9235     5.6171 C.3     
  39 C39            1.6047     3.8667     1.0006 C.3     
  40 F40            0.5481     4.6444     1.4865 F       
  41 F41            2.4252     4.6526     0.1843 F       
  42 F42            1.0934     2.7978     0.2568 F       
  43 C43            8.4338     2.0038    -1.0257 C.2     
  44 O44            9.4369     1.3525    -1.2405 O.2     
  45 O45            8.3754     3.2957    -1.4045 O.3     
  46 H46            1.1939     4.2603     3.6660 H       
  47 H47            4.5164     1.9328     4.9981 H       
  48 H48            4.2663    -0.2522     1.4177 H       
  49 H49            6.3304    -1.5422     1.0898 H       
  50 H50            6.0311     3.1247    -0.5129 H       
  51 H51           10.3125    -1.4590     0.7073 H       
  52 H52           10.8731    -1.6185    -1.0871 H       
  53 H53            9.2684    -3.0527    -3.2516 H       
  54 H54           10.2800    -1.6084    -3.4948 H       
  55 H55           11.5041    -3.6694    -4.1291 H       
  56 H56           12.2712    -2.8748    -2.7332 H       
  57 H57           10.3233    -5.2209    -2.5970 H       
  58 H58           10.9165    -5.2310    -0.1894 H       
  59 H59           11.9280    -3.7867    -0.4325 H       
  60 H60            9.6923    -3.1700     0.4449 H       
  61 H61            8.9252    -3.9646    -0.9510 H       
  62 H62           13.3261    -5.0430    -2.0786 H       
  63 H63           12.3145    -6.4873    -1.8355 H       
  64 H64           12.5590    -5.8376    -3.4745 H       
  65 H65            7.9975    -0.7132     2.5516 H       
  66 H66            8.4042    -2.3592     2.0100 H       
  67 H67           10.5628     0.9960     0.4646 H       
  68 H68            9.2580     1.2462     1.6491 H       
  69 H69            3.3832     3.4393     6.5304 H       
  70 H70            1.9973     4.4135     5.9840 H       
  71 H71           11.8913    -0.2029     2.1811 H       
  72 H72           11.4845     1.4431     2.7227 H       
  73 H73           -1.3613     1.0568     5.6727 H       
  74 H74           -0.9018    -0.2505     7.7088 H       
  75 H75            1.2003     0.1634     8.9697 H       
  76 H76            2.7761     1.8895     8.1213 H       
  77 H77            9.3259    -1.9121     4.2681 H       
  78 H78           10.6307    -2.1623     3.0836 H       
  79 H79            9.5763     0.5429     4.0254 H       
  80 H80           11.7176     1.7809     5.0144 H       
  81 H81           10.4458     1.1194     6.0694 H       
  82 H82           12.1561     0.7549     6.4012 H       
  83 H83            9.1561     3.6603    -1.8435 H       
@<TRIPOS>BOND
   1    1    2 ar
   2    1    6 ar
   3    1   46 1
   4    2    3 ar
   5    2   27 1
   6    3    4 ar
   7    3   47 1
   8    4    5 ar
   9    5    6 ar
  10    5    7 1
  11    6   39 1
  12    7    8 1
  13    8    9 ar
  14    8   13 ar
  15    9   10 ar
  16    9   48 1
  17   10   11 ar
  18   10   49 1
  19   11   12 ar
  20   11   14 1
  21   12   13 ar
  22   12   43 1
  23   13   50 1
  24   14   15 am
  25   14   16 1
  26   15   17 2
  27   15   18 1
  28   16   25 1
  29   16   26 1
  30   16   51 1
  31   18   19 1
  32   18   23 1
  33   18   52 1
  34   19   20 1
  35   19   53 1
  36   19   54 1
  37   20   21 1
  38   20   55 1
  39   20   56 1
  40   21   22 1
  41   21   24 1
  42   21   57 1
  43   22   23 1
  44   22   58 1
  45   22   59 1
  46   23   60 1
  47   23   61 1
  48   24   62 1
  49   24   63 1
  50   24   64 1
  51   25   35 1
  52   25   65 1
  53   25   66 1
  54   26   28 1
  55   26   67 1
  56   26   68 1
  57   27   29 1
  58   27   69 1
  59   27   70 1
  60   28   36 1
  61   28   71 1
  62   28   72 1
  63   29   30 ar
  64   29   34 ar
  65   30   31 ar
  66   31   32 ar
  67   31   73 1
  68   32   33 ar
  69   32   74 1
  70   33   34 ar
  71   33   75 1
  72   34   76 1
  73   35   36 1
  74   35   77 1
  75   35   78 1
  76   36   37 1
  77   36   79 1
  78   37   38 1
  79   38   80 1
  80   38   81 1
  81   38   82 1
  82   39   40 1
  83   39   41 1
  84   39   42 1
  85   43   44 2
  86   43   45 1
  87   45   83 1

#	End of record

