#	Name: ASD03320212
#	Creating user name:	WinNT
#	Creation time:	15. 06. 2019 20:36

#	Modifying user name:	WinNT
#	Modification time:	15. 06. 2019 20:36

#	Program:	/corina/corina34_cracker 3.40 0067  02.08.2006

@<TRIPOS>MOLECULE
ASD03320212
  43   45    0    0    0
SMALL
NO_CHARGES


@<TRIPOS>ATOM
   1 C1            -0.0089     1.3686     0.1489 C.ar    
   2 C2             0.0089     0.0227    -0.2317 C.ar    
   3 N3            -1.1065    -0.6585    -0.3617 N.ar    
   4 C4            -2.2943    -0.1094    -0.1400 C.ar    
   5 C5            -2.4004     1.2364     0.2460 C.ar    
   6 C6            -1.2339     1.9897     0.3986 C.ar    
   7 C7             1.2561     2.1233     0.2913 C.2     
   8 O8             1.2322     3.2926     0.6225 O.2     
   9 N9             2.4346     1.5142     0.0537 N.am    
  10 C10            3.6242     2.2516     0.0924 C.ar    
  11 C11           -3.7283     1.8466     0.4922 C.ar    
  12 C12            3.7724     3.2834     1.0100 C.ar    
  13 C13            4.9458     4.0103     1.0475 C.ar    
  14 C14            5.9765     3.7100     0.1689 C.ar    
  15 C15            5.8293     2.6794    -0.7480 C.ar    
  16 C16            4.6586     1.9479    -0.7829 C.ar    
  17 O17            7.1315     4.4264     0.2061 O.3     
  18 C18            8.1508     4.0630    -0.7272 C.3     
  19 F19            7.6620     4.2053    -2.0303 F       
  20 F20            9.2615     4.8954    -0.5523 F       
  21 F21            8.5266     2.7326    -0.5127 F       
  22 C22           -4.6023     1.3070     1.4406 C.ar    
  23 N23           -5.7771     1.8828     1.6284 N.ar    
  24 C24           -6.1279     2.9492     0.9370 C.ar    
  25 N25           -5.3346     3.4895     0.0332 N.ar    
  26 C26           -4.1396     2.9812    -0.2135 C.ar    
  27 C27           -3.5193    -0.9237    -0.3019 C.2     
  28 O28           -4.6119    -0.4021    -0.2082 O.2     
  29 O29           -3.4225    -2.2435    -0.5533 O.3     
  30 C30           -4.6654    -2.9795    -0.7004 C.3     
  31 H31            0.9542    -0.4637    -0.4220 H       
  32 H32           -1.2790     3.0274     0.6947 H       
  33 H33            2.4587     0.5648    -0.1440 H       
  34 H34            2.9699     3.5176     1.6938 H       
  35 H35            5.0611     4.8130     1.7608 H       
  36 H36            6.6320     2.4464    -1.4319 H       
  37 H37            4.5441     1.1456    -1.4968 H       
  38 H38           -4.3221     0.4335     2.0106 H       
  39 H39           -7.0956     3.3938     1.1163 H       
  40 H40           -3.4951     3.4296    -0.9551 H       
  41 H41           -5.2467    -2.8982     0.2181 H       
  42 H42           -5.2374    -2.5645    -1.5303 H       
  43 H43           -4.4453    -4.0283    -0.8994 H       
@<TRIPOS>BOND
   1    1    2 ar
   2    1    7 1
   3    1    6 ar
   4    2    3 ar
   5    2   31 1
   6    3    4 ar
   7    4    5 ar
   8    4   27 1
   9    5    6 ar
  10    5   11 1
  11    6   32 1
  12    7    8 2
  13    7    9 am
  14    9   10 1
  15    9   33 1
  16   10   12 ar
  17   10   16 ar
  18   11   22 ar
  19   11   26 ar
  20   12   13 ar
  21   12   34 1
  22   13   14 ar
  23   13   35 1
  24   14   15 ar
  25   14   17 1
  26   15   16 ar
  27   15   36 1
  28   16   37 1
  29   17   18 1
  30   18   19 1
  31   18   20 1
  32   18   21 1
  33   22   23 ar
  34   22   38 1
  35   23   24 ar
  36   24   25 ar
  37   24   39 1
  38   25   26 ar
  39   26   40 1
  40   27   28 2
  41   27   29 1
  42   29   30 1
  43   30   41 1
  44   30   42 1
  45   30   43 1

#	End of record

