#	Name: ASD01120134
#	Creating user name:	WinNT
#	Creation time:	15. 06. 2019 18:59

#	Modifying user name:	WinNT
#	Modification time:	15. 06. 2019 18:59

#	Program:	/corina/corina34_cracker 3.40 0067  02.08.2006

@<TRIPOS>MOLECULE
ASD01120134
  42   44    0    0    0
SMALL
NO_CHARGES


@<TRIPOS>ATOM
   1 C1            -0.0584     1.4175     0.6799 C.ar    
   2 C2            -0.0451     0.0187     0.7695 C.ar    
   3 C3            -1.2119    -0.7046     0.6563 C.ar    
   4 C4            -2.4228    -0.0327     0.4499 C.ar    
   5 C5            -2.4283     1.3815     0.3609 C.ar    
   6 C6            -1.2293     2.0934     0.4844 C.ar    
   7 N7            -3.5868    -0.6907     0.3325 N.ar    
   8 C8            -4.7056    -0.0337     0.1392 C.ar    
   9 N9            -4.7591     1.2857     0.0496 N.ar    
  10 C10           -3.6674     2.0324     0.1516 C.ar    
  11 C11           -6.0859     3.4970     0.6120 C.ar    
  12 C12           -4.9820     4.0391    -0.0337 C.ar    
  13 C13           -5.1164     5.2099    -0.7688 C.ar    
  14 C14           -6.3486     5.8320    -0.8555 C.ar    
  15 C15           -7.4468     5.2876    -0.2099 C.ar    
  16 C16           -7.3142     4.1225     0.5220 C.ar    
  17 O17            1.1065     2.1097     0.7943 O.3     
  18 C18            1.0280     3.5330     0.6943 C.3     
  19 C19            2.4272     4.1329     0.8463 C.3     
  20 O20            1.1312    -0.6307     0.9698 O.3     
  21 C21            1.0794    -2.0564     1.0522 C.3     
  22 C22            2.4894    -2.6058     1.2779 C.3     
  23 N23           -3.7382     3.4079     0.0565 N.pl3   
  24 F24           -6.4812     6.9711    -1.5696 F       
  25 H25           -1.1927    -1.7822     0.7258 H       
  26 H26           -1.2288     3.1713     0.4172 H       
  27 H27           -5.6241    -0.5946     0.0488 H       
  28 H28           -5.9849     2.5843     1.1805 H       
  29 H29           -4.2599     5.6341    -1.2716 H       
  30 H30           -8.4083     5.7747    -0.2782 H       
  31 H31           -8.1722     3.7006     1.0242 H       
  32 H32            0.6189     3.8069    -0.2782 H       
  33 H33            0.3803     3.9174     1.4822 H       
  34 H34            2.8363     3.8591     1.8188 H       
  35 H35            3.0749     3.7485     0.0584 H       
  36 H36            2.3673     5.2186     0.7700 H       
  37 H37            0.4380    -2.3491     1.8835 H       
  38 H38            0.6767    -2.4597     0.1231 H       
  39 H39            3.1307    -2.3130     0.4466 H       
  40 H40            2.8921    -2.2025     2.2070 H       
  41 H41            2.4498    -3.6933     1.3408 H       
  42 H42           -2.9247     3.9363     0.0524 H       
@<TRIPOS>BOND
   1    1    2 ar
   2    1   17 1
   3    1    6 ar
   4    2    3 ar
   5    2   20 1
   6    3    4 ar
   7    3   25 1
   8    4    5 ar
   9    4    7 ar
  10    5    6 ar
  11    5   10 ar
  12    6   26 1
  13    7    8 ar
  14    8    9 ar
  15    8   27 1
  16    9   10 ar
  17   10   23 1
  18   11   12 ar
  19   11   16 ar
  20   11   28 1
  21   12   13 ar
  22   12   23 1
  23   13   14 ar
  24   13   29 1
  25   14   15 ar
  26   14   24 1
  27   15   16 ar
  28   15   30 1
  29   16   31 1
  30   17   18 1
  31   18   19 1
  32   18   32 1
  33   18   33 1
  34   19   34 1
  35   19   35 1
  36   19   36 1
  37   20   21 1
  38   21   22 1
  39   21   37 1
  40   21   38 1
  41   22   39 1
  42   22   40 1
  43   22   41 1
  44   23   42 1

#	End of record

