#	Name: ASD01150444
#	Creating user name:	WinNT
#	Creation time:	15. 06. 2019 19:04

#	Modifying user name:	WinNT
#	Modification time:	15. 06. 2019 19:04

#	Program:	/corina/corina34_cracker 3.40 0067  02.08.2006

@<TRIPOS>MOLECULE
ASD01150444
  49   51    0    0    0
SMALL
NO_CHARGES


@<TRIPOS>ATOM
   1 C1             0.4937     1.3923    -0.9457 C.ar    
   2 C2             0.4646     0.0113    -0.9224 C.ar    
   3 C3             1.1887    -0.6824     0.0308 C.ar    
   4 C4             1.9485     0.0099     0.9679 C.ar    
   5 C5             1.9791     1.3964     0.9456 C.ar    
   6 C6             1.2509     2.0888    -0.0119 C.ar    
   7 N7             1.2801     3.4881    -0.0373 N.am    
   8 C8             0.1264     4.1737    -0.1196 C.2     
   9 N9             0.1176     5.5195    -0.1467 N.am    
  10 C10            1.2789     6.2040    -0.0911 C.2     
  11 C11            2.5442     5.4602    -0.0005 C.2     
  12 N12            2.5098     4.1539     0.0290 N.2     
  13 O13            1.2793     7.4208    -0.1159 O.2     
  14 C14           -1.1539     6.2414    -0.2372 C.3     
  15 O15           -0.9269     3.5678    -0.1707 O.2     
  16 C16           -1.6749     6.5170     1.1498 C.ar    
  17 C17           -1.3228     7.6854     1.7998 C.ar    
  18 C18           -1.7990     7.9404     3.0712 C.ar    
  19 C19           -2.6313     7.0228     3.6959 C.ar    
  20 C20           -2.9831     5.8512     3.0416 C.ar    
  21 C21           -2.5087     5.6036     1.7679 C.ar    
  22 O22            3.7301     6.1205     0.0566 O.3     
  23 C23            4.9130     5.3234     0.1433 C.3     
  24 O24           -3.1007     7.2711     4.9468 O.3     
  25 C25           -3.9528     6.2822     5.5281 C.3     
  26 F26            1.1576    -2.0328     0.0516 F       
  27 N27            2.6812    -0.6921     1.9331 N.am    
  28 C28            2.9429    -0.1227     3.1263 C.2     
  29 C29            3.6374    -0.9155     4.2034 C.3     
  30 O30            2.6196     1.0279     3.3331 O.2     
  31 H31           -0.0693     1.9311    -1.6935 H       
  32 H32           -0.1248    -0.5278    -1.6493 H       
  33 H33            2.5679     1.9362     1.6723 H       
  34 H34           -0.9997     7.1845    -0.7614 H       
  35 H35           -1.8773     5.6361    -0.7834 H       
  36 H36           -0.6746     8.3992     1.3132 H       
  37 H37           -1.5234     8.8530     3.5787 H       
  38 H38           -3.6308     5.1354     3.5257 H       
  39 H39           -2.7823     4.6916     1.2581 H       
  40 H40            5.7871     5.9734     0.1821 H       
  41 H41            4.8741     4.7125     1.0452 H       
  42 H42            4.9799     4.6762    -0.7312 H       
  43 H43           -3.4158     5.3363     5.5992 H       
  44 H44           -4.2556     6.6038     6.5246 H       
  45 H45           -4.8369     6.1520     4.9040 H       
  46 H46            3.0003    -1.5881     1.7428 H       
  47 H47            4.7158    -0.7873     4.1108 H       
  48 H48            3.3121    -0.5619     5.1818 H       
  49 H49            3.3864    -1.9709     4.0967 H       
@<TRIPOS>BOND
   1    1    2 ar
   2    1    6 ar
   3    1   31 1
   4    2    3 ar
   5    2   32 1
   6    3    4 ar
   7    3   26 1
   8    4    5 ar
   9    4   27 1
  10    5    6 ar
  11    5   33 1
  12    6    7 1
  13    7    8 am
  14    7   12 1
  15    8    9 am
  16    8   15 2
  17    9   10 am
  18    9   14 1
  19   10   11 1
  20   10   13 2
  21   11   12 2
  22   11   22 1
  23   14   16 1
  24   14   34 1
  25   14   35 1
  26   16   17 ar
  27   16   21 ar
  28   17   18 ar
  29   17   36 1
  30   18   19 ar
  31   18   37 1
  32   19   20 ar
  33   19   24 1
  34   20   21 ar
  35   20   38 1
  36   21   39 1
  37   22   23 1
  38   23   40 1
  39   23   41 1
  40   23   42 1
  41   24   25 1
  42   25   43 1
  43   25   44 1
  44   25   45 1
  45   27   28 am
  46   27   46 1
  47   28   29 1
  48   28   30 2
  49   29   47 1
  50   29   48 1
  51   29   49 1

#	End of record

