#	Name: ASD03091356
#	Creating user name:	WinNT
#	Creation time:	15. 06. 2019 20:30

#	Modifying user name:	WinNT
#	Modification time:	15. 06. 2019 20:30

#	Program:	/corina/corina34_cracker 3.40 0067  02.08.2006

@<TRIPOS>MOLECULE
ASD03091356
  51   55    0    0    0
SMALL
NO_CHARGES


@<TRIPOS>ATOM
   1 N1             0.0796     1.1373    -0.1016 N.am    
   2 C2             0.0468    -0.2299    -0.0622 C.2     
   3 N3            -1.0664    -0.9153    -0.0005 N.2     
   4 C4            -2.2738    -0.3036     0.0290 C.ar    
   5 C5            -2.3320     1.1102    -0.0077 C.ar    
   6 C6            -1.0678     1.8536    -0.0716 C.2     
   7 O7            -1.0528     3.0706    -0.1054 O.2     
   8 C8            -3.4602    -1.0344     0.0942 C.ar    
   9 C9            -4.6727    -0.3655     0.1220 C.ar    
  10 C10           -4.7166     1.0301     0.0848 C.ar    
  11 C11           -3.5657     1.7612     0.0215 C.ar    
  12 N12           -5.8587    -1.0909     0.1870 N.3     
  13 C13            1.3678     1.8315    -0.1707 C.3     
  14 C14           -5.6017    -2.5310     0.0670 C.3     
  15 C15           -6.5887    -0.7965     1.4281 C.3     
  16 C16           -8.0864    -0.7507     1.1648 C.3     
  17 C17           -8.7000    -2.1182     0.9416 C.3     
  18 N18           -7.7157    -3.1918     1.1396 N.3     
  19 C19           -6.8833    -3.3392    -0.0641 C.3     
  20 C20           -6.1914    -1.8050     2.4904 C.3     
  21 C21           -7.0089    -3.0830     2.3977 C.3     
  22 C22            1.3268    -0.9664    -0.0911 C.ar    
  23 C23            1.6509    -1.8504     0.9396 C.ar    
  24 C24            2.8478    -2.5350     0.9066 C.ar    
  25 C25            3.7284    -2.3479    -0.1445 C.ar    
  26 C26            3.4163    -1.4744    -1.1700 C.ar    
  27 C27            2.2176    -0.7858    -1.1540 C.ar    
  28 F28            1.9127     0.0672    -2.1563 F       
  29 H29           -3.4335    -2.1137     0.1225 H       
  30 H30           -5.6707     1.5358     0.1069 H       
  31 H31           -3.6098     2.8400    -0.0069 H       
  32 H32            1.6748     1.9249    -1.2124 H       
  33 H33            1.2699     2.8238     0.2696 H       
  34 H34            2.1172     1.2623     0.3794 H       
  35 H35           -4.9819    -2.7069    -0.8122 H       
  36 H36           -5.0607    -2.8680     0.9512 H       
  37 H37           -6.2763     0.1876     1.7777 H       
  38 H38           -8.5771    -0.2825     2.0180 H       
  39 H39           -8.2674    -0.1381     0.2815 H       
  40 H40           -9.5238    -2.2572     1.6417 H       
  41 H41           -9.0865    -2.1730    -0.0761 H       
  42 H42           -7.4417    -2.9886    -0.9320 H       
  43 H43           -6.6321    -4.3910    -0.2004 H       
  44 H44           -5.1362    -2.0499     2.3695 H       
  45 H45           -6.3397    -1.3602     3.4744 H       
  46 H46           -7.7328    -3.0994     3.2124 H       
  47 H47           -6.3412    -3.9381     2.5032 H       
  48 H48            0.9658    -1.9977     1.7614 H       
  49 H49            3.0988    -3.2190     1.7038 H       
  50 H50            4.6642    -2.8866    -0.1637 H       
  51 H51            4.1081    -1.3333    -1.9872 H       
@<TRIPOS>BOND
   1    1    2 1
   2    1   13 1
   3    1    6 am
   4    2    3 2
   5    2   22 1
   6    3    4 1
   7    4    5 ar
   8    4    8 ar
   9    5    6 1
  10    5   11 ar
  11    6    7 2
  12    8    9 ar
  13    8   29 1
  14    9   10 ar
  15    9   12 1
  16   10   11 ar
  17   10   30 1
  18   11   31 1
  19   12   15 1
  20   12   14 1
  21   13   32 1
  22   13   33 1
  23   13   34 1
  24   14   19 1
  25   14   35 1
  26   14   36 1
  27   15   16 1
  28   15   20 1
  29   15   37 1
  30   16   17 1
  31   16   38 1
  32   16   39 1
  33   17   18 1
  34   17   40 1
  35   17   41 1
  36   18   19 1
  37   18   21 1
  38   19   42 1
  39   19   43 1
  40   20   21 1
  41   20   44 1
  42   20   45 1
  43   21   46 1
  44   21   47 1
  45   22   23 ar
  46   22   27 ar
  47   23   24 ar
  48   23   48 1
  49   24   25 ar
  50   24   49 1
  51   25   26 ar
  52   25   50 1
  53   26   27 ar
  54   26   51 1
  55   27   28 1

#	End of record

