#	Name: ASD03240226
#	Creating user name:	WinNT
#	Creation time:	15. 06. 2019 20:34

#	Modifying user name:	WinNT
#	Modification time:	15. 06. 2019 20:34

#	Program:	/corina/corina34_cracker 3.40 0067  02.08.2006

@<TRIPOS>MOLECULE
ASD03240226
  43   46    0    0    0
SMALL
NO_CHARGES


@<TRIPOS>ATOM
   1 C1            -0.5271     1.9412    -0.6206 C.ar    
   2 C2            -0.6921     0.5700    -0.5767 C.ar    
   3 C3             0.4214    -0.2502    -0.4838 C.ar    
   4 N4             1.6392     0.2498    -0.4358 N.ar    
   5 C5             1.8550     1.5546    -0.4744 C.ar    
   6 C6             0.7750     2.4519    -0.5689 C.ar    
   7 N7             2.9955     2.3328    -0.4410 N.pl3   
   8 C8             2.5969     3.6437    -0.5135 C.2     
   9 N9             1.2889     3.7049    -0.5887 N.2     
  10 C10            3.5032     4.8091    -0.5069 C.ar    
  11 C11            4.3145     1.8697    -0.3493 C.ar    
  12 C12            4.8726     1.1475    -1.3956 C.ar    
  13 C13            6.1734     0.6927    -1.3024 C.ar    
  14 C14            6.9198     0.9559    -0.1685 C.ar    
  15 C15            6.3668     1.6750     0.8752 C.ar    
  16 C16            5.0683     2.1370     0.7858 C.ar    
  17 N17            4.0723     6.9438     0.3433 N.ar    
  18 C18            3.2569     5.9013     0.3410 C.ar    
  19 C19            4.6252     4.8429    -1.3404 C.ar    
  20 C20            5.4439     5.9587    -1.2968 C.ar    
  21 C21            5.1329     6.9980    -0.4394 C.ar    
  22 C22            8.3387     0.4578    -0.0699 C.3     
  23 N23            2.1539     5.8875     1.1794 N.pl3   
  24 N24            9.2528     1.4733    -0.6095 N.3     
  25 C25           -1.7160     2.8611    -0.7276 C.3     
  26 H26           -1.6822     0.1402    -0.6141 H       
  27 H27            0.2878    -1.3213    -0.4497 H       
  28 H28            4.2900     0.9412    -2.2813 H       
  29 H29            6.6079     0.1305    -2.1158 H       
  30 H30            6.9523     1.8790     1.7595 H       
  31 H31            4.6383     2.7021     1.5995 H       
  32 H32            4.8481     4.0187    -2.0018 H       
  33 H33            6.3188     6.0167    -1.9273 H       
  34 H34            5.7723     7.8677    -0.4066 H       
  35 H35            8.5846     0.2658     0.9745 H       
  36 H36            8.4408    -0.4640    -0.6426 H       
  37 H37            1.9297     6.6754     1.6989 H       
  38 H38            1.6060     5.0900     1.2470 H       
  39 H39           10.2112     1.1628    -0.5545 H       
  40 H40            9.0050     1.7159    -1.5570 H       
  41 H41           -2.0638     3.1231     0.2716 H       
  42 H42           -1.4277     3.7668    -1.2611 H       
  43 H43           -2.5164     2.3587    -1.2708 H       
@<TRIPOS>BOND
   1    1    2 ar
   2    1    6 ar
   3    1   25 1
   4    2    3 ar
   5    2   26 1
   6    3    4 ar
   7    3   27 1
   8    4    5 ar
   9    5    7 1
  10    5    6 ar
  11    6    9 1
  12    7    8 1
  13    7   11 1
  14    8    9 2
  15    8   10 1
  16   10   19 ar
  17   10   18 ar
  18   11   12 ar
  19   11   16 ar
  20   12   13 ar
  21   12   28 1
  22   13   14 ar
  23   13   29 1
  24   14   15 ar
  25   14   22 1
  26   15   16 ar
  27   15   30 1
  28   16   31 1
  29   17   18 ar
  30   17   21 ar
  31   18   23 1
  32   19   20 ar
  33   19   32 1
  34   20   21 ar
  35   20   33 1
  36   21   34 1
  37   22   24 1
  38   22   35 1
  39   22   36 1
  40   23   37 1
  41   23   38 1
  42   24   39 1
  43   24   40 1
  44   25   41 1
  45   25   42 1
  46   25   43 1

#	End of record

