#	Name: ASD01180138
#	Creating user name:	WinNT
#	Creation time:	15. 06. 2019 19:06

#	Modifying user name:	WinNT
#	Modification time:	15. 06. 2019 19:06

#	Program:	/corina/corina34_cracker 3.40 0067  02.08.2006

@<TRIPOS>MOLECULE
ASD01180138
  20   21    0    0    0
SMALL
NO_CHARGES


@<TRIPOS>ATOM
   1 N1            -0.0157     1.3068     0.0092 N.ar    
   2 C2             0.0021    -0.0041     0.0020 C.ar    
   3 C3             1.1964    -0.7209    -0.0132 C.ar    
   4 C4             2.3901    -0.0570    -0.0210 C.ar    
   5 C5             2.3676     1.3502    -0.0132 C.ar    
   6 C6             3.5549     2.0999    -0.0209 C.ar    
   7 C7             3.4928     3.4595    -0.0135 C.ar    
   8 C8             2.2631     4.1194     0.0016 C.ar    
   9 C9             1.0917     3.4219     0.0099 C.ar    
  10 C10            1.1170     2.0173     0.0022 C.ar    
  11 C11            1.1715    -2.2277    -0.0206 C.3     
  12 F12            2.2331     5.4700     0.0086 F       
  13 H13           -0.9341    -0.5425     0.0084 H       
  14 H14            3.3254    -0.5969    -0.0325 H       
  15 H15            4.5123     1.6002    -0.0323 H       
  16 H16            4.4066     4.0351    -0.0191 H       
  17 H17            0.1481     3.9470     0.0224 H       
  18 H18            1.1554    -2.5858    -1.0500 H       
  19 H19            2.0603    -2.6083     0.4827 H       
  20 H20            0.2806    -2.5789     0.5001 H       
@<TRIPOS>BOND
   1    1    2 ar
   2    1   10 ar
   3    2    3 ar
   4    2   13 1
   5    3    4 ar
   6    3   11 1
   7    4    5 ar
   8    4   14 1
   9    5    6 ar
  10    5   10 ar
  11    6    7 ar
  12    6   15 1
  13    7    8 ar
  14    7   16 1
  15    8    9 ar
  16    8   12 1
  17    9   10 ar
  18    9   17 1
  19   11   18 1
  20   11   19 1
  21   11   20 1

#	End of record

