#	Name: ASD03731715
#	Creating user name:	WinNT
#	Creation time:	15. 06. 2019 20:46

#	Modifying user name:	WinNT
#	Modification time:	15. 06. 2019 20:46

#	Program:	/corina/corina34_cracker 3.40 0067  02.08.2006

@<TRIPOS>MOLECULE
ASD03731715
  37   38    0    0    0
SMALL
NO_CHARGES


@<TRIPOS>ATOM
   1 C1            -0.7954     1.3891     0.4228 C.2     
   2 C2            -0.5705    -0.0649     0.3060 C.ar    
   3 C3             0.5776    -0.5475    -0.3279 C.ar    
   4 C4             0.7838    -1.9046    -0.4350 C.ar    
   5 C5            -0.1484    -2.7945     0.0866 C.ar    
   6 C6            -1.2919    -2.3183     0.7179 C.ar    
   7 C7            -1.5024    -0.9625     0.8340 C.ar    
   8 O8             0.0189     2.1687    -0.0328 O.2     
   9 N9            -1.9060     1.8526     1.0296 N.am    
  10 S10           -2.1583     3.4841     1.1607 S.o2    
  11 O11           -3.3883     3.5930     1.8638 O.2     
  12 O12           -0.9495     3.9820     1.7175 O.2     
  13 C13           -2.3514     4.0512    -0.5515 C.3     
  14 O14            0.0580    -4.1312    -0.0213 O.3     
  15 C15           -0.4512    -4.7702    -1.1082 C.ar    
  16 C16           -0.3653    -6.1563    -1.2062 C.ar    
  17 C17           -0.8855    -6.8030    -2.3153 C.ar    
  18 C18           -1.4889    -6.0711    -3.3229 C.ar    
  19 C19           -1.5740    -4.6940    -3.2251 C.ar    
  20 C20           -1.0617    -4.0436    -2.1177 C.ar    
  21 O21            0.2284    -6.8738    -0.2153 O.3     
  22 C22            0.2806    -8.2919    -0.3832 C.3     
  23 Cl23          -2.1397    -6.8829    -4.7125 Cl      
  24 H24            1.3021     0.1432    -0.7336 H       
  25 H25            1.6707    -2.2784    -0.9250 H       
  26 H26           -2.0140    -3.0126     1.1215 H       
  27 H27           -2.3885    -0.5933     1.3288 H       
  28 H28           -2.5575     1.2307     1.3895 H       
  29 H29           -3.2007     3.5436    -1.0088 H       
  30 H30           -2.5236     5.1275    -0.5605 H       
  31 H31           -1.4460     3.8234    -1.1141 H       
  32 H32           -0.8197    -7.8781    -2.3938 H       
  33 H33           -2.0456    -4.1259    -4.0134 H       
  34 H34           -1.1334    -2.9687    -2.0417 H       
  35 H35           -0.7326    -8.6859    -0.4633 H       
  36 H36            0.8359    -8.5302    -1.2904 H       
  37 H37            0.7783    -8.7415     0.4761 H       
@<TRIPOS>BOND
   1    1    2 1
   2    1    8 2
   3    1    9 am
   4    2    3 ar
   5    2    7 ar
   6    3    4 ar
   7    3   24 1
   8    4    5 ar
   9    4   25 1
  10    5    6 ar
  11    5   14 1
  12    6    7 ar
  13    6   26 1
  14    7   27 1
  15    9   10 am
  16    9   28 1
  17   10   11 2
  18   10   12 2
  19   10   13 1
  20   13   29 1
  21   13   30 1
  22   13   31 1
  23   14   15 1
  24   15   16 ar
  25   15   20 ar
  26   16   17 ar
  27   16   21 1
  28   17   18 ar
  29   17   32 1
  30   18   19 ar
  31   18   23 1
  32   19   20 ar
  33   19   33 1
  34   20   34 1
  35   21   22 1
  36   22   35 1
  37   22   36 1
  38   22   37 1

#	End of record

