#	Name: ASD05733001
#	Creating user name:	WinNT
#	Creation time:	15. 06. 2019 21:02

#	Modifying user name:	WinNT
#	Modification time:	15. 06. 2019 21:02

#	Program:	/corina/corina34_cracker 3.40 0067  02.08.2006

@<TRIPOS>MOLECULE
ASD05733001
  38   41    0    0    0
SMALL
NO_CHARGES


@<TRIPOS>ATOM
   1 C1            -0.0171     1.4130     0.0098 C.ar    
   2 C2             0.0021    -0.0041     0.0020 C.ar    
   3 C3            -1.2187    -0.7127     0.0098 C.ar    
   4 C4            -2.4119    -0.0092     0.0250 C.ar    
   5 C5            -2.4146     1.3845     0.0321 C.ar    
   6 C6            -1.2485     2.0896     0.0310 C.ar    
   7 C7             1.1995     2.1175     0.0020 C.ar    
   8 C8             2.3751     1.4317    -0.0129 C.ar    
   9 C9             2.3925     0.0383    -0.0205 C.ar    
  10 C10            1.2336    -0.6768    -0.0128 C.ar    
  11 O11           -3.5927    -0.6854     0.0326 O.3     
  12 S12           -1.2248    -2.4746    -0.0002 S.3     
  13 S13           -1.2070    -2.9472     1.9945 S.3     
  14 C14           -2.9130    -2.8872     2.4313 C.ar    
  15 C15           -3.7009    -4.0220     2.3312 C.ar    
  16 C16           -5.0508    -3.9818     2.6754 C.ar    
  17 C17           -5.6295    -2.8301     3.1179 C.ar    
  18 C18           -4.8640    -1.6574     3.2335 C.ar    
  19 C19           -3.4887    -1.6836     2.8923 C.ar    
  20 O20           -3.1519    -5.1870     1.8921 O.3     
  21 C21           -5.4372    -0.4567     3.6878 C.ar    
  22 C22           -4.6677     0.6614     3.7886 C.ar    
  23 C23           -3.3169     0.6356     3.4473 C.ar    
  24 C24           -2.7268    -0.5110     3.0095 C.ar    
  25 H25           -3.3558     1.9140     0.0435 H       
  26 H26           -1.2708     3.1693     0.0370 H       
  27 H27            1.2013     3.1975     0.0074 H       
  28 H28            3.3082     1.9755    -0.0192 H       
  29 H29            3.3388    -0.4820    -0.0326 H       
  30 H30            1.2621    -1.7564    -0.0189 H       
  31 H31           -3.9256    -0.8856     0.9181 H       
  32 H32           -5.6480    -4.8776     2.5898 H       
  33 H33           -6.6772    -2.8186     3.3795 H       
  34 H34           -2.7873    -5.7401     2.5966 H       
  35 H35           -6.4830    -0.4217     3.9553 H       
  36 H36           -5.1107     1.5824     4.1379 H       
  37 H37           -2.7283     1.5368     3.5359 H       
  38 H38           -1.6788    -0.5166     2.7487 H       
@<TRIPOS>BOND
   1    1    2 ar
   2    1    7 ar
   3    1    6 ar
   4    2    3 ar
   5    2   10 ar
   6    3    4 ar
   7    3   12 1
   8    4    5 ar
   9    4   11 1
  10    5    6 ar
  11    5   25 1
  12    6   26 1
  13    7    8 ar
  14    7   27 1
  15    8    9 ar
  16    8   28 1
  17    9   10 ar
  18    9   29 1
  19   10   30 1
  20   11   31 1
  21   12   13 1
  22   13   14 1
  23   14   15 ar
  24   14   19 ar
  25   15   16 ar
  26   15   20 1
  27   16   17 ar
  28   16   32 1
  29   17   18 ar
  30   17   33 1
  31   18   19 ar
  32   18   21 ar
  33   19   24 ar
  34   20   34 1
  35   21   22 ar
  36   21   35 1
  37   22   23 ar
  38   22   36 1
  39   23   24 ar
  40   23   37 1
  41   24   38 1

#	End of record

