#	Name: ASD03332188
#	Creating user name:	WinNT
#	Creation time:	15. 06. 2019 20:40

#	Modifying user name:	WinNT
#	Modification time:	15. 06. 2019 20:40

#	Program:	/corina/corina34_cracker 3.40 0067  02.08.2006

@<TRIPOS>MOLECULE
ASD03332188
  57   59    0    0    0
SMALL
NO_CHARGES


@<TRIPOS>ATOM
   1 C1             0.2790     1.4939     0.1343 C.3     
   2 N2             0.2009     0.0274     0.0802 N.3     
   3 C3             0.5979    -0.4792    -1.2460 C.3     
   4 C4             1.9135     0.1579    -1.6123 C.2     
   5 N5             2.4252     1.2533    -0.9794 N.pl3   
   6 C6             1.7477     1.9375     0.1254 C.3     
   7 C7             2.7988    -0.1979    -2.5757 C.2     
   8 N8             3.8347     0.6708    -2.5231 N.2     
   9 C9             3.6160     1.5441    -1.5654 C.2     
  10 C10            4.5148     2.6571    -1.1894 C.ar    
  11 C11            5.5431     3.0470    -2.0480 C.ar    
  12 C12            6.3782     4.0858    -1.6928 C.ar    
  13 C13            6.1972     4.7418    -0.4858 C.ar    
  14 C14            5.1771     4.3584     0.3707 C.ar    
  15 C15            4.3335     3.3246     0.0227 C.ar    
  16 C16            2.6582    -1.3277    -3.5113 C.2     
  17 O17            1.6751    -2.0418    -3.4591 O.2     
  18 N18            3.6192    -1.5698    -4.4247 N.am    
  19 C19            3.4794    -2.6930    -5.3548 C.3     
  20 C20            2.6473    -2.2552    -6.5618 C.3     
  21 C21            4.8438    -3.1339    -5.8186 C.2     
  22 N22            5.0458    -4.4106    -6.2005 N.am    
  23 O23            5.7601    -2.3399    -5.8482 O.2     
  24 C24            6.3936    -4.8661    -6.5500 C.3     
  25 C25            3.2806    -1.0147    -7.1949 C.3     
  26 C26            2.6053    -3.3875    -7.5900 C.3     
  27 C27            1.2240    -1.9258    -6.1075 C.3     
  28 F28            7.0181     5.7584    -0.1424 F       
  29 C29            7.4897     4.5077    -2.6190 C.3     
  30 H30           -0.2321     1.9160    -0.7310 H       
  31 H31           -0.2011     1.8489     1.0461 H       
  32 H32            0.7589    -0.3915     0.8091 H       
  33 H33            0.7110    -1.5626    -1.2080 H       
  34 H34           -0.1587    -0.2126    -1.9839 H       
  35 H35            1.8052     3.0163    -0.0195 H       
  36 H36            2.2194     1.6669     1.0701 H       
  37 H37            5.6852     2.5361    -2.9888 H       
  38 H38            5.0402     4.8728     1.3104 H       
  39 H39            3.5387     3.0268     0.6906 H       
  40 H40            4.4033    -1.0003    -4.4663 H       
  41 H41            2.9814    -3.5217    -4.8515 H       
  42 H42            4.2988    -5.0278    -6.2439 H       
  43 H43            6.7702    -4.2782    -7.3870 H       
  44 H44            7.0536    -4.7405    -5.6916 H       
  45 H45            6.3599    -5.9186    -6.8313 H       
  46 H46            4.2946    -1.2494    -7.5186 H       
  47 H47            2.6878    -0.7028    -8.0548 H       
  48 H48            3.3106    -0.2080    -6.4624 H       
  49 H49            2.2502    -4.3000    -7.1112 H       
  50 H50            1.9299    -3.1164    -8.4015 H       
  51 H51            3.6058    -3.5526    -7.9898 H       
  52 H52            1.2539    -1.1191    -5.3750 H       
  53 H53            0.6311    -1.6139    -6.9674 H       
  54 H54            0.7728    -2.8096    -5.6565 H       
  55 H55            7.1233     5.2759    -3.3000 H       
  56 H56            8.3186     4.9061    -2.0339 H       
  57 H57            7.8311     3.6462    -3.1929 H       
@<TRIPOS>BOND
   1    1    2 1
   2    1    6 1
   3    1   30 1
   4    1   31 1
   5    2    3 1
   6    2   32 1
   7    3    4 1
   8    3   33 1
   9    3   34 1
  10    4    5 1
  11    4    7 2
  12    5    6 1
  13    5    9 1
  14    6   35 1
  15    6   36 1
  16    7    8 1
  17    7   16 1
  18    8    9 2
  19    9   10 1
  20   10   11 ar
  21   10   15 ar
  22   11   12 ar
  23   11   37 1
  24   12   13 ar
  25   12   29 1
  26   13   14 ar
  27   13   28 1
  28   14   15 ar
  29   14   38 1
  30   15   39 1
  31   16   17 2
  32   16   18 am
  33   18   19 1
  34   18   40 1
  35   19   20 1
  36   19   21 1
  37   19   41 1
  38   20   25 1
  39   20   26 1
  40   20   27 1
  41   21   22 am
  42   21   23 2
  43   22   24 1
  44   22   42 1
  45   24   43 1
  46   24   44 1
  47   24   45 1
  48   25   46 1
  49   25   47 1
  50   25   48 1
  51   26   49 1
  52   26   50 1
  53   26   51 1
  54   27   52 1
  55   27   53 1
  56   27   54 1
  57   29   55 1
  58   29   56 1
  59   29   57 1

#	End of record

