#	Name: ASD01884144
#	Creating user name:	WinNT
#	Creation time:	15. 06. 2019 19:47

#	Modifying user name:	WinNT
#	Modification time:	15. 06. 2019 19:47

#	Program:	/corina/corina34_cracker 3.40 0067  02.08.2006

@<TRIPOS>MOLECULE
ASD01884144
  40   42    0    0    0
SMALL
NO_CHARGES


@<TRIPOS>ATOM
   1 C1            -0.0168     1.3876     0.0097 C.ar    
   2 C2             0.0021    -0.0041     0.0020 C.ar    
   3 C3            -1.2179    -0.6839     0.0105 C.ar    
   4 C4            -2.3907     0.0384     0.0260 C.ar    
   5 N5            -2.3749     1.3592     0.0330 N.ar    
   6 C6            -1.2406     2.0442     0.0307 C.ar    
   7 N7             1.2076    -0.7014    -0.0142 N.3     
   8 C8             1.3322    -1.5646     1.1673 C.3     
   9 C9             2.7236    -2.2014     1.1910 C.3     
  10 C10            2.7437    -2.1087    -1.3028 C.3     
  11 C11            1.3517    -1.4746    -1.2543 C.3     
  12 Cl12           1.4668     2.2891     0.0003 Cl      
  13 N13           -1.2759     3.4348     0.0383 N.pl3   
  14 N14           -2.4759     4.0875     0.0480 N.3     
  15 C15            4.3170    -3.6014    -0.0969 C.ar    
  16 C16            4.6346    -4.6190    -0.9769 C.ar    
  17 C17            5.9117    -5.1478    -0.9904 C.ar    
  18 C18            6.8715    -4.6586    -0.1241 C.ar    
  19 C19            6.5542    -3.6404     0.7554 C.ar    
  20 C20            5.2767    -3.1126     0.7698 C.ar    
  21 C21            2.9265    -3.0207    -0.0865 C.3     
  22 F22            1.9861    -4.0555    -0.1326 F       
  23 H23           -1.2415    -1.7636     0.0046 H       
  24 H24           -3.3366    -0.4826     0.0323 H       
  25 H25            1.1900    -0.9689     2.0689 H       
  26 H26            0.5751    -2.3477     1.1264 H       
  27 H27            3.4808    -1.4193     1.2459 H       
  28 H28            2.8102    -2.8542     2.0596 H       
  29 H29            2.8448    -2.6952    -2.2159 H       
  30 H30            3.5013    -1.3251    -1.2872 H       
  31 H31            0.5945    -2.2581    -1.2838 H       
  32 H32            1.2237    -0.8135    -2.1114 H       
  33 H33           -0.4485     3.9410     0.0367 H       
  34 H34           -2.3434     5.0878     0.0526 H       
  35 H35           -3.0490     3.8023    -0.7319 H       
  36 H36            3.8847    -5.0012    -1.6537 H       
  37 H37            6.1596    -5.9434    -1.6774 H       
  38 H38            7.8691    -5.0722    -0.1341 H       
  39 H39            7.3038    -3.2587     1.4327 H       
  40 H40            5.0286    -2.3175     1.4574 H       
@<TRIPOS>BOND
   1    1    2 ar
   2    1   12 1
   3    1    6 ar
   4    2    3 ar
   5    2    7 1
   6    3    4 ar
   7    3   23 1
   8    4    5 ar
   9    4   24 1
  10    5    6 ar
  11    6   13 1
  12    7    8 1
  13    7   11 1
  14    8    9 1
  15    8   25 1
  16    8   26 1
  17    9   21 1
  18    9   27 1
  19    9   28 1
  20   10   11 1
  21   10   21 1
  22   10   29 1
  23   10   30 1
  24   11   31 1
  25   11   32 1
  26   13   14 1
  27   13   33 1
  28   14   34 1
  29   14   35 1
  30   15   16 ar
  31   15   20 ar
  32   15   21 1
  33   16   17 ar
  34   16   36 1
  35   17   18 ar
  36   17   37 1
  37   18   19 ar
  38   18   38 1
  39   19   20 ar
  40   19   39 1
  41   20   40 1
  42   21   22 1

#	End of record

