#	Name: ASD07930751
#	Creating user name:	WinNT
#	Creation time:	15. 06. 2019 21:13

#	Modifying user name:	WinNT
#	Modification time:	15. 06. 2019 21:13

#	Program:	/corina/corina34_cracker 3.40 0067  02.08.2006

@<TRIPOS>MOLECULE
ASD07930751
  48   50    0    0    0
SMALL
NO_CHARGES


@<TRIPOS>ATOM
   1 C1            -0.0087     1.4559     0.0046 C.3     
   2 N2             0.8169    -0.4279    -2.1588 N.2     
   3 N3            -0.8713    -1.7905    -1.2901 N.pl3   
   4 C4            -0.8977    -2.8289    -0.2547 C.3     
   5 C5            -1.2113    -2.1830     1.1020 C.3     
   6 S6             0.0275    -0.8866     1.4172 S.o2    
   7 N7             0.0087    -0.0090     0.0010 N.am    
   8 C8             0.0099    -0.7341    -1.1821 C.2     
   9 C9             0.4659    -3.5195    -0.1888 C.3     
  10 O10           -0.4344     0.0222     2.4072 O.2     
  11 O11            1.3343    -1.4416     1.4767 O.2     
  12 C12           -1.9613    -3.8437    -0.5867 C.2     
  13 S13           -3.2970    -4.2059     0.4110 S.3     
  14 C14           -3.8943    -5.3955    -0.7378 C.2     
  15 C15           -3.0465    -5.4477    -1.8090 C.2     
  16 C16           -1.9870    -4.5770    -1.7065 C.2     
  17 Cl17          -0.7661    -4.4467    -2.9338 Cl      
  18 C18           -5.1064    -6.2020    -0.5732 C.2     
  19 O19           -5.7911    -6.0748     0.4249 O.2     
  20 N20           -5.4631    -7.0849    -1.5271 N.am    
  21 C21           -6.5533    -7.9276    -1.3235 C.ar    
  22 N22           -7.1749    -7.9251    -0.1549 N.ar    
  23 C23           -8.2111    -8.7075     0.0794 C.ar    
  24 C24           -8.6869    -9.5629    -0.8943 C.ar    
  25 C25           -8.0628    -9.5960    -2.1342 C.ar    
  26 C26           -6.9822    -8.7599    -2.3518 C.ar    
  27 C27           -8.8838    -8.6672     1.4273 C.3     
  28 C28           -7.8468    -8.9237     2.5227 C.3     
  29 H29            1.0146     1.8314    -0.0005 H       
  30 H30           -0.5320     1.8153    -0.8814 H       
  31 H31           -0.5215     1.8110     0.8985 H       
  32 H32            0.8042    -0.9458    -2.9789 H       
  33 H33           -1.4695    -1.8483    -2.0515 H       
  34 H34           -2.2074    -1.7411     1.0771 H       
  35 H35           -1.1626    -2.9367     1.8879 H       
  36 H36            1.2339    -2.7849     0.0534 H       
  37 H37            0.4456    -4.2911     0.5809 H       
  38 H38            0.6898    -3.9745    -1.1536 H       
  39 H39           -3.1959    -6.1045    -2.6532 H       
  40 H40           -4.9606    -7.1334    -2.3554 H       
  41 H41           -9.5355   -10.2000    -0.6935 H       
  42 H42           -8.4157   -10.2562    -2.9126 H       
  43 H43           -6.4735    -8.7596    -3.3045 H       
  44 H44           -9.3369    -7.6873     1.5782 H       
  45 H45           -9.6561    -9.4352     1.4711 H       
  46 H46           -7.3938    -9.9035     2.3718 H       
  47 H47           -7.0746    -8.1557     2.4789 H       
  48 H48           -8.3334    -8.8946     3.4976 H       
@<TRIPOS>BOND
   1    1    7 1
   2    1   29 1
   3    1   30 1
   4    1   31 1
   5    2    8 2
   6    2   32 1
   7    3    4 1
   8    3    8 1
   9    3   33 1
  10    4    5 1
  11    4    9 1
  12    4   12 1
  13    5    6 1
  14    5   34 1
  15    5   35 1
  16    6    7 am
  17    6   10 2
  18    6   11 2
  19    7    8 1
  20    9   36 1
  21    9   37 1
  22    9   38 1
  23   12   13 1
  24   12   16 2
  25   13   14 1
  26   14   15 2
  27   14   18 1
  28   15   16 1
  29   15   39 1
  30   16   17 1
  31   18   19 2
  32   18   20 am
  33   20   21 1
  34   20   40 1
  35   21   22 ar
  36   21   26 ar
  37   22   23 ar
  38   23   24 ar
  39   23   27 1
  40   24   25 ar
  41   24   41 1
  42   25   26 ar
  43   25   42 1
  44   26   43 1
  45   27   28 1
  46   27   44 1
  47   27   45 1
  48   28   46 1
  49   28   47 1
  50   28   48 1

#	End of record

