#	Name: ASD00731034
#	Creating user name:	WinNT
#	Creation time:	15. 06. 2019 18:37

#	Modifying user name:	WinNT
#	Modification time:	15. 06. 2019 18:37

#	Program:	/corina/corina34_cracker 3.40 0067  02.08.2006

@<TRIPOS>MOLECULE
ASD00731034
 308  311    0    0    0
SMALL
NO_CHARGES


@<TRIPOS>ATOM
   1 C1            -5.1353    -9.8976    -0.1172 C.2     
   2 O2            -5.3605    -9.8008    -1.3049 O.2     
   3 N3            -4.4631   -12.1980    -0.4988 N.am    
   4 C4            -4.3192   -11.0527     0.4033 C.3     
   5 C5            -2.8467   -10.6440     0.4778 C.3     
   6 C6            -2.6882    -9.4853     1.4643 C.3     
   7 C7            -2.9991    -9.9748     2.8802 C.3     
   8 C8            -1.2516    -8.9618     1.4096 C.3     
   9 C9            -6.1898    -6.6596     1.2042 C.2     
  10 O10           -5.5142    -6.7951     2.2022 O.2     
  11 N11           -5.6102    -8.9693     0.7367 N.am    
  12 C12           -6.3192    -7.7951     0.2219 C.3     
  13 C13           -7.7981    -8.1364     0.0289 C.3     
  14 C14           -7.9242    -9.3679    -0.8702 C.3     
  15 O15           -8.3933    -8.4108     1.2987 O.3     
  16 C16           -8.0198    -3.7040     2.0957 C.2     
  17 O17           -8.9900    -4.1061     1.4892 O.2     
  18 N18           -6.8248    -5.4934     0.9735 N.am    
  19 C19           -6.6865    -4.3842     1.9205 C.3     
  20 C20           -5.6674    -3.3780     1.3821 C.3     
  21 C21           -4.2949    -4.0001     1.3897 C.ar    
  22 C22           -3.8002    -4.5945     0.2435 C.ar    
  23 C23           -2.5425    -5.1659     0.2480 C.ar    
  24 C24           -1.7754    -5.1427     1.4037 C.ar    
  25 O25           -0.5377    -5.7037     1.4106 O.3     
  26 C26           -2.2739    -4.5453     2.5524 C.ar    
  27 C27           -3.5301    -3.9707     2.5412 C.ar    
  28 C28           -9.2130    -0.5610     3.5312 C.2     
  29 O29           -8.0865    -0.1383     3.6837 O.2     
  30 N30           -8.1340    -2.6488     2.9263 N.am    
  31 C31           -9.4301    -1.9875     3.0966 C.3     
  32 C32          -10.2438    -2.7267     4.1608 C.3     
  33 O33           -9.5906    -2.6097     5.4264 O.3     
  34 C34          -11.2740     2.1197     4.9201 C.2     
  35 O35          -12.2224     1.3817     5.0836 O.2     
  36 N36          -10.2707     0.2451     3.7505 N.am    
  37 C37          -10.0596     1.6319     4.1730 C.3     
  38 C38           -9.8311     2.5109     2.9418 C.3     
  39 C39           -8.6752     1.9420     2.1164 C.3     
  40 O40          -11.0180     2.5345     2.1464 O.3     
  41 C41          -13.5779     4.2262     5.3298 C.2     
  42 O42          -13.4565     4.1585     4.1250 O.2     
  43 N43          -11.3062     3.3762     5.4067 N.am    
  44 C44          -12.4382     3.8156     6.2262 C.3     
  45 C45          -12.0124     5.0062     7.0876 C.3     
  46 C46          -10.9597     4.5638     8.0710 C.2     
  47 O47          -10.6596     3.3960     8.1502 O.2     
  48 O48          -10.3553     5.4669     8.8589 O.3     
  49 C49          -16.7202     6.0525     5.7213 C.2     
  50 O50          -16.4488     6.3878     6.8548 O.2     
  51 N51          -14.7320     4.6687     5.8670 N.am    
  52 C52          -15.8400     5.0679     4.9956 C.3     
  53 C53          -16.6605     3.8335     4.6160 C.3     
  54 C54          -15.8014     2.8899     3.7720 C.3     
  55 C55          -16.6220     1.6555     3.3924 C.3     
  56 N56          -15.7994     0.7519     2.5843 N.pl3   
  57 C57          -16.3271    -0.4312     2.1240 C.2     
  58 N58          -15.5952    -1.2352     1.4049 N.2     
  59 N59          -17.6266    -0.7664     2.4221 N.pl3   
  60 C60          -20.0336     7.5101     5.3081 C.2     
  61 O61          -20.2987     6.9522     4.2644 O.2     
  62 N62          -17.8091     6.5605     5.1107 N.am    
  63 C63          -18.6028     7.5986     5.7729 C.3     
  64 C64          -18.0365     8.9758     5.4210 C.3     
  65 C65          -18.7665    10.0494     6.2305 C.3     
  66 C66          -18.4339     9.8833     7.7147 C.3     
  67 C67          -18.3197    11.4349     5.7597 C.3     
  68 C68          -23.1643     9.1752     6.1963 C.2     
  69 O69          -22.6134     9.9112     6.9874 O.2     
  70 N70          -21.0186     8.0509     6.0523 N.am    
  71 C71          -22.3974     8.0463     5.5573 C.3     
  72 C72          -23.0617     6.7141     5.9107 C.3     
  73 C73          -22.3592     5.5795     5.1624 C.3     
  74 C74          -23.0235     4.2473     5.5158 C.3     
  75 N75          -22.3508     3.1609     4.7993 N.pl3   
  76 C76          -22.7768     1.8638     4.9607 C.2     
  77 N77          -22.1783     0.8972     4.3231 N.2     
  78 N78          -23.8341     1.5861     5.7945 N.pl3   
  79 C79          -26.6778    10.1317     6.5185 C.2     
  80 O80          -27.0644     9.0813     6.0516 O.2     
  81 N81          -24.4624     9.3670     5.8887 N.am    
  82 C82          -25.2080    10.4645     6.5100 C.3     
  83 C83          -24.9809    11.7507     5.7131 C.3     
  84 C84          -23.5087    12.1565     5.8084 C.3     
  85 C85          -23.2816    13.4426     5.0115 C.3     
  86 C86          -21.8095    13.8484     5.1069 C.3     
  87 N87          -21.5914    15.0833     4.3417 N.3     
  88 C88          -29.7947    11.9523     7.0957 C.2     
  89 O89          -29.2294    13.0251     7.1170 O.2     
  90 N90          -27.5626    11.0015     7.0449 N.am    
  91 C91          -28.9914    10.6780     7.0532 C.3     
  92 C92          -29.3151     9.8297     8.2846 C.3     
  93 C93          -28.6067     8.5036     8.1815 C.2     
  94 C94          -29.1188     7.3602     7.6995 C.2     
  95 N95          -28.1814     6.3655     7.7637 N.pl3   
  96 C96          -27.0134     6.8571     8.3024 C.ar    
  97 C97          -25.7754     6.2892     8.5840 C.ar    
  98 C98          -24.7778     7.0624     9.1369 C.ar    
  99 C99          -24.9950     8.4043     9.4165 C.ar    
 100 C100         -26.2039     8.9825     9.1482 C.ar    
 101 C101         -27.2267     8.2194     8.5823 C.ar    
 102 C102         -33.2724    12.8613     7.7607 C.2     
 103 O103         -33.5546    11.7393     8.1245 O.2     
 104 N104         -31.1414    11.8999     7.1101 N.am    
 105 C105         -31.9223    13.1387     7.1514 C.3     
 106 C106         -32.1045    13.6744     5.7299 C.3     
 107 C107         -30.7432    14.0730     5.1567 C.3     
 108 S108         -30.9593    14.7081     3.4713 S.3     
 109 C109         -29.2653    15.1207     2.9703 C.3     
 110 C110         -36.4701    14.6156     8.0061 C.2     
 111 O111         -36.1152    15.4858     7.2395 O.2     
 112 N112         -34.1664    13.8601     7.9013 N.am    
 113 C113         -35.4789    13.5905     8.4935 C.3     
 114 C114         -35.3756    13.6656    10.0182 C.3     
 115 C115         -34.4791    12.5612    10.5159 C.ar    
 116 C116         -33.1201    12.7791    10.6443 C.ar    
 117 C117         -32.2977    11.7661    11.1008 C.ar    
 118 C118         -32.8345    10.5353    11.4294 C.ar    
 119 C119         -34.1936    10.3177    11.3019 C.ar    
 120 C120         -35.0166    11.3321    10.8495 C.ar    
 121 C121         -38.6328    16.7919     8.8153 C.2     
 122 O122         -37.8498    16.8319     9.7346 O.2     
 123 N123         -37.7511    14.5654     8.4221 N.am    
 124 C124         -38.7147    15.5620     7.9483 C.3     
 125 C125         -40.1278    14.9799     8.0211 C.3     
 126 C126         -41.1201    15.9720     7.4111 C.3     
 127 C127         -42.5129    15.3402     7.3700 C.3     
 128 C128         -40.4984    14.7217     9.4829 C.3     
 129 O129         -39.4296    17.8429     8.5662 O.3     
 130 C130          -4.3441   -13.4522    -0.0199 C.2     
 131 O131          -4.0286   -13.6320     1.1373 O.2     
 132 C132          -5.0269   -32.0912    -1.8384 C.3     
 133 C133          -4.7638   -30.8944    -0.9223 C.3     
 134 C134          -4.9663   -29.5969    -1.7075 C.3     
 135 C135          -4.7033   -28.4001    -0.7914 C.3     
 136 C136          -4.9058   -27.1026    -1.5766 C.3     
 137 C137          -4.6428   -25.9057    -0.6605 C.3     
 138 C138          -4.8453   -24.6083    -1.4457 C.3     
 139 C139          -4.5823   -23.4114    -0.5296 C.3     
 140 C140          -4.7848   -22.1140    -1.3148 C.3     
 141 C141          -4.5217   -20.9171    -0.3987 C.3     
 142 C142          -4.7243   -19.6197    -1.1839 C.3     
 143 C143          -4.4612   -18.4228    -0.2679 C.3     
 144 C144          -4.6638   -17.1254    -1.0531 C.3     
 145 C145          -4.4007   -15.9285    -0.1370 C.3     
 146 C146          -4.6032   -14.6310    -0.9222 C.3     
 147 H147          -4.6440   -12.0537    -1.4408 H       
 148 H148          -4.6709   -11.3271     1.3978 H       
 149 H149          -2.2508   -11.4923     0.8149 H       
 150 H150          -2.5063   -10.3302    -0.5090 H       
 151 H151          -3.3773    -8.6841     1.1974 H       
 152 H152          -2.2722   -10.7335     3.1701 H       
 153 H153          -2.9456    -9.1363     3.5745 H       
 154 H154          -4.0010   -10.4034     2.9046 H       
 155 H155          -1.0370    -8.5937     0.4064 H       
 156 H156          -1.1331    -8.1502     2.1275 H       
 157 H157          -0.5613    -9.7685     1.6561 H       
 158 H158          -5.4826    -9.0785     1.6920 H       
 159 H159          -5.8867    -7.4997    -0.7340 H       
 160 H160          -8.3079    -7.2929    -0.4367 H       
 161 H161          -7.4144   -10.2114    -0.4046 H       
 162 H162          -8.9778    -9.6110    -1.0077 H       
 163 H163          -7.4702    -9.1586    -1.8388 H       
 164 H164          -7.9889    -9.1514     1.7709 H       
 165 H165          -7.3734    -5.3884     0.1805 H       
 166 H166          -6.3452    -4.7678     2.8820 H       
 167 H167          -5.9348    -3.1003     0.3626 H       
 168 H168          -5.6668    -2.4888     2.0126 H       
 169 H169          -4.3977    -4.6123    -0.6560 H       
 170 H170          -2.1568    -5.6307    -0.6474 H       
 171 H171           0.1717    -5.0946     1.1640 H       
 172 H172          -1.6788    -4.5263     3.4535 H       
 173 H173          -3.9168    -3.5016     3.4339 H       
 174 H174          -7.3580    -2.3272     3.4114 H       
 175 H175          -9.9718    -2.0008     2.1509 H       
 176 H176         -11.2404    -2.2898     4.2246 H       
 177 H177         -10.3252    -3.7793     3.8898 H       
 178 H178         -10.0519    -3.0557     6.1498 H       
 179 H179         -11.1716    -0.0930     3.6285 H       
 180 H180          -9.1870     1.6845     4.8241 H       
 181 H181          -9.5863     3.5245     3.2594 H       
 182 H182          -8.9200     0.9285     1.7987 H       
 183 H183          -8.5124     2.5683     1.2392 H       
 184 H184          -7.7699     1.9240     2.7231 H       
 185 H185         -11.2956     1.6646     1.8283 H       
 186 H186         -10.5798     3.9895     5.2142 H       
 187 H187         -12.7595     2.9973     6.8707 H       
 188 H188         -11.6061     5.7902     6.4486 H       
 189 H189         -12.8768     5.3905     7.6291 H       
 190 H190          -9.6866     5.1355     9.4738 H       
 191 H191         -14.8291     4.7229     6.8306 H       
 192 H192         -15.4431     5.5320     4.0927 H       
 193 H193         -16.9831     3.3193     5.5213 H       
 194 H194         -17.5345     4.1408     4.0416 H       
 195 H195         -15.4788     3.4041     2.8667 H       
 196 H196         -14.9275     2.5826     4.3464 H       
 197 H197         -16.9446     1.1412     4.2977 H       
 198 H198         -17.4959     1.9628     2.8180 H       
 199 H199         -14.8825     0.9884     2.3739 H       
 200 H200         -15.9675    -2.0699     1.0802 H       
 201 H201         -18.1713    -0.1681     2.9572 H       
 202 H202         -17.9989    -1.6012     2.0973 H       
 203 H203         -18.0672     6.2388     4.2328 H       
 204 H204         -18.5619     7.4540     6.8525 H       
 205 H205         -16.9729     9.0026     5.6578 H       
 206 H206         -18.1767     9.1651     4.3568 H       
 207 H207         -19.8418     9.9456     6.0853 H       
 208 H208         -17.3697    10.0603     7.8705 H       
 209 H209         -19.0108    10.6002     8.2988 H       
 210 H210         -18.6841     8.8709     8.0320 H       
 211 H211         -18.5567    11.5533     4.7024 H       
 212 H212         -18.8398    12.1998     6.3365 H       
 213 H213         -17.2444    11.5387     5.9049 H       
 214 H214         -20.8145     8.4432     6.9157 H       
 215 H215         -22.3953     8.1754     4.4749 H       
 216 H216         -22.9849     6.5434     6.9845 H       
 217 H217         -24.1123     6.7441     5.6218 H       
 218 H218         -22.4360     5.7502     4.0886 H       
 219 H219         -21.3086     5.5495     5.4512 H       
 220 H220         -22.9467     4.0766     6.5896 H       
 221 H221         -24.0741     4.2773     5.2269 H       
 222 H222         -21.6049     3.3568     4.2110 H       
 223 H223         -22.4789    -0.0180     4.4370 H       
 224 H224         -24.2795     2.3055     6.2689 H       
 225 H225         -24.1346     0.6709     5.9084 H       
 226 H226         -24.9031     8.7784     5.2561 H       
 227 H227         -24.8614    10.6054     7.5338 H       
 228 H228         -25.2445    11.5825     4.6689 H       
 229 H229         -25.6042    12.5461     6.1216 H       
 230 H230         -23.2451    12.3247     6.8526 H       
 231 H231         -22.8854    11.3611     5.3999 H       
 232 H232         -23.5452    13.2744     3.9673 H       
 233 H233         -23.9050    14.2380     5.4200 H       
 234 H234         -21.5459    14.0166     6.1510 H       
 235 H235         -21.1862    13.0530     4.6983 H       
 236 H236         -22.2050    15.8187     4.6594 H       
 237 H237         -20.6259    15.3723     4.3891 H       
 238 H238         -27.2533    11.8416     7.4183 H       
 239 H239         -29.2428    10.1200     6.1513 H       
 240 H240         -28.9822    10.3506     9.1824 H       
 241 H241         -30.3911     9.6637     8.3388 H       
 242 H242         -30.1223     7.2426     7.3179 H       
 243 H243         -28.3191     5.4504     7.4731 H       
 244 H244         -25.5967     5.2457     8.3705 H       
 245 H245         -23.8173     6.6195     9.3552 H       
 246 H246         -24.2025     8.9964     9.8498 H       
 247 H247         -26.3658    10.0273     9.3688 H       
 248 H248         -31.5935    11.0419     7.0930 H       
 249 H249         -31.3969    13.8794     7.7543 H       
 250 H250         -32.5497    12.9007     5.1044 H       
 251 H251         -32.7591    14.5457     5.7511 H       
 252 H252         -30.2980    14.8467     5.7822 H       
 253 H253         -30.0886    13.2017     5.1355 H       
 254 H254         -29.2732    15.5186     1.9556 H       
 255 H255         -28.8571    15.8682     3.6506 H       
 256 H256         -28.6477    14.2231     3.0038 H       
 257 H257         -33.9407    14.7575     7.6103 H       
 258 H258         -35.8121    12.5948     8.2005 H       
 259 H259         -34.9583    14.6302    10.3070 H       
 260 H260         -36.3676    13.5532    10.4556 H       
 261 H261         -32.7007    13.7407    10.3876 H       
 262 H262         -31.2359    11.9361    11.2004 H       
 263 H263         -32.1919     9.7436    11.7854 H       
 264 H264         -34.6129     9.3560    11.5583 H       
 265 H265         -36.0789    11.1632    10.7534 H       
 266 H266         -38.0350    13.8695     9.0353 H       
 267 H267         -38.4843    15.8285     6.9168 H       
 268 H268         -40.1637    14.0425     7.4661 H       
 269 H269         -41.1492    16.8767     8.0184 H       
 270 H270         -40.8055    16.2242     6.3984 H       
 271 H271         -43.2198    16.0470     6.9355 H       
 272 H272         -42.4838    14.4356     6.7627 H       
 273 H273         -42.8275    15.0880     8.3827 H       
 274 H274         -41.5051    14.3070     9.5348 H       
 275 H275         -39.7915    14.0149     9.9175 H       
 276 H276         -40.4625    15.6591    10.0379 H       
 277 H277         -39.3408    18.6092     9.1494 H       
 278 H278          -4.8826   -33.0156    -1.2790 H       
 279 H279          -6.0510   -32.0469    -2.2090 H       
 280 H280          -4.3345   -32.0639    -2.6797 H       
 281 H281          -5.4562   -30.9217    -0.0809 H       
 282 H282          -3.7397   -30.9387    -0.5517 H       
 283 H283          -4.2739   -29.5696    -2.5489 H       
 284 H284          -5.9904   -29.5526    -2.0781 H       
 285 H285          -5.3957   -28.4274     0.0500 H       
 286 H286          -3.6792   -28.4443    -0.4208 H       
 287 H287          -4.2134   -27.0753    -2.4180 H       
 288 H288          -5.9299   -27.0583    -1.9472 H       
 289 H289          -5.3352   -25.9331     0.1809 H       
 290 H290          -3.6187   -25.9500    -0.2899 H       
 291 H291          -4.1529   -24.5809    -2.2871 H       
 292 H292          -5.8694   -24.5640    -1.8163 H       
 293 H293          -5.2747   -23.4388     0.3118 H       
 294 H294          -3.5582   -23.4557    -0.1590 H       
 295 H295          -4.0924   -22.0866    -2.1562 H       
 296 H296          -5.8089   -22.0697    -1.6855 H       
 297 H297          -5.2141   -20.9445     0.4426 H       
 298 H298          -3.4976   -20.9614    -0.0281 H       
 299 H299          -4.0319   -19.5923    -2.0253 H       
 300 H300          -5.7484   -19.5754    -1.5546 H       
 301 H301          -5.1536   -18.4501     0.5735 H       
 302 H302          -3.4371   -18.4671     0.1028 H       
 303 H303          -3.9713   -17.0980    -1.8944 H       
 304 H304          -5.6878   -17.0811    -1.4237 H       
 305 H305          -5.0931   -15.9558     0.7044 H       
 306 H306          -3.3766   -15.9728     0.2337 H       
 307 H307          -5.6273   -14.5867    -1.2928 H       
 308 H308          -3.9108   -14.6037    -1.7636 H       
@<TRIPOS>BOND
   1    1    2 2
   2    1    4 1
   3    1   11 am
   4    3  130 am
   5    3    4 1
   6    3  147 1
   7    4    5 1
   8    4  148 1
   9    5    6 1
  10    5  149 1
  11    5  150 1
  12    6    7 1
  13    6    8 1
  14    6  151 1
  15    7  152 1
  16    7  153 1
  17    7  154 1
  18    8  155 1
  19    8  156 1
  20    8  157 1
  21    9   10 2
  22    9   12 1
  23    9   18 am
  24   11   12 1
  25   11  158 1
  26   12   13 1
  27   12  159 1
  28   13   14 1
  29   13   15 1
  30   13  160 1
  31   14  161 1
  32   14  162 1
  33   14  163 1
  34   15  164 1
  35   16   17 2
  36   16   19 1
  37   16   30 am
  38   18   19 1
  39   18  165 1
  40   19   20 1
  41   19  166 1
  42   20   21 1
  43   20  167 1
  44   20  168 1
  45   21   22 ar
  46   21   27 ar
  47   22   23 ar
  48   22  169 1
  49   23   24 ar
  50   23  170 1
  51   24   25 1
  52   24   26 ar
  53   25  171 1
  54   26   27 ar
  55   26  172 1
  56   27  173 1
  57   28   29 2
  58   28   31 1
  59   28   36 am
  60   30   31 1
  61   30  174 1
  62   31   32 1
  63   31  175 1
  64   32   33 1
  65   32  176 1
  66   32  177 1
  67   33  178 1
  68   34   35 2
  69   34   37 1
  70   34   43 am
  71   36   37 1
  72   36  179 1
  73   37   38 1
  74   37  180 1
  75   38   39 1
  76   38   40 1
  77   38  181 1
  78   39  182 1
  79   39  183 1
  80   39  184 1
  81   40  185 1
  82   41   42 2
  83   41   44 1
  84   41   51 am
  85   43   44 1
  86   43  186 1
  87   44   45 1
  88   44  187 1
  89   45   46 1
  90   45  188 1
  91   45  189 1
  92   46   47 2
  93   46   48 1
  94   48  190 1
  95   49   50 2
  96   49   52 1
  97   49   62 am
  98   51   52 1
  99   51  191 1
 100   52   53 1
 101   52  192 1
 102   53   54 1
 103   53  193 1
 104   53  194 1
 105   54   55 1
 106   54  195 1
 107   54  196 1
 108   55   56 1
 109   55  197 1
 110   55  198 1
 111   56   57 1
 112   56  199 1
 113   57   58 2
 114   57   59 1
 115   58  200 1
 116   59  201 1
 117   59  202 1
 118   60   61 2
 119   60   63 1
 120   60   70 am
 121   62   63 1
 122   62  203 1
 123   63   64 1
 124   63  204 1
 125   64   65 1
 126   64  205 1
 127   64  206 1
 128   65   66 1
 129   65   67 1
 130   65  207 1
 131   66  208 1
 132   66  209 1
 133   66  210 1
 134   67  211 1
 135   67  212 1
 136   67  213 1
 137   68   69 2
 138   68   71 1
 139   68   81 am
 140   70   71 1
 141   70  214 1
 142   71   72 1
 143   71  215 1
 144   72   73 1
 145   72  216 1
 146   72  217 1
 147   73   74 1
 148   73  218 1
 149   73  219 1
 150   74   75 1
 151   74  220 1
 152   74  221 1
 153   75   76 1
 154   75  222 1
 155   76   77 2
 156   76   78 1
 157   77  223 1
 158   78  224 1
 159   78  225 1
 160   79   80 2
 161   79   82 1
 162   79   90 am
 163   81   82 1
 164   81  226 1
 165   82   83 1
 166   82  227 1
 167   83   84 1
 168   83  228 1
 169   83  229 1
 170   84   85 1
 171   84  230 1
 172   84  231 1
 173   85   86 1
 174   85  232 1
 175   85  233 1
 176   86   87 1
 177   86  234 1
 178   86  235 1
 179   87  236 1
 180   87  237 1
 181   88   89 2
 182   88   91 1
 183   88  104 am
 184   90   91 1
 185   90  238 1
 186   91   92 1
 187   91  239 1
 188   92   93 1
 189   92  240 1
 190   92  241 1
 191   93   94 2
 192   93  101 1
 193   94   95 1
 194   94  242 1
 195   95   96 1
 196   95  243 1
 197   96   97 ar
 198   96  101 ar
 199   97   98 ar
 200   97  244 1
 201   98   99 ar
 202   98  245 1
 203   99  100 ar
 204   99  246 1
 205  100  101 ar
 206  100  247 1
 207  102  103 2
 208  102  105 1
 209  102  112 am
 210  104  105 1
 211  104  248 1
 212  105  106 1
 213  105  249 1
 214  106  107 1
 215  106  250 1
 216  106  251 1
 217  107  108 1
 218  107  252 1
 219  107  253 1
 220  108  109 1
 221  109  254 1
 222  109  255 1
 223  109  256 1
 224  110  111 2
 225  110  113 1
 226  110  123 am
 227  112  113 1
 228  112  257 1
 229  113  114 1
 230  113  258 1
 231  114  115 1
 232  114  259 1
 233  114  260 1
 234  115  116 ar
 235  115  120 ar
 236  116  117 ar
 237  116  261 1
 238  117  118 ar
 239  117  262 1
 240  118  119 ar
 241  118  263 1
 242  119  120 ar
 243  119  264 1
 244  120  265 1
 245  121  122 2
 246  121  124 1
 247  121  129 1
 248  123  124 1
 249  123  266 1
 250  124  125 1
 251  124  267 1
 252  125  126 1
 253  125  128 1
 254  125  268 1
 255  126  127 1
 256  126  269 1
 257  126  270 1
 258  127  271 1
 259  127  272 1
 260  127  273 1
 261  128  274 1
 262  128  275 1
 263  128  276 1
 264  129  277 1
 265  130  131 2
 266  130  146 1
 267  132  133 1
 268  132  278 1
 269  132  279 1
 270  132  280 1
 271  133  134 1
 272  133  281 1
 273  133  282 1
 274  134  135 1
 275  134  283 1
 276  134  284 1
 277  135  136 1
 278  135  285 1
 279  135  286 1
 280  136  137 1
 281  136  287 1
 282  136  288 1
 283  137  138 1
 284  137  289 1
 285  137  290 1
 286  138  139 1
 287  138  291 1
 288  138  292 1
 289  139  140 1
 290  139  293 1
 291  139  294 1
 292  140  141 1
 293  140  295 1
 294  140  296 1
 295  141  142 1
 296  141  297 1
 297  141  298 1
 298  142  143 1
 299  142  299 1
 300  142  300 1
 301  143  144 1
 302  143  301 1
 303  143  302 1
 304  144  145 1
 305  144  303 1
 306  144  304 1
 307  145  146 1
 308  145  305 1
 309  145  306 1
 310  146  307 1
 311  146  308 1

#	End of record

