#	Name: ASD03092945
#	Creating user name:	WinNT
#	Creation time:	15. 06. 2019 20:33

#	Modifying user name:	WinNT
#	Modification time:	15. 06. 2019 20:33

#	Program:	/corina/corina34_cracker 3.40 0067  02.08.2006

@<TRIPOS>MOLECULE
ASD03092945
  52   55    0    0    0
SMALL
NO_CHARGES


@<TRIPOS>ATOM
   1 F1            -1.7250     1.9846    -5.3123 F       
   2 C2            -1.5256     3.2001    -4.7572 C.ar    
   3 C3            -2.5719     4.1037    -4.6769 C.ar    
   4 C4            -2.3698     5.3467    -4.1098 C.ar    
   5 C5            -1.1172     5.6900    -3.6202 C.ar    
   6 C6            -0.0696     4.7830    -3.7016 C.ar    
   7 C7            -0.2767     3.5387    -4.2642 C.ar    
   8 N8            -0.9100     6.9525    -3.0441 N.pl3   
   9 C9            -1.2597     8.1521    -3.5793 C.2     
  10 N10           -0.9047     9.0962    -2.7513 N.2     
  11 C11           -0.3244     8.5474    -1.6733 C.2     
  12 C12            0.2239     9.2972    -0.4867 C.3     
  13 C13            1.3296    10.2480    -0.9509 C.3     
  14 C14            1.9082    10.9830     0.2623 C.3     
  15 N15            0.8106    11.6407     0.9844 N.am    
  16 C16           -0.3462    10.8346     1.3977 C.3     
  17 C17           -0.8994    10.1013     0.1718 C.3     
  18 C18            0.8640    12.9584     1.2627 C.2     
  19 O19            1.8635    13.5935     1.0006 O.2     
  20 C20           -0.3181    13.6425     1.8995 C.3     
  21 C21           -0.2599    13.4541     3.4167 C.3     
  22 C22           -1.4601    14.1487     4.0633 C.3     
  23 C23           -1.4238    15.6422     3.7331 C.3     
  24 F24           -2.5212    16.2774     4.3243 F       
  25 F25           -0.2400    16.2004     4.2273 F       
  26 C26           -1.4819    15.8306     2.2158 C.3     
  27 C27           -0.2818    15.1360     1.5693 C.3     
  28 C28           -0.3220     7.2089    -1.8326 C.2     
  29 Cl29           0.3084     6.0355    -0.7193 Cl      
  30 H30           -3.5463     3.8364    -5.0582 H       
  31 H31           -3.1859     6.0513    -4.0476 H       
  32 H32            0.9058     5.0485    -3.3215 H       
  33 H33            0.5369     2.8310    -4.3234 H       
  34 H34           -1.7491     8.2993    -4.5307 H       
  35 H35            0.6333     8.5885     0.2332 H       
  36 H36            2.1185     9.6771    -1.4406 H       
  37 H37            0.9157    10.9727    -1.6520 H       
  38 H38            2.4025    10.2687     0.9207 H       
  39 H39            2.6260    11.7320    -0.0724 H       
  40 H40           -0.0357    10.1082     2.1487 H       
  41 H41           -1.1158    11.4857     1.8122 H       
  42 H42           -1.2924    10.8274    -0.5398 H       
  43 H43           -1.6971     9.4259     0.4812 H       
  44 H44           -1.2404    13.2076     1.5145 H       
  45 H45           -0.2858    12.3901     3.6520 H       
  46 H46            0.6624    13.8890     3.8018 H       
  47 H47           -2.3824    13.7138     3.6782 H       
  48 H48           -1.4187    14.0145     5.1442 H       
  49 H49           -2.4042    15.3957     1.8308 H       
  50 H50           -1.4560    16.8946     1.9806 H       
  51 H51            0.6406    15.5709     1.9543 H       
  52 H52           -0.3232    15.2703     0.4884 H       
@<TRIPOS>BOND
   1    1    2 1
   2    2    7 ar
   3    2    3 ar
   4    3    4 ar
   5    3   30 1
   6    4    5 ar
   7    4   31 1
   8    5    6 ar
   9    5    8 1
  10    6    7 ar
  11    6   32 1
  12    7   33 1
  13    8   28 1
  14    8    9 1
  15    9   10 2
  16    9   34 1
  17   10   11 1
  18   11   12 1
  19   11   28 2
  20   12   17 1
  21   12   13 1
  22   12   35 1
  23   13   14 1
  24   13   36 1
  25   13   37 1
  26   14   15 1
  27   14   38 1
  28   14   39 1
  29   15   16 1
  30   15   18 am
  31   16   17 1
  32   16   40 1
  33   16   41 1
  34   17   42 1
  35   17   43 1
  36   18   19 2
  37   18   20 1
  38   20   27 1
  39   20   21 1
  40   20   44 1
  41   21   22 1
  42   21   45 1
  43   21   46 1
  44   22   23 1
  45   22   47 1
  46   22   48 1
  47   23   24 1
  48   23   25 1
  49   23   26 1
  50   26   27 1
  51   26   49 1
  52   26   50 1
  53   27   51 1
  54   27   52 1
  55   28   29 1

#	End of record

