#	Name: ASD03090269
#	Creating user name:	WinNT
#	Creation time:	15. 06. 2019 20:28

#	Modifying user name:	WinNT
#	Modification time:	15. 06. 2019 20:28

#	Program:	/corina/corina34_cracker 3.40 0067  02.08.2006

@<TRIPOS>MOLECULE
ASD03090269
  48   50    0    0    0
SMALL
NO_CHARGES


@<TRIPOS>ATOM
   1 C1            -0.2183     1.0467    -0.8619 C.ar    
   2 N2             0.8832     1.5092    -1.4218 N.ar    
   3 C3             2.0462     0.9115    -1.2661 C.ar    
   4 C4             2.1515    -0.2456    -0.4939 C.ar    
   5 C5             1.0008    -0.7604     0.1128 C.ar    
   6 C6            -0.1971    -0.0948    -0.0815 C.ar    
   7 C7             3.4583    -0.9174    -0.3199 C.2     
   8 N8             6.9695    -1.0571    -0.4156 N.pl3   
   9 C9             7.4373     0.1427    -0.9616 C.ar    
  10 C10            6.6884     0.8076    -1.9237 C.ar    
  11 C11            7.1524     1.9923    -2.4615 C.ar    
  12 C12            8.3632     2.5168    -2.0423 C.ar    
  13 C13            9.1117     1.8554    -1.0829 C.ar    
  14 C14            8.6489     0.6740    -0.5380 C.ar    
  15 N15            4.6413    -0.3834    -0.5491 N.2     
  16 C16            5.5968    -1.2763    -0.2851 C.2     
  17 N17            5.0384    -2.3947     0.1169 N.2     
  18 N18            3.6499    -2.1854     0.1077 N.pl3   
  19 C19            2.6140    -3.1521     0.4801 C.3     
  20 F20            8.8155     3.6752    -2.5703 F       
  21 C21            2.3697    -3.0821     1.9888 C.3     
  22 C22            1.3041    -4.0765     2.3719 C.2     
  23 N23            0.9218    -4.1922     3.6591 N.am    
  24 O24            0.7906    -4.7727     1.5218 O.2     
  25 C25           -0.1141    -5.1589     4.0314 C.3     
  26 C26            1.5420    -3.3512     4.6859 C.3     
  27 C27           10.4293     2.4288    -0.6288 C.3     
  28 F28           10.9948     1.5897     0.3373 F       
  29 F29           11.2954     2.5307    -1.7227 F       
  30 F30           10.2208     3.6984    -0.0793 F       
  31 H31           -1.1508     1.5706    -1.0118 H       
  32 H32            2.9260     1.3204    -1.7405 H       
  33 H33            1.0460    -1.6544     0.7170 H       
  34 H34           -1.1058    -0.4631     0.3714 H       
  35 H35            7.5988    -1.7368    -0.1277 H       
  36 H36            5.7442     0.3985    -2.2514 H       
  37 H37            6.5703     2.5097    -3.2097 H       
  38 H38            9.2328     0.1588     0.2103 H       
  39 H39            1.6904    -2.9168    -0.0488 H       
  40 H40            2.9409    -4.1566     0.2112 H       
  41 H41            3.2933    -3.3174     2.5178 H       
  42 H42            2.0428    -2.0776     2.2577 H       
  43 H43            0.3509    -6.1144     4.2739 H       
  44 H44           -0.6602    -4.7899     4.8996 H       
  45 H45           -0.8038    -5.2916     3.1979 H       
  46 H46            2.2837    -2.7002     4.2231 H       
  47 H47            0.7767    -2.7440     5.1693 H       
  48 H48            2.0271    -3.9838     5.4293 H       
@<TRIPOS>BOND
   1    1    2 ar
   2    1    6 ar
   3    1   31 1
   4    2    3 ar
   5    3    4 ar
   6    3   32 1
   7    4    5 ar
   8    4    7 1
   9    5    6 ar
  10    5   33 1
  11    6   34 1
  12    7   15 2
  13    7   18 1
  14    8    9 1
  15    8   16 1
  16    8   35 1
  17    9   10 ar
  18    9   14 ar
  19   10   11 ar
  20   10   36 1
  21   11   12 ar
  22   11   37 1
  23   12   13 ar
  24   12   20 1
  25   13   14 ar
  26   13   27 1
  27   14   38 1
  28   15   16 1
  29   16   17 2
  30   17   18 1
  31   18   19 1
  32   19   21 1
  33   19   39 1
  34   19   40 1
  35   21   22 1
  36   21   41 1
  37   21   42 1
  38   22   23 am
  39   22   24 2
  40   23   25 1
  41   23   26 1
  42   25   43 1
  43   25   44 1
  44   25   45 1
  45   26   46 1
  46   26   47 1
  47   26   48 1
  48   27   28 1
  49   27   29 1
  50   27   30 1

#	End of record

