#	Name: ASD01812832
#	Creating user name:	WinNT
#	Creation time:	15. 06. 2019 19:29

#	Modifying user name:	WinNT
#	Modification time:	15. 06. 2019 19:29

#	Program:	/corina/corina34_cracker 3.40 0067  02.08.2006

@<TRIPOS>MOLECULE
ASD01812832
  56   60    0    0    0
SMALL
NO_CHARGES


@<TRIPOS>ATOM
   1 C1            -0.0166     1.3764     0.0096 C.ar    
   2 C2             0.0021    -0.0041     0.0020 C.ar    
   3 C3             1.2089    -0.6872    -0.0127 C.ar    
   4 C4             2.3941     0.0075    -0.0203 C.ar    
   5 C5             2.3941     1.4057    -0.0132 C.ar    
   6 C6             1.1719     2.0915     0.0021 C.ar    
   7 C7             3.8413    -0.4177    -0.0364 C.3     
   8 N8             4.6313     0.8189    -0.0378 N.am    
   9 C9             3.7915     1.8684    -0.0244 C.2     
  10 C10            6.0942     0.8968    -0.0511 C.3     
  11 C11            6.5825     0.9304    -1.4764 C.ar    
  12 C12            6.7420     2.1435    -2.1217 C.ar    
  13 C13            7.1889     2.1802    -3.4270 C.ar    
  14 C14            7.4800     0.9922    -4.0946 C.ar    
  15 C15            7.3179    -0.2270    -3.4395 C.ar    
  16 C16            6.8750    -0.2516    -2.1326 C.ar    
  17 O17            1.1515     3.4479     0.0091 O.3     
  18 O18            4.1370     3.0341    -0.0215 O.2     
  19 C19            7.9603     1.0252    -5.4981 C.ar    
  20 C20            8.1299     2.2353    -6.1751 C.ar    
  21 N21            8.5583     2.2310    -7.4218 N.ar    
  22 N22            8.8303     1.1458    -8.0496 N.ar    
  23 C23            8.7018    -0.0454    -7.4951 C.ar    
  24 C24            8.2645    -0.1552    -6.1872 C.ar    
  25 C25            9.0367    -1.2845    -8.2846 C.3     
  26 C26           -0.1314     4.0773     0.0243 C.3     
  27 C27            0.0461     5.5969     0.0302 C.3     
  28 O28            0.6256     6.0233    -1.2083 O.3     
  29 C29           -0.2819     6.8960    -1.8999 C.3     
  30 C30           -1.1849     7.4988    -0.7944 C.3     
  31 C31           -1.3298     6.2844     0.1627 C.3     
  32 H32           -0.9604     1.9015     0.0169 H       
  33 H33           -0.9272    -0.5544     0.0079 H       
  34 H34            1.2170    -1.7672    -0.0179 H       
  35 H35            4.0688    -1.0067     0.8521 H       
  36 H36            4.0515    -0.9977    -0.9350 H       
  37 H37            6.4145     1.8024     0.4641 H       
  38 H38            6.5091     0.0250     0.4546 H       
  39 H39            6.5161     3.0636    -1.6033 H       
  40 H40            7.3125     3.1278    -3.9301 H       
  41 H41            7.5421    -1.1507    -3.9523 H       
  42 H42            6.7525    -1.1957    -1.6227 H       
  43 H43            7.9109     3.1697    -5.6798 H       
  44 H44            8.1576    -1.1202    -5.7142 H       
  45 H45           10.0884    -1.5330    -8.1419 H       
  46 H46            8.4177    -2.1130    -7.9404 H       
  47 H47            8.8464    -1.1038    -9.3425 H       
  48 H48           -0.6922     3.7805    -0.8620 H       
  49 H49           -0.6756     3.7715     0.9178 H       
  50 H50            0.6892     5.8907     0.8599 H       
  51 H51            0.2684     7.6858    -2.4113 H       
  52 H52           -0.8824     6.3300    -2.6120 H       
  53 H53           -0.6924     8.3344    -0.2971 H       
  54 H54           -2.1522     7.7989    -1.1976 H       
  55 H55           -2.1284     5.6214    -0.1700 H       
  56 H56           -1.5008     6.6159     1.1869 H       
@<TRIPOS>BOND
   1    1    2 ar
   2    1    6 ar
   3    1   32 1
   4    2    3 ar
   5    2   33 1
   6    3    4 ar
   7    3   34 1
   8    4    7 1
   9    4    5 ar
  10    5    6 ar
  11    5    9 1
  12    6   17 1
  13    7    8 1
  14    7   35 1
  15    7   36 1
  16    8    9 am
  17    8   10 1
  18    9   18 2
  19   10   11 1
  20   10   37 1
  21   10   38 1
  22   11   12 ar
  23   11   16 ar
  24   12   13 ar
  25   12   39 1
  26   13   14 ar
  27   13   40 1
  28   14   15 ar
  29   14   19 1
  30   15   16 ar
  31   15   41 1
  32   16   42 1
  33   17   26 1
  34   19   20 ar
  35   19   24 ar
  36   20   21 ar
  37   20   43 1
  38   21   22 ar
  39   22   23 ar
  40   23   24 ar
  41   23   25 1
  42   24   44 1
  43   25   45 1
  44   25   46 1
  45   25   47 1
  46   26   27 1
  47   26   48 1
  48   26   49 1
  49   27   28 1
  50   27   31 1
  51   27   50 1
  52   28   29 1
  53   29   30 1
  54   29   51 1
  55   29   52 1
  56   30   31 1
  57   30   53 1
  58   30   54 1
  59   31   55 1
  60   31   56 1

#	End of record

