#	Name: ASD02198023
#	Creating user name:	WinNT
#	Creation time:	15. 06. 2019 20:18

#	Modifying user name:	WinNT
#	Modification time:	15. 06. 2019 20:18

#	Program:	/corina/corina34_cracker 3.40 0067  02.08.2006

@<TRIPOS>MOLECULE
ASD02198023
  33   35    0    0    0
SMALL
NO_CHARGES


@<TRIPOS>ATOM
   1 N1            -0.0166     1.3726     0.0096 N.pl3   
   2 C2             0.0487    -0.0015    -0.0464 C.2     
   3 C3            -1.0406    -0.8407     0.0481 C.2     
   4 C4            -2.3806    -0.3647     0.2174 C.1     
   5 S5             1.4871    -0.8942    -0.2495 S.3     
   6 C6             0.6231    -2.4224    -0.2007 C.2     
   7 C7            -0.7199    -2.1949    -0.0369 C.2     
   8 C8             1.2216    -3.6967    -0.3171 C.2     
   9 O9             0.5308    -4.7021    -0.2709 O.2     
  10 C10            2.6744    -3.8119    -0.4938 C.2     
  11 N11           -1.6634    -3.2100     0.0390 N.pl3   
  12 C12            1.1596     2.1277     0.0362 C.ar    
  13 C13            1.2212     3.3435    -0.6330 C.ar    
  14 N14           -3.4435     0.0128     0.3517 N.1     
  15 C15            2.3844     4.0873    -0.6051 C.ar    
  16 C16            3.4881     3.6224     0.0883 C.ar    
  17 C17            3.4297     2.4113     0.7555 C.ar    
  18 C18            2.2670     1.6664     0.7365 C.ar    
  19 C19            3.3676    -4.9833    -0.6178 C.2     
  20 Cl20           4.9489     4.5598     0.1208 Cl      
  21 C21            4.7235    -4.7986    -0.7727 C.2     
  22 C22            5.1251    -3.5233    -0.7754 C.2     
  23 S23            3.8004    -2.4648    -0.5872 S.3     
  24 Cl24           2.6145    -6.5471    -0.5835 Cl      
  25 H25           -0.8787     1.8169     0.0266 H       
  26 H26           -1.3847    -4.1369    -0.0244 H       
  27 H27           -2.6015    -2.9925     0.1554 H       
  28 H28            0.3604     3.7064    -1.1749 H       
  29 H29            2.4329     5.0326    -1.1252 H       
  30 H30            4.2927     2.0507     1.2955 H       
  31 H31            2.2218     0.7215     1.2577 H       
  32 H32            5.4119    -5.6233    -0.8836 H       
  33 H33            6.1513    -3.2054    -0.8860 H       
@<TRIPOS>BOND
   1    1    2 1
   2    1   12 1
   3    1   25 1
   4    2    3 2
   5    2    5 1
   6    3    4 1
   7    3    7 1
   8    4   14 3
   9    5    6 1
  10    6    7 2
  11    6    8 1
  12    7   11 1
  13    8    9 2
  14    8   10 1
  15   10   19 2
  16   10   23 1
  17   11   26 1
  18   11   27 1
  19   12   13 ar
  20   12   18 ar
  21   13   15 ar
  22   13   28 1
  23   15   16 ar
  24   15   29 1
  25   16   17 ar
  26   16   20 1
  27   17   18 ar
  28   17   30 1
  29   18   31 1
  30   19   21 1
  31   19   24 1
  32   21   22 2
  33   21   32 1
  34   22   23 1
  35   22   33 1

#	End of record

