#	Name: ASD03092986
#	Creating user name:	WinNT
#	Creation time:	15. 06. 2019 20:33

#	Modifying user name:	WinNT
#	Modification time:	15. 06. 2019 20:33

#	Program:	/corina/corina34_cracker 3.40 0067  02.08.2006

@<TRIPOS>MOLECULE
ASD03092986
  46   49    0    0    0
SMALL
NO_CHARGES


@<TRIPOS>ATOM
   1 C1            -0.0173     1.4248     0.0099 C.3     
   2 O2             0.0021    -0.0041     0.0020 O.3     
   3 C3             0.6058    -0.6071    -1.0557 C.ar    
   4 C4             1.1716     0.1551    -2.0599 C.ar    
   5 C5             1.7880    -0.4565    -3.1410 C.ar    
   6 C6             1.8450    -1.8316    -3.2290 C.ar    
   7 C7             1.2830    -2.6143    -2.2304 C.ar    
   8 O8             1.1775    -3.9466    -2.0320 O.3     
   9 C9             0.5235    -4.1471    -0.8765 C.2     
  10 N10            0.2101    -3.0095    -0.3339 N.2     
  11 C11            0.6630    -2.0041    -1.1311 C.ar    
  12 C12            0.1997    -5.4983    -0.2930 C.3     
  13 H13           -0.6647    -5.5290     0.3704 H       
  14 C14            0.4643    -6.7267    -1.1659 C.3     
  15 H15            0.8725    -6.5575    -2.1623 H       
  16 C16           -0.4902    -7.8864    -1.0429 C.ar    
  17 C17           -1.4506    -7.8886    -0.0487 C.ar    
  18 C18           -2.3261    -8.9524     0.0642 C.ar    
  19 C19           -2.2415   -10.0138    -0.8174 C.ar    
  20 C20           -1.2816   -10.0111    -1.8122 C.ar    
  21 C21           -0.4089    -8.9453    -1.9277 C.ar    
  22 S22           -3.3566   -11.3702    -0.6728 S.o2    
  23 N23           -4.6788   -11.0195    -1.6062 N.am    
  24 O24           -2.7173   -12.4822    -1.2843 O.2     
  25 O25           -3.8073   -11.3773     0.6748 O.2     
  26 C26            1.3715    -6.4275     0.0302 C.3     
  27 C27            2.7823    -5.9138    -0.2639 C.3     
  28 C28            1.2401    -7.3291     1.2593 C.3     
  29 H29            1.0053     1.8021     0.0021 H       
  30 H30           -0.5445     1.7859    -0.8732 H       
  31 H31           -0.5275     1.7763     0.9067 H       
  32 H32            1.1331     1.2329    -2.0027 H       
  33 H33            2.2267     0.1488    -3.9204 H       
  34 H34            2.3265    -2.2992    -4.0751 H       
  35 H35           -1.5167    -7.0594     0.6401 H       
  36 H36           -3.0760    -8.9545     0.8414 H       
  37 H37           -1.2153   -10.8405    -2.5008 H       
  38 H38            0.3386    -8.9415    -2.7073 H       
  39 H39           -4.7172   -10.1846    -2.0985 H       
  40 H40           -5.4148   -11.6490    -1.6607 H       
  41 H41            3.3105    -5.7451     0.6745 H       
  42 H42            3.3218    -6.6525    -0.8567 H       
  43 H43            2.7199    -4.9778    -0.8190 H       
  44 H44            0.2231    -7.2690     1.6469 H       
  45 H45            1.4621    -8.3590     0.9799 H       
  46 H46            1.9413    -7.0015     2.0268 H       
@<TRIPOS>BOND
   1    1    2 1
   2    1   29 1
   3    1   30 1
   4    1   31 1
   5    2    3 1
   6    3   11 ar
   7    3    4 ar
   8    4    5 ar
   9    4   32 1
  10    5    6 ar
  11    5   33 1
  12    6    7 ar
  13    6   34 1
  14    7   11 ar
  15    7    8 1
  16    8    9 1
  17    9   10 2
  18    9   12 1
  19   10   11 1
  20   12   13 1
  21   12   26 1
  22   12   14 1
  23   14   15 1
  24   14   16 1
  25   14   26 1
  26   16   21 ar
  27   16   17 ar
  28   17   18 ar
  29   17   35 1
  30   18   19 ar
  31   18   36 1
  32   19   20 ar
  33   19   22 1
  34   20   21 ar
  35   20   37 1
  36   21   38 1
  37   22   23 am
  38   22   24 2
  39   22   25 2
  40   23   39 1
  41   23   40 1
  42   26   27 1
  43   26   28 1
  44   27   41 1
  45   27   42 1
  46   27   43 1
  47   28   44 1
  48   28   45 1
  49   28   46 1

#	End of record

