#	Name: ASD06600015
#	Creating user name:	WinNT
#	Creation time:	15. 06. 2019 21:06

#	Modifying user name:	WinNT
#	Modification time:	15. 06. 2019 21:06

#	Program:	/corina/corina34_cracker 3.40 0067  02.08.2006

@<TRIPOS>MOLECULE
ASD06600015
 276  279    0    0    0
SMALL
NO_CHARGES


@<TRIPOS>ATOM
   1 C1            -8.5329    -6.8502   -17.8450 C.2     
   2 O2            -8.6928    -8.0034   -17.5052 O.2     
   3 N3            -6.4562    -7.6355   -18.8246 N.am    
   4 C4            -7.2988    -6.4557   -18.6147 C.3     
   5 C5            -7.7071    -5.8731   -19.9693 C.3     
   6 C6            -6.4832    -5.3662   -20.6876 C.2     
   7 C7            -6.0867    -5.7231   -21.9241 C.2     
   8 N8            -4.9355    -5.0305   -22.1862 N.pl3   
   9 C9            -4.6684    -4.2740   -21.1000 C.2     
  10 N10           -5.6009    -4.4761   -20.2097 N.2     
  11 C11          -11.7741    -5.3337   -17.0980 C.2     
  12 O12          -11.5798    -4.4095   -17.8589 O.2     
  13 N13           -9.4616    -5.9226   -17.5391 N.am    
  14 C14          -10.6642    -6.3073   -16.7961 C.3     
  15 C15          -10.3642    -6.2895   -15.2959 C.3     
  16 C16          -15.0424    -4.5292   -15.6718 C.2     
  17 O17          -14.9466    -5.3463   -14.7807 O.2     
  18 N18          -12.9827    -5.4901   -16.5225 N.am    
  19 C19          -14.0618    -4.5436   -16.8160 C.3     
  20 C20          -14.7799    -4.9705   -18.0978 C.3     
  21 C21          -13.8216    -4.8480   -19.2842 C.3     
  22 C22          -15.2426    -6.4226   -17.9638 C.3     
  23 C23          -18.2986    -2.9845   -15.0601 C.2     
  24 O24          -18.3484    -2.5154   -16.1774 O.2     
  25 N25          -16.0259    -3.6083   -15.6388 N.am    
  26 C26          -17.0369    -3.6540   -14.5795 C.3     
  27 C27          -16.5119    -2.9239   -13.3416 C.3     
  28 C28          -15.3216    -3.6646   -12.7888 C.2     
  29 C29          -14.1014    -3.1427   -12.5597 C.2     
  30 N30          -13.3259    -4.1536   -12.0594 N.pl3   
  31 C31          -14.0997    -5.2588   -12.0002 C.2     
  32 N32          -15.2933    -4.9576   -12.4333 N.2     
  33 C33          -21.3819    -1.7522   -13.5311 C.2     
  34 O34          -20.9577    -1.9201   -12.4074 O.2     
  35 N35          -19.3716    -2.9071   -14.2483 N.am    
  36 C36          -20.5982    -2.2562   -14.7155 C.3     
  37 C37          -21.4448    -3.2639   -15.4958 C.3     
  38 C38          -24.7744    -0.5272   -12.9366 C.2     
  39 O39          -25.1411    -0.8363   -14.0505 O.2     
  40 N40          -22.5542    -1.1149   -13.7206 N.am    
  41 C41          -23.3161    -0.6249   -12.5692 C.3     
  42 C42          -22.7981     0.7570   -12.1656 C.3     
  43 C43          -21.3759     0.6386   -11.6814 C.ar    
  44 C44          -20.3295     0.7625   -12.5767 C.ar    
  45 C45          -19.0249     0.6540   -12.1354 C.ar    
  46 C46          -18.7652     0.4208   -10.7927 C.ar    
  47 O47          -17.4827     0.3141   -10.3561 O.3     
  48 C48          -19.8169     0.2973    -9.8964 C.ar    
  49 C49          -21.1195     0.4119   -10.3418 C.ar    
  50 C50          -27.7600     1.0238   -11.5071 C.2     
  51 O51          -27.1176     1.6166   -10.6663 O.2     
  52 N52          -25.6710    -0.0962   -12.0273 N.am    
  53 C53          -27.0886    -0.0011   -12.3845 C.3     
  54 C54          -27.7577    -1.3621   -12.1826 C.3     
  55 C55          -27.1605    -2.3744   -13.1622 C.3     
  56 C56          -27.8297    -3.7354   -12.9603 C.3     
  57 N57          -27.2579    -4.7046   -13.8983 N.pl3   
  58 C58          -27.7062    -6.0043   -13.9023 C.2     
  59 N59          -27.1974    -6.8666   -14.7368 N.2     
  60 N60          -28.6911    -6.3944   -13.0260 N.pl3   
  61 C61          -31.1993     1.9709   -10.7088 C.2     
  62 O62          -31.6582     1.0138   -11.2956 O.2     
  63 N63          -29.0743     1.2818   -11.6569 N.am    
  64 C64          -29.7271     2.2782   -10.8040 C.3     
  65 C65          -29.5348     3.6708   -11.4077 C.3     
  66 C66          -28.0709     4.0283   -11.3899 C.2     
  67 C67          -27.3346     4.4027   -12.4535 C.2     
  68 N68          -26.0655     4.6332   -11.9954 N.pl3   
  69 C69          -26.0704     4.3915   -10.6668 C.2     
  70 N70          -27.2743     4.0350   -10.3108 N.2     
  71 C71          -34.1948     3.7245    -9.5620 C.2     
  72 O72          -33.5979     4.7715    -9.4266 O.2     
  73 N73          -32.0061     2.7596    -9.9716 N.am    
  74 C74          -33.4373     2.4608    -9.8790 C.3     
  75 C75          -33.6731     1.4331    -8.7704 C.3     
  76 C76          -33.0072     0.1095    -9.1520 C.3     
  77 C77          -33.2430    -0.9182    -8.0434 C.3     
  78 N78          -32.6054    -2.1856    -8.4087 N.pl3   
  79 C79          -32.6840    -3.2644    -7.5601 C.2     
  80 N80          -33.3259    -3.1596    -6.4305 N.2     
  81 N81          -32.0856    -4.4537    -7.9029 N.pl3   
  82 C82          -37.5688     4.5697    -8.4375 C.2     
  83 O83          -37.8503     3.4086    -8.2286 O.2     
  84 N84          -35.5355     3.6910    -9.4288 N.am    
  85 C85          -36.2719     4.9194    -9.1206 C.3     
  86 C86          -36.5664     5.6764   -10.4172 C.3     
  87 C87          -35.2514     6.1400   -11.0471 C.3     
  88 C88          -35.5459     6.8970   -12.3436 C.3     
  89 N89          -34.2868     7.3409   -12.9467 N.pl3   
  90 C90          -34.3009     8.0465   -14.1266 C.2     
  91 N91          -33.1806     8.4415   -14.6632 N.2     
  92 N92          -35.4966     8.3355   -14.7405 N.pl3   
  93 C93          -40.6957     6.2337    -7.5894 C.2     
  94 O94          -40.3978     7.3099    -8.0627 O.2     
  95 N95          -38.4159     5.5471    -8.0586 N.am    
  96 C96          -39.6232     5.2159    -7.2978 C.3     
  97 C97          -39.3026     5.2274    -5.8018 C.3     
  98 C98          -40.5235     4.7469    -5.0148 C.3     
  99 C99          -40.7746     3.2679    -5.3159 C.3     
 100 C100         -40.2678     4.9262    -3.5171 C.3     
 101 C101         -44.2004     6.7541    -6.7452 C.2     
 102 O102         -44.3241     5.7427    -6.0874 O.2     
 103 N103         -41.9859     5.9479    -7.3243 N.am    
 104 C104         -43.0374     6.8991    -7.6927 C.3     
 105 C105         -43.5050     6.6144    -9.1214 C.3     
 106 C106         -44.5258     7.6727    -9.5444 C.3     
 107 C107         -43.8412     9.0386    -9.6239 C.3     
 108 C108         -45.0992     7.3089   -10.9154 C.3     
 109 C109         -47.3270     6.8692    -6.2172 C.2     
 110 O110         -47.2573     6.4381    -7.3438 O.2     
 111 N111         -45.1029     7.7483    -6.6289 N.am    
 112 C112         -46.1765     7.6507    -5.6370 C.3     
 113 C113         -46.6523     9.0552    -5.2605 C.3     
 114 O114         -47.2467     9.6784    -6.4008 O.3     
 115 O115         -48.4292     6.6522    -5.4825 O.3     
 116 C116          -5.1300    -7.4910   -19.0167 C.2     
 117 O117          -4.6343    -6.3841   -19.0159 O.2     
 118 C118          12.0698   -14.2595   -22.1055 C.3     
 119 C119          11.1897   -13.0273   -21.8864 C.3     
 120 C120           9.7365   -13.4660   -21.6951 C.3     
 121 C121           8.8564   -12.2338   -21.4759 C.3     
 122 C122           7.4032   -12.6724   -21.2847 C.3     
 123 C123           6.5232   -11.4402   -21.0655 C.3     
 124 C124           5.0699   -11.8789   -20.8743 C.3     
 125 C125           4.1899   -10.6467   -20.6551 C.3     
 126 C126           2.7366   -11.0853   -20.4638 C.3     
 127 C127           1.8566    -9.8531   -20.2447 C.3     
 128 C128           0.4034   -10.2918   -20.0534 C.3     
 129 C129          -0.4767    -9.0595   -19.8343 C.3     
 130 C130          -1.9299    -9.4982   -19.6430 C.3     
 131 C131          -2.8100    -8.2660   -19.4239 C.3     
 132 C132          -4.2632    -8.7047   -19.2326 C.3     
 133 H133          -6.8527    -8.5208   -18.8252 H       
 134 H134          -6.7423    -5.7075   -18.0503 H       
 135 H135          -8.1854    -6.6478   -20.5686 H       
 136 H136          -8.4050    -5.0501   -19.8153 H       
 137 H137          -6.5817    -6.4218   -22.5823 H       
 138 H138          -4.4097    -5.0749   -23.0002 H       
 139 H139          -3.8249    -3.6088   -20.9881 H       
 140 H140          -9.3337    -5.0003   -17.8108 H       
 141 H141         -10.9697    -7.3104   -17.0936 H       
 142 H142          -9.5614    -6.9937   -15.0775 H       
 143 H143         -10.0587    -5.2864   -14.9983 H       
 144 H144         -11.2590    -6.5757   -14.7430 H       
 145 H145         -13.1382    -6.2292   -15.9139 H       
 146 H146         -13.6437    -3.5458   -16.9488 H       
 147 H147         -15.6445    -4.3272   -18.2613 H       
 148 H148         -13.0124    -5.5699   -19.1737 H       
 149 H149         -14.3619    -5.0468   -20.2098 H       
 150 H150         -13.4077    -3.8401   -19.3144 H       
 151 H151         -15.9254    -6.5098   -17.1185 H       
 152 H152         -15.7542    -6.7267   -18.8769 H       
 153 H153         -14.3780    -7.0659   -17.8003 H       
 154 H154         -16.0643    -2.9152   -16.3163 H       
 155 H155         -17.2505    -4.6922   -14.3257 H       
 156 H156         -16.2149    -1.9116   -13.6155 H       
 157 H157         -17.2960    -2.8805   -12.5856 H       
 158 H158         -13.7938    -2.1227   -12.7369 H       
 159 H159         -12.3945    -4.0883   -11.7965 H       
 160 H160         -13.7841    -6.2300   -11.6488 H       
 161 H161         -19.3318    -3.2822   -13.3547 H       
 162 H162         -20.3408    -1.4187   -15.3639 H       
 163 H163         -22.3573    -2.7797   -15.8434 H       
 164 H164         -20.8779    -3.6284   -16.3525 H       
 165 H165         -21.7022    -4.1014   -14.8474 H       
 166 H166         -22.8935    -0.9806   -14.6194 H       
 167 H167         -23.1973    -1.3156   -11.7344 H       
 168 H168         -22.8344     1.4243   -13.0266 H       
 169 H169         -23.4214     1.1597   -11.3672 H       
 170 H170         -20.5322     0.9440   -13.6218 H       
 171 H171         -18.2079     0.7501   -12.8352 H       
 172 H172         -17.0890     1.1540   -10.0829 H       
 173 H173         -19.6172     0.1155    -8.8507 H       
 174 H174         -21.9385     0.3202    -9.6437 H       
 175 H175         -25.3776     0.1511   -11.1364 H       
 176 H176         -27.1810     0.2979   -13.4286 H       
 177 H177         -27.5888    -1.7021   -11.1608 H       
 178 H178         -28.8289    -1.2706   -12.3626 H       
 179 H179         -27.3295    -2.0344   -14.1839 H       
 180 H180         -26.0894    -2.4659   -12.9821 H       
 181 H181         -27.6608    -4.0753   -11.9385 H       
 182 H182         -28.9008    -3.6439   -13.1404 H       
 183 H183         -26.5629    -4.4294   -14.5165 H       
 184 H184         -27.5137    -7.7836   -14.7396 H       
 185 H185         -29.0698    -5.7526   -12.4050 H       
 186 H186         -29.0074    -7.3114   -13.0288 H       
 187 H187         -29.5881     0.8078   -12.3293 H       
 188 H188         -29.2848     2.2497    -9.8081 H       
 189 H189         -29.8971     3.6744   -12.4357 H       
 190 H190         -30.0942     4.4009   -10.8228 H       
 191 H191         -27.6792     4.5017   -13.4723 H       
 192 H192         -25.3048     4.9172   -12.5259 H       
 193 H193         -25.2199     4.4822   -10.0073 H       
 194 H194         -31.6391     3.5251    -9.5022 H       
 195 H195         -33.7863     2.0568   -10.8293 H       
 196 H196         -33.2445     1.7999    -7.8378 H       
 197 H197         -34.7442     1.2770    -8.6415 H       
 198 H198         -33.4358    -0.2573   -10.0846 H       
 199 H199         -31.9361     0.2656    -9.2809 H       
 200 H200         -32.8144    -0.5514    -7.1107 H       
 201 H201         -34.3141    -1.0743    -7.9144 H       
 202 H202         -32.1277    -2.2636    -9.2493 H       
 203 H203         -33.3815    -3.9208    -5.8318 H       
 204 H204         -31.6079    -4.5317    -8.7435 H       
 205 H205         -32.1411    -5.2149    -7.3042 H       
 206 H206         -36.0129     2.8536    -9.5371 H       
 207 H207         -35.6719     5.5471    -8.4617 H       
 208 H208         -37.0896     5.0186   -11.1112 H       
 209 H209         -37.1899     6.5433   -10.1982 H       
 210 H210         -34.7282     6.7979   -10.3531 H       
 211 H211         -34.6280     5.2732   -11.2660 H       
 212 H212         -36.0691     6.2392   -13.0376 H       
 213 H213         -36.1694     7.7639   -12.1246 H       
 214 H214         -33.4431     7.1371   -12.5136 H       
 215 H215         -33.1905     8.9393   -15.4957 H       
 216 H216         -36.3303     8.0416   -14.3412 H       
 217 H217         -35.5065     8.8333   -15.5730 H       
 218 H218         -38.2261     6.4699    -8.2896 H       
 219 H219         -39.9743     4.2252    -7.5866 H       
 220 H220         -38.4600     4.5643    -5.6058 H       
 221 H221         -39.0469     6.2409    -5.4928 H       
 222 H222         -41.3966     5.3304    -5.3068 H       
 223 H223         -41.5856     2.9016    -4.6864 H       
 224 H224         -41.0479     3.1519    -6.3647 H       
 225 H225         -39.8692     2.6966    -5.1110 H       
 226 H226         -40.0889     5.9798    -3.3026 H       
 227 H227         -41.1376     4.5839    -2.9564 H       
 228 H228         -39.3946     4.3426    -3.2251 H       
 229 H229         -42.2182     5.1125    -6.8896 H       
 230 H230         -42.6456     7.9146    -7.6342 H       
 231 H231         -42.6497     6.6444    -9.7964 H       
 232 H232         -43.9662     5.6277    -9.1629 H       
 233 H233         -45.3324     7.7126    -8.8122 H       
 234 H234         -44.5428     9.7744   -10.0171 H       
 235 H235         -43.5173     9.3413    -8.6282 H       
 236 H236         -42.9757     8.9734   -10.2833 H       
 237 H237         -45.5870     6.3358   -10.8587 H       
 238 H238         -45.8265     8.0629   -11.2168 H       
 239 H239         -44.2927     7.2690   -11.6476 H       
 240 H240         -45.0415     8.5285    -7.2020 H       
 241 H241         -45.8041     7.1426    -4.7474 H       
 242 H242         -47.3879     8.9870    -4.4590 H       
 243 H243         -45.8023     9.6487    -4.9239 H       
 244 H244         -47.5718    10.5738    -6.2349 H       
 245 H245         -49.1408     6.1457    -5.8976 H       
 246 H246          11.9994   -14.9153   -21.2377 H       
 247 H247          11.7318   -14.7942   -22.9932 H       
 248 H248          13.1051   -13.9470   -22.2418 H       
 249 H249          11.5277   -12.4927   -20.9986 H       
 250 H250          11.2601   -12.3716   -22.7542 H       
 251 H251           9.3985   -14.0006   -22.5828 H       
 252 H252           9.6661   -14.1217   -20.8273 H       
 253 H253           9.1944   -11.6991   -20.5882 H       
 254 H254           8.9268   -11.5780   -22.3438 H       
 255 H255           7.0652   -13.2071   -22.1724 H       
 256 H256           7.3328   -13.3282   -20.4168 H       
 257 H257           6.8611   -10.9056   -20.1778 H       
 258 H258           6.5935   -10.7845   -21.9334 H       
 259 H259           4.7320   -12.4135   -21.7620 H       
 260 H260           4.9996   -12.5346   -20.0064 H       
 261 H261           4.5278   -10.1120   -19.7674 H       
 262 H262           4.2602    -9.9909   -21.5229 H       
 263 H263           2.3987   -11.6200   -21.3516 H       
 264 H264           2.6663   -11.7411   -19.5960 H       
 265 H265           2.1946    -9.3185   -19.3570 H       
 266 H266           1.9270    -9.1974   -21.1125 H       
 267 H267           0.0654   -10.8264   -20.9412 H       
 268 H268           0.3330   -10.9475   -19.1856 H       
 269 H269          -0.1387    -8.5249   -18.9465 H       
 270 H270          -0.4063    -8.4038   -20.7021 H       
 271 H271          -2.2679   -10.0328   -20.5307 H       
 272 H272          -2.0003   -10.1540   -18.7752 H       
 273 H273          -2.4720    -7.7314   -18.5361 H       
 274 H274          -2.7396    -7.6102   -20.2917 H       
 275 H275          -4.3336    -9.3604   -18.3648 H       
 276 H276          -4.6012    -9.2393   -20.1203 H       
@<TRIPOS>BOND
   1    1    2 2
   2    1    4 1
   3    1   13 am
   4    3  116 am
   5    3    4 1
   6    3  133 1
   7    4    5 1
   8    4  134 1
   9    5    6 1
  10    5  135 1
  11    5  136 1
  12    6    7 2
  13    6   10 1
  14    7    8 1
  15    7  137 1
  16    8    9 1
  17    8  138 1
  18    9   10 2
  19    9  139 1
  20   11   12 2
  21   11   14 1
  22   11   18 am
  23   13   14 1
  24   13  140 1
  25   14   15 1
  26   14  141 1
  27   15  142 1
  28   15  143 1
  29   15  144 1
  30   16   17 2
  31   16   19 1
  32   16   25 am
  33   18   19 1
  34   18  145 1
  35   19   20 1
  36   19  146 1
  37   20   21 1
  38   20   22 1
  39   20  147 1
  40   21  148 1
  41   21  149 1
  42   21  150 1
  43   22  151 1
  44   22  152 1
  45   22  153 1
  46   23   24 2
  47   23   26 1
  48   23   35 am
  49   25   26 1
  50   25  154 1
  51   26   27 1
  52   26  155 1
  53   27   28 1
  54   27  156 1
  55   27  157 1
  56   28   29 2
  57   28   32 1
  58   29   30 1
  59   29  158 1
  60   30   31 1
  61   30  159 1
  62   31   32 2
  63   31  160 1
  64   33   34 2
  65   33   36 1
  66   33   40 am
  67   35   36 1
  68   35  161 1
  69   36   37 1
  70   36  162 1
  71   37  163 1
  72   37  164 1
  73   37  165 1
  74   38   39 2
  75   38   41 1
  76   38   52 am
  77   40   41 1
  78   40  166 1
  79   41   42 1
  80   41  167 1
  81   42   43 1
  82   42  168 1
  83   42  169 1
  84   43   44 ar
  85   43   49 ar
  86   44   45 ar
  87   44  170 1
  88   45   46 ar
  89   45  171 1
  90   46   47 1
  91   46   48 ar
  92   47  172 1
  93   48   49 ar
  94   48  173 1
  95   49  174 1
  96   50   51 2
  97   50   53 1
  98   50   63 am
  99   52   53 1
 100   52  175 1
 101   53   54 1
 102   53  176 1
 103   54   55 1
 104   54  177 1
 105   54  178 1
 106   55   56 1
 107   55  179 1
 108   55  180 1
 109   56   57 1
 110   56  181 1
 111   56  182 1
 112   57   58 1
 113   57  183 1
 114   58   59 2
 115   58   60 1
 116   59  184 1
 117   60  185 1
 118   60  186 1
 119   61   62 2
 120   61   64 1
 121   61   73 am
 122   63   64 1
 123   63  187 1
 124   64   65 1
 125   64  188 1
 126   65   66 1
 127   65  189 1
 128   65  190 1
 129   66   67 2
 130   66   70 1
 131   67   68 1
 132   67  191 1
 133   68   69 1
 134   68  192 1
 135   69   70 2
 136   69  193 1
 137   71   72 2
 138   71   74 1
 139   71   84 am
 140   73   74 1
 141   73  194 1
 142   74   75 1
 143   74  195 1
 144   75   76 1
 145   75  196 1
 146   75  197 1
 147   76   77 1
 148   76  198 1
 149   76  199 1
 150   77   78 1
 151   77  200 1
 152   77  201 1
 153   78   79 1
 154   78  202 1
 155   79   80 2
 156   79   81 1
 157   80  203 1
 158   81  204 1
 159   81  205 1
 160   82   83 2
 161   82   85 1
 162   82   95 am
 163   84   85 1
 164   84  206 1
 165   85   86 1
 166   85  207 1
 167   86   87 1
 168   86  208 1
 169   86  209 1
 170   87   88 1
 171   87  210 1
 172   87  211 1
 173   88   89 1
 174   88  212 1
 175   88  213 1
 176   89   90 1
 177   89  214 1
 178   90   91 2
 179   90   92 1
 180   91  215 1
 181   92  216 1
 182   92  217 1
 183   93   94 2
 184   93   96 1
 185   93  103 am
 186   95   96 1
 187   95  218 1
 188   96   97 1
 189   96  219 1
 190   97   98 1
 191   97  220 1
 192   97  221 1
 193   98   99 1
 194   98  100 1
 195   98  222 1
 196   99  223 1
 197   99  224 1
 198   99  225 1
 199  100  226 1
 200  100  227 1
 201  100  228 1
 202  101  102 2
 203  101  104 1
 204  101  111 am
 205  103  104 1
 206  103  229 1
 207  104  105 1
 208  104  230 1
 209  105  106 1
 210  105  231 1
 211  105  232 1
 212  106  107 1
 213  106  108 1
 214  106  233 1
 215  107  234 1
 216  107  235 1
 217  107  236 1
 218  108  237 1
 219  108  238 1
 220  108  239 1
 221  109  110 2
 222  109  112 1
 223  109  115 1
 224  111  112 1
 225  111  240 1
 226  112  113 1
 227  112  241 1
 228  113  114 1
 229  113  242 1
 230  113  243 1
 231  114  244 1
 232  115  245 1
 233  116  117 2
 234  116  132 1
 235  118  119 1
 236  118  246 1
 237  118  247 1
 238  118  248 1
 239  119  120 1
 240  119  249 1
 241  119  250 1
 242  120  121 1
 243  120  251 1
 244  120  252 1
 245  121  122 1
 246  121  253 1
 247  121  254 1
 248  122  123 1
 249  122  255 1
 250  122  256 1
 251  123  124 1
 252  123  257 1
 253  123  258 1
 254  124  125 1
 255  124  259 1
 256  124  260 1
 257  125  126 1
 258  125  261 1
 259  125  262 1
 260  126  127 1
 261  126  263 1
 262  126  264 1
 263  127  128 1
 264  127  265 1
 265  127  266 1
 266  128  129 1
 267  128  267 1
 268  128  268 1
 269  129  130 1
 270  129  269 1
 271  129  270 1
 272  130  131 1
 273  130  271 1
 274  130  272 1
 275  131  132 1
 276  131  273 1
 277  131  274 1
 278  132  275 1
 279  132  276 1

#	End of record

