#	Name: ASD06610072
#	Creating user name:	WinNT
#	Creation time:	15. 06. 2019 21:07

#	Modifying user name:	WinNT
#	Modification time:	15. 06. 2019 21:07

#	Program:	/corina/corina34_cracker 3.40 0067  02.08.2006

@<TRIPOS>MOLECULE
ASD06610072
 218  218    0    0    0
SMALL
NO_CHARGES


@<TRIPOS>ATOM
   1 C1            -0.5769     4.8981    -3.5845 C.2     
   2 O2             0.3125     4.1349    -3.2722 O.2     
   3 N3             1.1547     6.3144    -4.5251 N.am    
   4 C4            -0.2873     6.0569    -4.5033 C.3     
   5 C5            -0.7665     5.7192    -5.9166 C.3     
   6 C6            -0.5817     6.9382    -6.8226 C.3     
   7 C7             0.0498     4.5473    -6.4655 C.3     
   8 C8            -3.6012     3.2025    -2.4262 C.2     
   9 O9            -4.3942     4.0855    -2.6760 O.2     
  10 N10           -1.8253     4.7065    -3.1142 N.am    
  11 C11           -2.1321     3.5189    -2.3132 C.3     
  12 C12           -1.7792     3.7864    -0.8487 C.3     
  13 C13           -0.2695     3.9976    -0.7182 C.3     
  14 C14            0.0834     4.2650     0.7463 C.3     
  15 N15            1.5289     4.4673     0.8712 N.pl3   
  16 C16            2.0831     4.7248     2.1028 C.2     
  17 N17            1.3224     4.7891     3.1592 N.2     
  18 N18            3.4397     4.9146     2.2200 N.pl3   
  19 C19           -6.1851     2.2195    -1.1396 C.2     
  20 O20           -5.6053     3.0129    -0.4288 O.2     
  21 N21           -4.0338     1.9383    -2.2498 N.am    
  22 C22           -5.4394     1.5074    -2.2387 C.3     
  23 C23           -5.4502    -0.0140    -1.9799 C.3     
  24 C24           -4.0788    -0.2601    -1.2972 C.3     
  25 C25           -3.1757     0.7576    -2.0425 C.3     
  26 C26           -9.4097     1.8401     0.5400 C.2     
  27 O27           -9.8302     0.9691    -0.1918 O.2     
  28 N28           -7.4963     1.9747    -0.9466 N.am    
  29 C29           -8.2212     2.6669     0.1218 C.3     
  30 C30           -8.7004     4.0283    -0.3861 C.3     
  31 C31           -7.4902     4.9078    -0.7067 C.3     
  32 C32           -9.5393     3.8344    -1.6508 C.3     
  33 C33          -12.0135     2.1461     3.0874 C.2     
  34 O34          -11.5974     3.2215     3.4633 O.2     
  35 N35          -10.0053     2.0684     1.7272 N.am    
  36 C36          -11.2251     1.3411     2.0867 C.3     
  37 C37          -10.8514    -0.0099     2.6999 C.3     
  38 C38          -13.3605     1.9840     5.9644 C.2     
  39 O39          -12.4737     1.1600     6.0379 O.2     
  40 N40          -13.1810     1.6710     3.5647 N.am    
  41 C41          -13.8929     2.3999     4.6173 C.3     
  42 C42          -15.3869     2.0796     4.5384 C.3     
  43 C43          -15.9409     2.5861     3.2317 C.2     
  44 O44          -15.2003     3.0883     2.4130 O.2     
  45 N45          -17.2594     2.4809     2.9727 N.am    
  46 C46          -14.4088     2.3519     9.4471 C.2     
  47 O47          -15.4880     2.8073     9.1325 O.2     
  48 N48          -13.8698     2.5279     7.0875 N.am    
  49 C49          -13.3522     2.1237     8.3970 C.3     
  50 C50          -12.1115     2.9534     8.7333 C.3     
  51 C51          -14.5235     2.4578    13.0993 C.2     
  52 O52          -13.3154     2.4100    13.1943 O.2     
  53 N53          -14.1546     2.0498    10.7357 N.am    
  54 C54          -15.1817     2.2716    11.7565 C.3     
  55 C55          -16.1169     1.0619    11.8103 C.3     
  56 C56          -16.8783     0.9467    10.4882 C.3     
  57 C57          -17.8135    -0.2630    10.5420 C.3     
  58 N58          -18.5426    -0.3733     9.2761 N.pl3   
  59 C59          -19.4471    -1.3918     9.0902 C.2     
  60 N60          -20.0958    -1.4900     7.9639 N.2     
  61 N61          -19.6674    -2.3069    10.0924 N.pl3   
  62 C62          -15.6057     2.4795    16.5909 C.2     
  63 O63          -16.7205     2.0959    16.3060 O.2     
  64 N64          -15.2774     2.6776    14.1946 N.am    
  65 C65          -14.6376     2.8586    15.5000 C.3     
  66 C66          -14.2275     4.3230    15.6683 C.3     
  67 C67          -13.1517     4.6729    14.6382 C.3     
  68 C68          -12.8311     6.1666    14.7230 C.3     
  69 C69          -11.8864     3.8626    14.9268 C.3     
  70 C70          -17.0530     3.3787    19.2676 C.2     
  71 O71          -16.9081     4.4209    18.6737 O.2     
  72 N72          -15.2328     2.5668    17.8831 N.am    
  73 C73          -16.1740     2.1982    18.9436 C.3     
  74 C74          -15.3963     1.7830    20.1940 C.3     
  75 C75          -14.5995     0.5104    19.8999 C.3     
  76 C76          -13.8218     0.0952    21.1503 C.3     
  77 N77          -13.0588    -1.1233    20.8686 N.pl3   
  78 C78          -12.2781    -1.6877    21.8495 C.2     
  79 N79          -12.2168    -1.1387    23.0301 N.2     
  80 N80          -11.5620    -2.8312    21.5852 N.pl3   
  81 O81          -17.9968     3.2723    20.2161 O.3     
  82 C82            1.6153     7.5424    -4.8354 C.2     
  83 O83            0.8360     8.4343    -5.0965 O.2     
  84 C84           15.4013    19.9165    -7.6672 C.3     
  85 C85           13.8953    19.6475    -7.6445 C.3     
  86 C86           13.6437    18.1866    -7.2659 C.3     
  87 C87           12.1377    17.9176    -7.2431 C.3     
  88 C88           11.8862    16.4567    -6.8645 C.3     
  89 C89           10.3802    16.1878    -6.8418 C.3     
  90 C90           10.1287    14.7269    -6.4632 C.3     
  91 C91            8.6227    14.4579    -6.4404 C.3     
  92 C92            8.3712    12.9970    -6.0618 C.3     
  93 C93            6.8652    12.7280    -6.0391 C.3     
  94 C94            6.6137    11.2671    -5.6605 C.3     
  95 C95            5.1077    10.9982    -5.6377 C.3     
  96 C96            4.8562     9.5372    -5.2591 C.3     
  97 C97            3.3502     9.2683    -5.2364 C.3     
  98 C98            3.0987     7.8074    -4.8578 C.3     
  99 H99            1.7779     5.6011    -4.3163 H       
 100 H100          -0.8095     6.9440    -4.1449 H       
 101 H101          -1.8211     5.4451    -5.8869 H       
 102 H102           0.4823     7.1289    -6.9626 H       
 103 H103          -1.0467     6.7460    -7.7896 H       
 104 H104          -1.0491     7.8081    -6.3612 H       
 105 H105          -0.0819     3.6789    -5.8200 H       
 106 H106          -0.2916     4.3068    -7.4723 H       
 107 H107           1.1043     4.8214    -6.4952 H       
 108 H108          -2.5207     5.3550    -3.3061 H       
 109 H109          -1.5492     2.6735    -2.6788 H       
 110 H110          -2.3020     4.6794    -0.5063 H       
 111 H111          -2.0807     2.9334    -0.2407 H       
 112 H112           0.2532     3.1045    -1.0606 H       
 113 H113           0.0319     4.8505    -1.3262 H       
 114 H114          -0.4394     5.1581     1.0887 H       
 115 H115          -0.2181     3.4121     1.3543 H       
 116 H116           2.0951     4.4194     0.0850 H       
 117 H117           1.7134     4.9708     4.0281 H       
 118 H118           4.0059     4.8668     1.4338 H       
 119 H119           3.8307     5.0963     3.0889 H       
 120 H120          -5.9016     1.7252    -3.2015 H       
 121 H121          -6.2677    -0.2858    -1.3121 H       
 122 H122          -5.5181    -0.5643    -2.9183 H       
 123 H123          -4.1273    -0.0371    -0.2314 H       
 124 H124          -3.7359    -1.2809    -1.4661 H       
 125 H125          -2.8522     0.3508    -3.0005 H       
 126 H126          -2.3130     1.0186    -1.4295 H       
 127 H127          -7.9600     1.3401    -1.5151 H       
 128 H128          -7.5596     2.8102     0.9761 H       
 129 H129          -9.3062     4.5098     0.3815 H       
 130 H130          -6.9496     4.4869    -1.5545 H       
 131 H131          -7.8278     5.9141    -0.9544 H       
 132 H132          -6.8309     4.9489     0.1603 H       
 133 H133         -10.4015     3.2078    -1.4223 H       
 134 H134          -9.8807     4.8042    -2.0126 H       
 135 H135          -8.9335     3.3529    -2.4184 H       
 136 H136          -9.6263     2.7143     2.3437 H       
 137 H137         -11.8287     1.1801     1.1935 H       
 138 H138         -11.7590    -0.5511     2.9674 H       
 139 H139         -10.2811    -0.5922     1.9761 H       
 140 H140         -10.2478     0.1510     3.5932 H       
 141 H141         -13.5499     0.8465     3.2111 H       
 142 H142         -13.7434     3.4711     4.4824 H       
 143 H143         -15.5311     1.0010     4.6005 H       
 144 H144         -15.9065     2.5638     5.3654 H       
 145 H145         -17.8517     2.0792     3.6275 H       
 146 H146         -17.6160     2.8069     2.1316 H       
 147 H147         -14.5791     3.1870     7.0287 H       
 148 H148         -13.0868     1.0668     8.3723 H       
 149 H149         -11.7264     2.6526     9.7076 H       
 150 H150         -11.3472     2.7883     7.9738 H       
 151 H151         -12.3769     4.0103     8.7580 H       
 152 H152         -13.2915     1.6855    10.9873 H       
 153 H153         -15.7558     3.1638    11.5064 H       
 154 H154         -15.5314     0.1569    11.9724 H       
 155 H155         -16.8263     1.1871    12.6284 H       
 156 H156         -17.4639     1.8517    10.3261 H       
 157 H157         -16.1690     0.8215     9.6701 H       
 158 H158         -17.2280    -1.1680    10.7041 H       
 159 H159         -18.5229    -0.1378    11.3601 H       
 160 H160         -18.3872     0.2723     8.5690 H       
 161 H161         -20.7340    -2.2086     7.8328 H       
 162 H162         -19.1847    -2.2339    10.9305 H       
 163 H163         -20.3056    -3.0255     9.9612 H       
 164 H164         -16.2437     2.7159    14.1187 H       
 165 H165         -13.7534     2.2242    15.5624 H       
 166 H166         -15.0967     4.9633    15.5178 H       
 167 H167         -13.8326     4.4766    16.6726 H       
 168 H168         -13.5151     4.4355    13.6384 H       
 169 H169         -12.4677     6.4040    15.7228 H       
 170 H170         -12.0647     6.4159    13.9891 H       
 171 H171         -13.7325     6.7439    14.5174 H       
 172 H172         -12.1148     2.7985    14.8664 H       
 173 H173         -11.1200     4.1119    14.1929 H       
 174 H174         -11.5230     4.1000    15.9266 H       
 175 H175         -14.3413     2.8736    18.1110 H       
 176 H176         -16.7926     1.3661    18.6074 H       
 177 H177         -14.7122     2.5824    20.4786 H       
 178 H178         -16.0941     1.5943    21.0099 H       
 179 H179         -15.2836    -0.2890    19.6153 H       
 180 H180         -13.9017     0.6991    19.0840 H       
 181 H181         -13.1376     0.8946    21.4349 H       
 182 H182         -14.5195    -0.0935    21.9662 H       
 183 H183         -13.1044    -1.5319    19.9901 H       
 184 H184         -11.6659    -1.5369    23.7221 H       
 185 H185         -11.6077    -3.2398    20.7066 H       
 186 H186         -11.0112    -3.2294    22.2772 H       
 187 H187         -18.5360     4.0562    20.3887 H       
 188 H188          15.5804    20.9573    -7.9370 H       
 189 H189          15.8205    19.7195    -6.6805 H       
 190 H190          15.8758    19.2643    -8.4004 H       
 191 H191          13.4207    20.2997    -6.9113 H       
 192 H192          13.4761    19.8445    -8.6312 H       
 193 H193          14.1183    17.5344    -7.9991 H       
 194 H194          14.0629    17.9896    -6.2792 H       
 195 H195          11.6632    18.5699    -6.5100 H       
 196 H196          11.7185    18.1146    -8.2298 H       
 197 H197          12.3608    15.8045    -7.5977 H       
 198 H198          12.3054    16.2598    -5.8778 H       
 199 H199           9.9057    16.8400    -6.1086 H       
 200 H200           9.9610    16.3847    -7.8285 H       
 201 H201          10.6032    14.0746    -7.1963 H       
 202 H202          10.5479    14.5299    -5.4765 H       
 203 H203           8.1482    15.1101    -5.7073 H       
 204 H204           8.2035    14.6549    -7.4271 H       
 205 H205           8.8457    12.3448    -6.7950 H       
 206 H206           8.7904    12.8000    -5.0751 H       
 207 H207           6.3907    13.3802    -5.3059 H       
 208 H208           6.4460    12.9250    -7.0258 H       
 209 H209           7.0882    10.6149    -6.3936 H       
 210 H210           7.0329    11.0701    -4.6738 H       
 211 H211           4.6332    11.6504    -4.9046 H       
 212 H212           4.6885    11.1951    -6.6244 H       
 213 H213           5.3307     8.8850    -5.9923 H       
 214 H214           5.2754     9.3403    -4.2724 H       
 215 H215           2.8757     9.9205    -4.5032 H       
 216 H216           2.9310     9.4652    -6.2231 H       
 217 H217           3.5179     7.6104    -3.8711 H       
 218 H218           3.5732     7.1551    -5.5909 H       
@<TRIPOS>BOND
   1    1    2 2
   2    1    4 1
   3    1   10 am
   4    3   82 am
   5    3    4 1
   6    3   99 1
   7    4    5 1
   8    4  100 1
   9    5    6 1
  10    5    7 1
  11    5  101 1
  12    6  102 1
  13    6  103 1
  14    6  104 1
  15    7  105 1
  16    7  106 1
  17    7  107 1
  18    8    9 2
  19    8   11 1
  20    8   21 am
  21   10   11 1
  22   10  108 1
  23   11   12 1
  24   11  109 1
  25   12   13 1
  26   12  110 1
  27   12  111 1
  28   13   14 1
  29   13  112 1
  30   13  113 1
  31   14   15 1
  32   14  114 1
  33   14  115 1
  34   15   16 1
  35   15  116 1
  36   16   17 2
  37   16   18 1
  38   17  117 1
  39   18  118 1
  40   18  119 1
  41   19   20 2
  42   19   28 am
  43   19   22 1
  44   21   22 1
  45   21   25 1
  46   22   23 1
  47   22  120 1
  48   23   24 1
  49   23  121 1
  50   23  122 1
  51   24   25 1
  52   24  123 1
  53   24  124 1
  54   25  125 1
  55   25  126 1
  56   26   27 2
  57   26   29 1
  58   26   35 am
  59   28   29 1
  60   28  127 1
  61   29   30 1
  62   29  128 1
  63   30   31 1
  64   30   32 1
  65   30  129 1
  66   31  130 1
  67   31  131 1
  68   31  132 1
  69   32  133 1
  70   32  134 1
  71   32  135 1
  72   33   34 2
  73   33   36 1
  74   33   40 am
  75   35   36 1
  76   35  136 1
  77   36   37 1
  78   36  137 1
  79   37  138 1
  80   37  139 1
  81   37  140 1
  82   38   39 2
  83   38   41 1
  84   38   48 am
  85   40   41 1
  86   40  141 1
  87   41   42 1
  88   41  142 1
  89   42   43 1
  90   42  143 1
  91   42  144 1
  92   43   44 2
  93   43   45 am
  94   45  145 1
  95   45  146 1
  96   46   47 2
  97   46   49 1
  98   46   53 am
  99   48   49 1
 100   48  147 1
 101   49   50 1
 102   49  148 1
 103   50  149 1
 104   50  150 1
 105   50  151 1
 106   51   52 2
 107   51   54 1
 108   51   64 am
 109   53   54 1
 110   53  152 1
 111   54   55 1
 112   54  153 1
 113   55   56 1
 114   55  154 1
 115   55  155 1
 116   56   57 1
 117   56  156 1
 118   56  157 1
 119   57   58 1
 120   57  158 1
 121   57  159 1
 122   58   59 1
 123   58  160 1
 124   59   60 2
 125   59   61 1
 126   60  161 1
 127   61  162 1
 128   61  163 1
 129   62   63 2
 130   62   65 1
 131   62   72 am
 132   64   65 1
 133   64  164 1
 134   65   66 1
 135   65  165 1
 136   66   67 1
 137   66  166 1
 138   66  167 1
 139   67   68 1
 140   67   69 1
 141   67  168 1
 142   68  169 1
 143   68  170 1
 144   68  171 1
 145   69  172 1
 146   69  173 1
 147   69  174 1
 148   70   71 2
 149   70   73 1
 150   70   81 1
 151   72   73 1
 152   72  175 1
 153   73   74 1
 154   73  176 1
 155   74   75 1
 156   74  177 1
 157   74  178 1
 158   75   76 1
 159   75  179 1
 160   75  180 1
 161   76   77 1
 162   76  181 1
 163   76  182 1
 164   77   78 1
 165   77  183 1
 166   78   79 2
 167   78   80 1
 168   79  184 1
 169   80  185 1
 170   80  186 1
 171   81  187 1
 172   82   83 2
 173   82   98 1
 174   84   85 1
 175   84  188 1
 176   84  189 1
 177   84  190 1
 178   85   86 1
 179   85  191 1
 180   85  192 1
 181   86   87 1
 182   86  193 1
 183   86  194 1
 184   87   88 1
 185   87  195 1
 186   87  196 1
 187   88   89 1
 188   88  197 1
 189   88  198 1
 190   89   90 1
 191   89  199 1
 192   89  200 1
 193   90   91 1
 194   90  201 1
 195   90  202 1
 196   91   92 1
 197   91  203 1
 198   91  204 1
 199   92   93 1
 200   92  205 1
 201   92  206 1
 202   93   94 1
 203   93  207 1
 204   93  208 1
 205   94   95 1
 206   94  209 1
 207   94  210 1
 208   95   96 1
 209   95  211 1
 210   95  212 1
 211   96   97 1
 212   96  213 1
 213   96  214 1
 214   97   98 1
 215   97  215 1
 216   97  216 1
 217   98  217 1
 218   98  218 1

#	End of record

