#	Name: ASD01816152
#	Creating user name:	WinNT
#	Creation time:	15. 06. 2019 19:34

#	Modifying user name:	WinNT
#	Modification time:	15. 06. 2019 19:34

#	Program:	/corina/corina34_cracker 3.40 0067  02.08.2006

@<TRIPOS>MOLECULE
ASD01816152
  53   58    0    0    0
SMALL
NO_CHARGES


@<TRIPOS>ATOM
   1 C1            -0.0167     1.3813     0.0096 C.ar    
   2 C2             0.0021    -0.0041     0.0020 C.ar    
   3 C3             1.1984    -0.6909    -0.0127 C.ar    
   4 C4             2.4015     0.0059    -0.0200 C.ar    
   5 C5             2.3790     1.4106    -0.0127 C.ar    
   6 C6             1.1663     2.0916     0.0022 C.ar    
   7 N7             3.6053    -0.6772    -0.0338 N.pl3   
   8 C8             4.7970    -0.0586    -0.0409 C.2     
   9 C9             4.9000     1.3103    -0.0349 C.2     
  10 C10            3.6670     2.1301    -0.0207 C.2     
  11 C11            5.9971     2.2729    -0.0391 C.2     
  12 N12            5.4246     3.4960    -0.0282 N.am    
  13 N13            4.0323     3.3799    -0.0174 N.2     
  14 O14            7.1915     2.0229    -0.0495 O.2     
  15 C15            3.5779    -2.1419    -0.0404 C.3     
  16 C16            3.5560    -2.6375    -1.4634 C.ar    
  17 N17            2.4056    -2.7356    -2.1001 N.ar    
  18 C18            2.3351    -3.1636    -3.3450 C.ar    
  19 C19            3.4830    -3.5292    -4.0341 C.ar    
  20 C20            4.7148    -3.4378    -3.3915 C.ar    
  21 C21            4.7432    -2.9778    -2.0853 C.ar    
  22 C22            6.1265     4.7081    -0.0278 C.ar    
  23 C23            5.8865     5.6523     0.9648 C.ar    
  24 C24            7.0677     4.9677    -1.0150 C.ar    
  25 C25            7.7583     6.1639    -1.0120 C.ar    
  26 C26            7.5140     7.1037    -0.0273 C.ar    
  27 C27            6.5819     6.8478     0.9614 C.ar    
  28 F28            4.9754     5.4022     1.9305 F       
  29 N29            3.4033    -3.9844    -5.3583 N.pl3   
  30 C30            2.2621    -4.1226    -6.1053 C.2     
  31 C31            2.6395    -4.5861    -7.3119 C.2     
  32 N32            3.9731    -4.7288    -7.3073 N.2     
  33 C33            4.4429    -4.3661    -6.1448 C.2     
  34 C34            1.7220    -4.8917    -8.4677 C.3     
  35 H35           -0.9602     1.9068     0.0170 H       
  36 H36           -0.9289    -0.5515     0.0080 H       
  37 H37            1.2004    -1.7709    -0.0181 H       
  38 H38            1.1506     3.1715     0.0077 H       
  39 H39            5.6983    -0.6536    -0.0513 H       
  40 H40            4.4654    -2.5242     0.4639 H       
  41 H41            2.6859    -2.4910     0.4797 H       
  42 H42            1.3742    -3.2308    -3.8335 H       
  43 H43            5.6262    -3.7147    -3.9005 H       
  44 H44            5.6807    -2.8939    -1.5558 H       
  45 H45            7.2599     4.2346    -1.7845 H       
  46 H46            8.4906     6.3655    -1.7798 H       
  47 H47            8.0560     8.0378    -0.0278 H       
  48 H48            6.3934     7.5839     1.7289 H       
  49 H49            1.2538    -3.9026    -5.7869 H       
  50 H50            5.4830    -4.3753    -5.8543 H       
  51 H51            1.6052    -4.0006    -9.0843 H       
  52 H52            2.1488    -5.6954    -9.0677 H       
  53 H53            0.7484    -5.2003    -8.0870 H       
@<TRIPOS>BOND
   1    1    2 ar
   2    1    6 ar
   3    1   35 1
   4    2    3 ar
   5    2   36 1
   6    3    4 ar
   7    3   37 1
   8    4    5 ar
   9    4    7 1
  10    5    6 ar
  11    5   10 1
  12    6   38 1
  13    7    8 1
  14    7   15 1
  15    8    9 2
  16    8   39 1
  17    9   10 1
  18    9   11 1
  19   10   13 2
  20   11   12 am
  21   11   14 2
  22   12   13 1
  23   12   22 1
  24   15   16 1
  25   15   40 1
  26   15   41 1
  27   16   17 ar
  28   16   21 ar
  29   17   18 ar
  30   18   19 ar
  31   18   42 1
  32   19   20 ar
  33   19   29 1
  34   20   21 ar
  35   20   43 1
  36   21   44 1
  37   22   23 ar
  38   22   24 ar
  39   23   28 1
  40   23   27 ar
  41   24   25 ar
  42   24   45 1
  43   25   26 ar
  44   25   46 1
  45   26   27 ar
  46   26   47 1
  47   27   48 1
  48   29   30 1
  49   29   33 1
  50   30   31 2
  51   30   49 1
  52   31   32 1
  53   31   34 1
  54   32   33 2
  55   33   50 1
  56   34   51 1
  57   34   52 1
  58   34   53 1

#	End of record

