#	Name: ASD01881464
#	Creating user name:	WinNT
#	Creation time:	15. 06. 2019 19:42

#	Modifying user name:	WinNT
#	Modification time:	15. 06. 2019 19:42

#	Program:	/corina/corina34_cracker 3.40 0067  02.08.2006

@<TRIPOS>MOLECULE
ASD01881464
  55   59    0    0    0
SMALL
NO_CHARGES


@<TRIPOS>ATOM
   1 C1            -0.0187     1.5258     0.0104 C.3     
   2 C2             1.1254    10.0924     4.2823 C.ar    
   3 C3             1.3138     9.0038     3.4571 C.ar    
   4 C4            -0.0102    10.1745     5.0785 C.ar    
   5 C5            -0.9613     9.1577     5.0456 C.ar    
   6 C6            -0.7770     8.0668     4.2217 C.ar    
   7 C7             0.3635     7.9836     3.4215 C.ar    
   8 C8             0.5640     6.8137     2.5353 C.2     
   9 C9             0.5739     6.9719     1.1620 C.2     
  10 C10            0.7538     5.5230     3.0868 C.2     
  11 C11            0.9360     4.4613     2.2797 C.2     
  12 N12            0.9420     4.6075     0.9222 N.pl3   
  13 C13            0.7669     5.8433     0.3475 C.2     
  14 C14            1.0994     3.7357    -0.1122 C.2     
  15 N15            1.0158     4.4223    -1.2223 N.2     
  16 N16            0.8203     5.6675    -0.9640 N.2     
  17 C17            1.3287     2.2506     0.0015 C.3     
  18 N18           -0.1980    11.2781     5.9135 N.pl3   
  19 C19            0.0021    -0.0041     0.0020 C.3     
  20 C20           -0.3944     0.7486     1.2737 C.3     
  21 F21           -2.0647     9.2397     5.8208 F       
  22 C22            0.8020    12.3481     5.9494 C.3     
  23 C23            0.3643    13.4123     6.9225 C.ar    
  24 C24            0.7359    13.3391     8.2504 C.ar    
  25 N25            0.3580    14.2655     9.1104 N.ar    
  26 C26           -0.3857    15.2947     8.7398 C.ar    
  27 C27           -0.7961    15.4323     7.4202 C.ar    
  28 C28           -0.4117    14.4796     6.4925 C.ar    
  29 O29           -0.7516    16.2245     9.6576 O.3     
  30 C30           -0.2981    16.0262    10.9982 C.3     
  31 C31            0.3801     8.3342     0.5476 C.3     
  32 F32            1.6282     8.9091     0.2848 F       
  33 F33           -0.3366     8.2092    -0.6473 F       
  34 F34           -0.3311     9.1490     1.4349 F       
  35 H35           -0.8227     2.0212    -0.5339 H       
  36 H36            1.8636    10.8801     4.3129 H       
  37 H37            2.1967     8.9414     2.8384 H       
  38 H38           -1.5141     7.2779     4.1962 H       
  39 H39            0.7523     5.3902     4.1586 H       
  40 H40            1.0797     3.4817     2.7112 H       
  41 H41            1.8633     2.0353     0.9266 H       
  42 H42            1.9198     1.9082    -0.8479 H       
  43 H43           -0.9906    11.3362     6.4697 H       
  44 H44           -0.7885    -0.5151    -0.5475 H       
  45 H45            0.9756    -0.4941    -0.0099 H       
  46 H46            0.3183     0.7538     2.0984 H       
  47 H47           -1.4458     0.7328     1.5608 H       
  48 H48            1.7612    11.9385     6.2660 H       
  49 H49            0.9034    12.7841     4.9555 H       
  50 H50            1.3431    12.5128     8.5894 H       
  51 H51           -1.4040    16.2734     7.1210 H       
  52 H52           -0.7155    14.5606     5.4593 H       
  53 H53           -0.6802    15.0772    11.3744 H       
  54 H54            0.7916    16.0113    11.0147 H       
  55 H55           -0.6600    16.8388    11.6281 H       
@<TRIPOS>BOND
   1    1   19 1
   2    1   17 1
   3    1   20 1
   4    1   35 1
   5    2    3 ar
   6    2    4 ar
   7    2   36 1
   8    3    7 ar
   9    3   37 1
  10    4    5 ar
  11    4   18 1
  12    5    6 ar
  13    5   21 1
  14    6    7 ar
  15    6   38 1
  16    7    8 1
  17    8    9 2
  18    8   10 1
  19    9   31 1
  20    9   13 1
  21   10   11 2
  22   10   39 1
  23   11   12 1
  24   11   40 1
  25   12   13 1
  26   12   14 1
  27   13   16 2
  28   14   15 2
  29   14   17 1
  30   15   16 1
  31   17   41 1
  32   17   42 1
  33   18   22 1
  34   18   43 1
  35   19   20 1
  36   19   44 1
  37   19   45 1
  38   20   46 1
  39   20   47 1
  40   22   23 1
  41   22   48 1
  42   22   49 1
  43   23   24 ar
  44   23   28 ar
  45   24   25 ar
  46   24   50 1
  47   25   26 ar
  48   26   27 ar
  49   26   29 1
  50   27   28 ar
  51   27   51 1
  52   28   52 1
  53   29   30 1
  54   30   53 1
  55   30   54 1
  56   30   55 1
  57   31   32 1
  58   31   33 1
  59   31   34 1

#	End of record

