#	Name: ASD00171090
#	Creating user name:	WinNT
#	Creation time:	15. 06. 2019 18:32

#	Modifying user name:	WinNT
#	Modification time:	15. 06. 2019 18:32

#	Program:	/corina/corina34_cracker 3.40 0067  02.08.2006

@<TRIPOS>MOLECULE
ASD00171090
  52   55    0    0    0
SMALL
NO_CHARGES


@<TRIPOS>ATOM
   1 C1            -0.5147     1.1112    -0.3237 C.2     
   2 N2            -0.4305    -0.1636     0.1055 N.am    
   3 C3            -1.6387    -0.9863     0.2692 C.3     
   4 C4            -1.4287    -2.3120    -0.4702 C.3     
   5 N5            -0.1837    -2.9370    -0.0041 N.3     
   6 C6             0.9830    -2.1031    -0.3227 C.3     
   7 C7             0.8723    -0.7708     0.4169 C.3     
   8 C8            -0.0326    -4.2882    -0.5604 C.3     
   9 C9             1.3537    -4.8005    -0.2662 C.2     
  10 C10            2.3388    -4.7866    -1.1506 C.2     
  11 S11            3.8069    -5.4581    -0.4639 S.3     
  12 C12            3.0594    -5.7557     1.0387 C.2     
  13 C13            1.7446    -5.3519     1.0142 C.2     
  14 N14            3.6878    -6.3193     2.1306 N.pl3   
  15 C15            0.8371    -5.4755     2.1547 C.2     
  16 O16            0.7494    -4.5698     2.9640 O.2     
  17 C17            0.0262    -6.7004     2.3251 C.ar    
  18 C18           -0.9253    -6.7748     3.3439 C.ar    
  19 C19           -1.6788    -7.9195     3.4976 C.ar    
  20 C20           -1.4928    -8.9942     2.6438 C.ar    
  21 C21           -0.5499    -8.9263     1.6313 C.ar    
  22 C22            0.2052    -7.7846     1.4640 C.ar    
  23 Cl23          -2.4447   -10.4321     2.8437 Cl      
  24 C24            0.6943     1.9563    -0.3678 C.ar    
  25 O25           -1.5858     1.5635    -0.6794 O.2     
  26 C26            0.9715     2.7274    -1.5018 C.ar    
  27 C27            2.1054     3.5166    -1.5355 C.ar    
  28 C28            2.9649     3.5441    -0.4498 C.ar    
  29 C29            2.6937     2.7808     0.6768 C.ar    
  30 C30            1.5642     1.9941     0.7251 C.ar    
  31 F31            0.1332     2.7002    -2.5609 F       
  32 F32            4.0722     4.3170    -0.4880 F       
  33 H33           -1.8086    -1.1806     1.3282 H       
  34 H34           -2.4973    -0.4639    -0.1525 H       
  35 H35           -2.2677    -2.9779    -0.2684 H       
  36 H36           -1.3624    -2.1242    -1.5418 H       
  37 H37            1.8930    -2.6176    -0.0139 H       
  38 H38            1.0157    -1.9183    -1.3964 H       
  39 H39            1.6741    -0.1060     0.0956 H       
  40 H40            0.9427    -0.9414     1.4912 H       
  41 H41           -0.7690    -4.9520    -0.1074 H       
  42 H42           -0.1869    -4.2564    -1.6390 H       
  43 H43            2.2502    -4.4126    -2.1599 H       
  44 H44            4.5959    -6.6505     2.0501 H       
  45 H45            3.2213    -6.3843     2.9786 H       
  46 H46           -1.0707    -5.9378     4.0107 H       
  47 H47           -2.4151    -7.9782     4.2854 H       
  48 H48           -0.4090    -9.7676     0.9688 H       
  49 H49            0.9398    -7.7327     0.6741 H       
  50 H50            2.3218     4.1126    -2.4098 H       
  51 H51            3.3684     2.8066     1.5198 H       
  52 H52            1.3554     1.4009     1.6031 H       
@<TRIPOS>BOND
   1    1    2 am
   2    1   24 1
   3    1   25 2
   4    2    3 1
   5    2    7 1
   6    3    4 1
   7    3   33 1
   8    3   34 1
   9    4    5 1
  10    4   35 1
  11    4   36 1
  12    5    6 1
  13    5    8 1
  14    6    7 1
  15    6   37 1
  16    6   38 1
  17    7   39 1
  18    7   40 1
  19    8    9 1
  20    8   41 1
  21    8   42 1
  22    9   10 2
  23    9   13 1
  24   10   11 1
  25   10   43 1
  26   11   12 1
  27   12   13 2
  28   12   14 1
  29   13   15 1
  30   14   44 1
  31   14   45 1
  32   15   16 2
  33   15   17 1
  34   17   18 ar
  35   17   22 ar
  36   18   19 ar
  37   18   46 1
  38   19   20 ar
  39   19   47 1
  40   20   21 ar
  41   20   23 1
  42   21   22 ar
  43   21   48 1
  44   22   49 1
  45   24   26 ar
  46   24   30 ar
  47   26   27 ar
  48   26   31 1
  49   27   28 ar
  50   27   50 1
  51   28   29 ar
  52   28   32 1
  53   29   30 ar
  54   29   51 1
  55   30   52 1

#	End of record

