#	Name: ASD08150388
#	Creating user name:	WinNT
#	Creation time:	15. 06. 2019 21:15

#	Modifying user name:	WinNT
#	Modification time:	15. 06. 2019 21:15

#	Program:	/corina/corina34_cracker 3.40 0067  02.08.2006

@<TRIPOS>MOLECULE
ASD08150388
  47   51    0    0    0
SMALL
NO_CHARGES


@<TRIPOS>ATOM
   1 N1             0.9068     2.9483    -1.6581 N.am    
   2 C2             1.3359     2.3214    -2.7707 C.2     
   3 C3             2.5452     1.5970    -2.7724 C.2     
   4 C4             3.2979     1.5214    -1.6454 C.2     
   5 C5             2.8498     2.1802    -0.4731 C.ar    
   6 C6             3.5925     2.1339     0.7222 C.ar    
   7 N7             3.1768     2.7425     1.8020 N.ar    
   8 C8             2.0312     3.4401     1.8367 C.ar    
   9 C9             1.2200     3.5408     0.6796 C.ar    
  10 C10            1.6412     2.8928    -0.5052 C.ar    
  11 C11            0.0275     4.2695     0.7265 C.ar    
  12 C12           -0.3487     4.8871     1.9081 C.ar    
  13 C13            0.4593     4.7830     3.0490 C.ar    
  14 C14            1.6221     4.0784     3.0190 C.ar    
  15 O15            0.6691     2.3810    -3.7897 O.2     
  16 C16           -1.6119     5.6624     1.9663 C.ar    
  17 C17           -0.2954     3.6660    -1.6836 C.ar    
  18 C18           -0.2867     5.0268    -1.9621 C.ar    
  19 C19           -1.4724     5.7353    -1.9878 C.ar    
  20 C20           -2.6710     5.0917    -1.7358 C.ar    
  21 C21           -2.6845     3.7306    -1.4567 C.ar    
  22 C22           -1.4971     3.0169    -1.4361 C.ar    
  23 F23           -3.8289     5.7872    -1.7607 F       
  24 C24           -1.6962     6.8394     2.7149 C.ar    
  25 N25           -2.8389     7.5022     2.7414 N.ar    
  26 C26           -3.8948     7.0643     2.0708 C.ar    
  27 N27           -3.8541     5.9526     1.3503 N.ar    
  28 C28           -2.7460     5.2375     1.2693 C.ar    
  29 N29           -5.0729     7.7877     2.1246 N.pl3   
  30 O30           -3.8625     3.0987    -1.2088 O.3     
  31 C31           -3.8013     1.6986    -0.9293 C.3     
  32 H32            2.8737     1.1002    -3.6734 H       
  33 H33            4.2247     0.9670    -1.6418 H       
  34 H34            4.5224     1.5853     0.7476 H       
  35 H35           -0.5954     4.3505    -0.1521 H       
  36 H36            0.1545     5.2693     3.9639 H       
  37 H37            2.2324     4.0086     3.9074 H       
  38 H38            0.6478     5.5314    -2.1584 H       
  39 H39           -1.4636     6.7933    -2.2046 H       
  40 H40           -1.5061     1.9581    -1.2234 H       
  41 H41           -0.8398     7.2019     3.2641 H       
  42 H42           -2.7198     4.3328     0.6800 H       
  43 H43           -5.1178     8.6031     2.6481 H       
  44 H44           -5.8540     7.4795     1.6390 H       
  45 H45           -3.3625     1.1771    -1.7799 H       
  46 H46           -3.1872     1.5312    -0.0444 H       
  47 H47           -4.8074     1.3195    -0.7503 H       
@<TRIPOS>BOND
   1    1    2 am
   2    1   10 1
   3    1   17 1
   4    2    3 1
   5    2   15 2
   6    3    4 2
   7    3   32 1
   8    4    5 1
   9    4   33 1
  10    5    6 ar
  11    5   10 ar
  12    6    7 ar
  13    6   34 1
  14    7    8 ar
  15    8    9 ar
  16    8   14 ar
  17    9   10 ar
  18    9   11 ar
  19   11   12 ar
  20   11   35 1
  21   12   13 ar
  22   12   16 1
  23   13   14 ar
  24   13   36 1
  25   14   37 1
  26   16   24 ar
  27   16   28 ar
  28   17   18 ar
  29   17   22 ar
  30   18   19 ar
  31   18   38 1
  32   19   20 ar
  33   19   39 1
  34   20   21 ar
  35   20   23 1
  36   21   22 ar
  37   21   30 1
  38   22   40 1
  39   24   25 ar
  40   24   41 1
  41   25   26 ar
  42   26   27 ar
  43   26   29 1
  44   27   28 ar
  45   28   42 1
  46   29   43 1
  47   29   44 1
  48   30   31 1
  49   31   45 1
  50   31   46 1
  51   31   47 1

#	End of record

