#	Name: ASD03090019
#	Creating user name:	WinNT
#	Creation time:	15. 06. 2019 20:28

#	Modifying user name:	WinNT
#	Modification time:	15. 06. 2019 20:28

#	Program:	/corina/corina34_cracker 3.40 0067  02.08.2006

@<TRIPOS>MOLECULE
ASD03090019
  99  103    0    0    0
SMALL
NO_CHARGES


@<TRIPOS>ATOM
   1 O1            -1.1807     2.9271     2.1271 O.3     
   2 O2             2.4193     3.1136     2.8922 O.3     
   3 O3             1.4169     1.4060     4.9734 O.3     
   4 O4            -1.0317     0.0481     4.3887 O.3     
   5 O5             0.4047     4.4624     1.3687 O.3     
   6 O6            -3.5172     0.3234     3.1739 O.3     
   7 O7             2.2131     5.2734     3.3118 O.2     
   8 O8            -3.6892     2.4680     2.6696 O.2     
   9 O9             9.2162     8.7474    -4.2170 O.3     
  10 O10            9.8845     9.1643    -2.1523 O.2     
  11 O11           12.3959     6.1315    -0.2974 O.2     
  12 O12            0.4705     8.0519     3.3759 O.2     
  13 N13            8.0673     6.7610     1.6087 N.pl3   
  14 N14            4.1938     8.5953     0.4312 N.pl3   
  15 N15           10.7818     6.2868     1.3175 N.am    
  16 N16            1.9385     9.0973     1.9880 N.am    
  17 C17            0.7388     1.5567     3.7247 C.3     
  18 C18            1.0017     2.9580     3.1647 C.3     
  19 C19           -0.7678     1.3772     3.9348 C.3     
  20 C20           -1.4925     1.6180     2.6079 C.3     
  21 C21            0.2086     3.1378     1.8675 C.3     
  22 C22            6.1740     6.3123     2.6556 C.2     
  23 C23            6.7251     6.6227     1.4556 C.2     
  24 C24            5.9699     6.7876     0.1620 C.3     
  25 C25            4.7103     6.0737     2.9234 C.3     
  26 C26            5.4392     8.1948     0.0659 C.2     
  27 C27            7.2015     6.2521     3.5989 C.2     
  28 C28            6.1276     9.2665    -0.3991 C.2     
  29 C29            4.3921     4.5894     2.7322 C.3     
  30 C30            8.3843     6.5352     2.9309 C.2     
  31 C31            2.9284     4.3509     3.0000 C.2     
  32 C32            5.2896    10.3815    -0.3255 C.2     
  33 C33           -2.9801     1.5013     2.8193 C.2     
  34 C34            4.0808     9.9481     0.1964 C.2     
  35 C35            7.5470     9.2564    -0.9054 C.3     
  36 C36            7.0539     5.9392     5.0656 C.3     
  37 C37            9.6728     6.5831     3.4998 C.2     
  38 C38            5.6348    11.7901    -0.7352 C.3     
  39 C39            7.5497     8.9811    -2.4105 C.3     
  40 C40            2.9422    10.7464     0.4413 C.2     
  41 C41           10.7901     6.5297     2.6867 C.2     
  42 C42            1.9279    10.2717     1.2423 C.2     
  43 C43           12.1146     6.7118     3.1094 C.2     
  44 C44            0.6268    10.9053     1.4754 C.2     
  45 C45            8.9691     8.9711    -2.9168 C.2     
  46 C46           12.9293     6.5805     1.9940 C.2     
  47 C47           -0.0577    10.0677     2.3466 C.2     
  48 C48           12.0474     6.3079     0.8573 C.2     
  49 C49           12.5698     6.9983     4.5171 C.3     
  50 C50            0.7688     8.9777     2.6382 C.2     
  51 C51            0.1434    12.1739     0.9023 C.2     
  52 C52           -1.4474    10.2938     2.8837 C.3     
  53 C53           14.3983     6.6942     1.9597 C.2     
  54 C54           -1.0742    12.2430     0.3733 C.2     
  55 C55           15.0499     6.5437     0.8112 C.2     
  56 H56            1.2939     0.5401     5.3858 H       
  57 H57           -1.9684    -0.1362     4.5427 H       
  58 H58           -0.0703     4.6477     0.5471 H       
  59 H59           -4.4758     0.2976     3.2980 H       
  60 H60           10.1425     8.7506    -4.4947 H       
  61 H61            8.6979     6.9782     0.9044 H       
  62 H62            3.4987     8.0236     0.7930 H       
  63 H63            9.9909     6.1239     0.7801 H       
  64 H64            2.6718     8.4637     2.0288 H       
  65 H65            1.1017     0.8085     3.0200 H       
  66 H66            0.6863     3.7061     3.8921 H       
  67 H67           -1.1197     2.0925     4.6781 H       
  68 H68           -1.1697     0.8761     1.8776 H       
  69 H69            0.5537     2.4157     1.1275 H       
  70 H70            6.6388     6.5935    -0.6765 H       
  71 H71            5.1386     6.0831     0.1342 H       
  72 H72            4.4757     6.3667     3.9467 H       
  73 H73            4.1129     6.6656     2.2300 H       
  74 H74            4.6268     4.2964     1.7089 H       
  75 H75            4.9895     3.9975     3.4257 H       
  76 H76            8.0085    10.2249    -0.7124 H       
  77 H77            8.1102     8.4769    -0.3925 H       
  78 H78            7.1439     4.8638     5.2186 H       
  79 H79            7.8345     6.4527     5.6270 H       
  80 H80            6.0765     6.2749     5.4121 H       
  81 H81            9.7877     6.6615     4.5708 H       
  82 H82            5.3777    11.9367    -1.7842 H       
  83 H83            5.0736    12.4948    -0.1216 H       
  84 H84            6.7028    11.9575    -0.5960 H       
  85 H85            7.0882     8.0127    -2.6035 H       
  86 H86            6.9864     9.7607    -2.9235 H       
  87 H87            2.8669    11.7295     0.0004 H       
  88 H88           12.7611     6.0586     5.0354 H       
  89 H89           13.4842     7.5909     4.4898 H       
  90 H90           11.7932     7.5524     5.0444 H       
  91 H91            0.7783    13.0475     0.9121 H       
  92 H92           -2.1750     9.8367     2.2130 H       
  93 H93           -1.5323     9.8439     3.8729 H       
  94 H94           -1.6402    11.3643     2.9537 H       
  95 H95           14.9453     6.8999     2.8680 H       
  96 H96           -1.4611    13.1914     0.0309 H       
  97 H97           -1.6764    11.3508     0.2860 H       
  98 H98           14.5028     6.3380    -0.0970 H       
  99 H99           16.1263     6.6270     0.7861 H       
@<TRIPOS>BOND
   1    1   20 1
   2    1   21 1
   3    2   31 1
   4    2   18 1
   5    3   17 1
   6    3   56 1
   7    4   19 1
   8    4   57 1
   9    5   21 1
  10    5   58 1
  11    6   33 1
  12    6   59 1
  13    7   31 2
  14    8   33 2
  15    9   45 1
  16    9   60 1
  17   10   45 2
  18   11   48 2
  19   12   50 2
  20   13   23 1
  21   13   30 1
  22   13   61 1
  23   14   26 1
  24   14   34 1
  25   14   62 1
  26   15   41 1
  27   15   48 am
  28   15   63 1
  29   16   42 1
  30   16   50 am
  31   16   64 1
  32   17   18 1
  33   17   19 1
  34   17   65 1
  35   18   21 1
  36   18   66 1
  37   19   20 1
  38   19   67 1
  39   20   33 1
  40   20   68 1
  41   21   69 1
  42   22   23 2
  43   22   25 1
  44   22   27 1
  45   23   24 1
  46   24   26 1
  47   24   70 1
  48   24   71 1
  49   25   29 1
  50   25   72 1
  51   25   73 1
  52   26   28 2
  53   27   30 2
  54   27   36 1
  55   28   32 1
  56   28   35 1
  57   29   31 1
  58   29   74 1
  59   29   75 1
  60   30   37 1
  61   32   34 2
  62   32   38 1
  63   34   40 1
  64   35   39 1
  65   35   76 1
  66   35   77 1
  67   36   78 1
  68   36   79 1
  69   36   80 1
  70   37   41 2
  71   37   81 1
  72   38   82 1
  73   38   83 1
  74   38   84 1
  75   39   45 1
  76   39   85 1
  77   39   86 1
  78   40   42 2
  79   40   87 1
  80   41   43 1
  81   42   44 1
  82   43   46 2
  83   43   49 1
  84   44   47 2
  85   44   51 1
  86   46   48 1
  87   46   53 1
  88   47   50 1
  89   47   52 1
  90   49   88 1
  91   49   89 1
  92   49   90 1
  93   51   54 2
  94   51   91 1
  95   52   92 1
  96   52   93 1
  97   52   94 1
  98   53   55 2
  99   53   95 1
 100   54   96 1
 101   54   97 1
 102   55   98 1
 103   55   99 1

#	End of record

