#	Name: ASD03091631
#	Creating user name:	WinNT
#	Creation time:	15. 06. 2019 20:31

#	Modifying user name:	WinNT
#	Modification time:	15. 06. 2019 20:31

#	Program:	/corina/corina34_cracker 3.40 0067  02.08.2006

@<TRIPOS>MOLECULE
ASD03091631
  18   19    0    0    0
SMALL
NO_CHARGES


@<TRIPOS>ATOM
   1 C1            -0.0161     1.3336     0.0094 C.2     
   2 C2             0.0021    -0.0041     0.0020 C.2     
   3 C3             1.2765    -0.5925    -0.0133 C.ar    
   4 C4             2.3066     0.3559    -0.0181 C.ar    
   5 S5             1.6173     1.9751    -0.0028 S.3     
   6 C6             3.6422    -0.0656    -0.0331 C.ar    
   7 C7             3.9430    -1.4084    -0.0432 C.ar    
   8 C8             2.9233    -2.3522    -0.0385 C.ar    
   9 C9             1.6201    -1.9663    -0.0232 C.ar    
  10 C10           -1.2350     2.1524     0.0198 C.2     
  11 O11           -2.3267     1.6173     0.0223 O.2     
  12 O12           -1.1435     3.4977     0.0267 O.3     
  13 F13            4.6373     0.8482    -0.0381 F       
  14 H14           -0.9037    -0.5922     0.0079 H       
  15 H15            4.9741    -1.7294    -0.0551 H       
  16 H16            3.1689    -3.4038    -0.0465 H       
  17 H17            0.8403    -2.7135    -0.0194 H       
  18 H18           -1.9733     3.9941     0.0335 H       
@<TRIPOS>BOND
   1    1    2 2
   2    1    5 1
   3    1   10 1
   4    2    3 1
   5    2   14 1
   6    3    4 ar
   7    3    9 ar
   8    4    5 1
   9    4    6 ar
  10    6    7 ar
  11    6   13 1
  12    7    8 ar
  13    7   15 1
  14    8    9 ar
  15    8   16 1
  16    9   17 1
  17   10   11 2
  18   10   12 1
  19   12   18 1

#	End of record

