#	Name: ASD03331357
#	Creating user name:	WinNT
#	Creation time:	15. 06. 2019 20:39

#	Modifying user name:	WinNT
#	Modification time:	15. 06. 2019 20:39

#	Program:	/corina/corina34_cracker 3.40 0067  02.08.2006

@<TRIPOS>MOLECULE
ASD03331357
  43   45    0    0    0
SMALL
NO_CHARGES


@<TRIPOS>ATOM
   1 C1             0.0311     1.4500    -0.1869 C.2     
   2 C2             0.1225     0.0918    -0.1253 C.2     
   3 C3             1.3972    -0.6653    -0.3993 C.3     
   4 C4             2.3490     0.2478    -1.1820 C.3     
   5 C5             2.4593     1.6083    -0.4861 C.3     
   6 N6             1.1375     2.2646    -0.5108 N.am    
   7 N7            -1.9654     0.7044     0.3575 N.2     
   8 N8            -1.0951    -0.3870     0.2103 N.pl3   
   9 C9            -1.2864     1.8121     0.1222 C.2     
  10 C10            0.9950     3.5676    -0.8243 C.2     
  11 O11           -0.1158     4.0491    -0.9305 O.2     
  12 O12            2.0835     4.3361    -1.0199 O.3     
  13 C13           -1.8247     3.1936     0.1696 C.ar    
  14 C14           -2.8373     3.5807    -0.7094 C.ar    
  15 C15           -3.3361     4.8687    -0.6613 C.ar    
  16 C16           -2.8323     5.7747     0.2569 C.ar    
  17 C17           -1.8255     5.3943     1.1322 C.ar    
  18 C18           -1.3250     4.1068     1.0955 C.ar    
  19 F19           -1.3371     6.2826     2.0254 F       
  20 F20           -3.3225     7.0329     0.3001 F       
  21 F21           -3.3289     2.6979    -1.6062 F       
  22 C22            1.8570     5.6964    -1.4743 C.3     
  23 C23            1.1006     6.4750    -0.3961 C.3     
  24 C24            3.2018     6.3744    -1.7443 C.3     
  25 C25            1.0301     5.6732    -2.7614 C.3     
  26 H26            1.8607    -0.9549     0.5438 H       
  27 H27            1.1751    -1.5544    -0.9893 H       
  28 H28            3.3349    -0.2144    -1.2313 H       
  29 H29            1.9660     0.3883    -2.1928 H       
  30 H30            2.7769     1.4656     0.5467 H       
  31 H31            3.1852     2.2293    -1.0110 H       
  32 H32           -1.3274    -1.3213     0.3286 H       
  33 H33           -4.1197     5.1692    -1.3411 H       
  34 H34           -0.5445     3.8102     1.7805 H       
  35 H35            1.7240     6.5623     0.4938 H       
  36 H36            0.8584     7.4702    -0.7691 H       
  37 H37            0.1806     5.9473    -0.1449 H       
  38 H38            3.7406     5.8198    -2.5124 H       
  39 H39            3.0318     7.3956    -2.0854 H       
  40 H40            3.7909     6.3910    -0.8273 H       
  41 H41            0.0721     5.1902    -2.5691 H       
  42 H42            0.8601     6.6944    -3.1025 H       
  43 H43            1.5690     5.1185    -3.5295 H       
@<TRIPOS>BOND
   1    1    2 2
   2    1    6 1
   3    1    9 1
   4    2    3 1
   5    2    8 1
   6    3    4 1
   7    3   26 1
   8    3   27 1
   9    4    5 1
  10    4   28 1
  11    4   29 1
  12    5    6 1
  13    5   30 1
  14    5   31 1
  15    6   10 am
  16    7    8 1
  17    7    9 2
  18    8   32 1
  19    9   13 1
  20   10   11 2
  21   10   12 1
  22   12   22 1
  23   13   14 ar
  24   13   18 ar
  25   14   15 ar
  26   14   21 1
  27   15   16 ar
  28   15   33 1
  29   16   17 ar
  30   16   20 1
  31   17   18 ar
  32   17   19 1
  33   18   34 1
  34   22   23 1
  35   22   25 1
  36   22   24 1
  37   23   35 1
  38   23   36 1
  39   23   37 1
  40   24   38 1
  41   24   39 1
  42   24   40 1
  43   25   41 1
  44   25   42 1
  45   25   43 1

#	End of record

