#	Name: ASD01814806
#	Creating user name:	WinNT
#	Creation time:	15. 06. 2019 19:33

#	Modifying user name:	WinNT
#	Modification time:	15. 06. 2019 19:33

#	Program:	/corina/corina34_cracker 3.40 0067  02.08.2006

@<TRIPOS>MOLECULE
ASD01814806
  63   67    0    0    0
SMALL
NO_CHARGES


@<TRIPOS>ATOM
   1 N1             0.1941    -0.3608    -0.9422 N.am    
   2 C2             1.0689    -1.5390    -1.0147 C.3     
   3 C3             1.7754    -1.7123     0.3335 C.3     
   4 C4             2.4991    -0.4136     0.6963 C.3     
   5 C5             1.4801     0.7208     0.8273 C.3     
   6 C6             0.7703     0.9216    -0.5154 C.3     
   7 C7             3.2234    -0.5914     2.0058 C.2     
   8 O8             2.7350    -1.2743     2.8811 O.2     
   9 N9             4.4139     0.0084     2.2043 N.am    
  10 C10            5.0243     0.7976     1.1316 C.3     
  11 C11            4.7571     2.2841     1.3766 C.3     
  12 C12            5.2583     3.0963     0.1808 C.3     
  13 S13           -1.4092    -0.4745    -1.3406 S.o2    
  14 O14           -1.8260     0.8343    -1.7046 O.2     
  15 O15           -1.5295    -1.5967    -2.2040 O.2     
  16 N16           -4.3578    -1.5804     3.6188 N.pl3   
  17 N17           -4.5971    -0.2631     4.0237 N.2     
  18 C18           -4.0848     0.5695     3.1630 C.2     
  19 C19           -3.4565    -0.2142     2.1044 C.ar    
  20 C20           -2.7615     0.1121     0.9344 C.ar    
  21 C21           -2.2849    -0.8839     0.1325 C.ar    
  22 C22           -2.4842    -2.2181     0.4664 C.ar    
  23 C23           -3.1601    -2.5616     1.6025 C.ar    
  24 C24           -3.6577    -1.5667     2.4408 C.ar    
  25 C25            5.0975    -0.1288     3.4927 C.3     
  26 C26            5.3907    -1.6151     3.7878 C.3     
  27 C27            5.2236    -1.6876     5.3205 C.3     
  28 C28            4.2663    -0.5678     5.6679 C.ar    
  29 C29            3.5170    -0.3490     6.8146 C.ar    
  30 C30            2.6984     0.7621     6.9085 C.ar    
  31 C31            2.6274     1.6566     5.8572 C.ar    
  32 C32            3.3735     1.4395     4.7153 C.ar    
  33 C33            4.1938     0.3277     4.6181 C.ar    
  34 F34            3.5866    -1.2235     7.8421 F       
  35 H35            0.4716    -2.4248    -1.2308 H       
  36 H36            1.8108    -1.3955    -1.8002 H       
  37 H37            1.0391    -1.9456     1.1027 H       
  38 H38            2.4988    -2.5246     0.2634 H       
  39 H39            3.2177    -0.1677    -0.0855 H       
  40 H40            0.7466     0.4645     1.5918 H       
  41 H41            1.9934     1.6403     1.1085 H       
  42 H42            1.4878     1.2658    -1.2602 H       
  43 H43           -0.0241     1.6594    -0.4020 H       
  44 H44            6.0996     0.6195     1.1162 H       
  45 H45            4.5937     0.5041     0.1743 H       
  46 H46            3.6864     2.4449     1.5020 H       
  47 H47            5.2805     2.6036     2.2778 H       
  48 H48            5.0679     4.1552     0.3553 H       
  49 H49            6.3291     2.9354     0.0554 H       
  50 H50            4.7350     2.7767    -0.7204 H       
  51 H51           -4.6387    -2.3760     4.0972 H       
  52 H52           -4.1194     1.6473     3.2219 H       
  53 H53           -2.6036     1.1466     0.6673 H       
  54 H54           -2.1001    -2.9929    -0.1806 H       
  55 H55           -3.3087    -3.6022     1.8501 H       
  56 H56            6.0231     0.4468     3.4939 H       
  57 H57            4.6672    -2.2594     3.2882 H       
  58 H58            6.4085    -1.8746     3.4963 H       
  59 H59            4.8010    -2.6499     5.6098 H       
  60 H60            6.1832    -1.5315     5.8134 H       
  61 H61            2.1154     0.9303     7.8019 H       
  62 H62            1.9887     2.5245     5.9284 H       
  63 H63            3.3168     2.1395     3.8948 H       
@<TRIPOS>BOND
   1    1    2 1
   2    1    6 1
   3    1   13 am
   4    2    3 1
   5    2   35 1
   6    2   36 1
   7    3    4 1
   8    3   37 1
   9    3   38 1
  10    4    5 1
  11    4    7 1
  12    4   39 1
  13    5    6 1
  14    5   40 1
  15    5   41 1
  16    6   42 1
  17    6   43 1
  18    7    8 2
  19    7    9 am
  20    9   10 1
  21    9   25 1
  22   10   11 1
  23   10   44 1
  24   10   45 1
  25   11   12 1
  26   11   46 1
  27   11   47 1
  28   12   48 1
  29   12   49 1
  30   12   50 1
  31   13   14 2
  32   13   15 2
  33   13   21 1
  34   16   17 1
  35   16   24 1
  36   16   51 1
  37   17   18 2
  38   18   19 1
  39   18   52 1
  40   19   20 ar
  41   19   24 ar
  42   20   21 ar
  43   20   53 1
  44   21   22 ar
  45   22   23 ar
  46   22   54 1
  47   23   24 ar
  48   23   55 1
  49   25   26 1
  50   25   33 1
  51   25   56 1
  52   26   27 1
  53   26   57 1
  54   26   58 1
  55   27   28 1
  56   27   59 1
  57   27   60 1
  58   28   29 ar
  59   28   33 ar
  60   29   30 ar
  61   29   34 1
  62   30   31 ar
  63   30   61 1
  64   31   32 ar
  65   31   62 1
  66   32   33 ar
  67   32   63 1

#	End of record

