#	Name: ASD04590966
#	Creating user name:	WinNT
#	Creation time:	15. 06. 2019 20:51

#	Modifying user name:	WinNT
#	Modification time:	15. 06. 2019 20:51

#	Program:	/corina/corina34_cracker 3.40 0067  02.08.2006

@<TRIPOS>MOLECULE
ASD04590966
  59   63    0    0    0
SMALL
NO_CHARGES


@<TRIPOS>ATOM
   1 N1            -0.0170     1.3235    -0.0111 N.ar    
   2 C2             0.0017    -0.0035    -0.0048 C.ar    
   3 N3             1.1296    -0.6948    -0.0122 N.ar    
   4 C4             2.3050    -0.0727    -0.0263 C.ar    
   5 C5             2.3190     1.3364    -0.0332 C.ar    
   6 C6             1.1070     2.0203    -0.0251 C.ar    
   7 N7             3.6031    -0.5195    -0.0364 N.pl3   
   8 C8             4.4824     0.5494    -0.0499 C.ar    
   9 C9             3.7313     1.7383    -0.0485 C.ar    
  10 C10            5.8681     0.6416    -0.0635 C.ar    
  11 N11            6.4614     1.8179    -0.0743 N.ar    
  12 C12            5.7851     2.9531    -0.0734 C.ar    
  13 C13            4.4065     2.9583    -0.0612 C.ar    
  14 N14           -1.2019    -0.6887     0.0103 N.pl3   
  15 C15           -2.4022     0.0122     0.1313 C.ar    
  16 N16           -2.3890     1.3198     0.3320 N.ar    
  17 N17           -3.4682     2.0044     0.4491 N.ar    
  18 C18           -4.6669     1.4482     0.3771 C.ar    
  19 C19           -4.7831     0.0736     0.1674 C.ar    
  20 C20           -3.6191    -0.6635     0.0353 C.ar    
  21 N21           -5.8101     2.2333     0.5109 N.3     
  22 C22            4.0015    -1.9293    -0.0329 C.3     
  23 C23           -6.6951     2.0763    -0.6503 C.3     
  24 C24            3.4577    -2.6099     1.2248 C.3     
  25 O25            3.9426    -3.9527     1.2873 O.3     
  26 C26            3.4348    -2.6225    -1.2736 C.3     
  27 C27           -5.4584     3.6430     0.7239 C.3     
  28 C28           -6.7274     4.4489     1.0108 C.3     
  29 C29           -7.6889     4.3166    -0.1735 C.3     
  30 C30           -8.0009     2.8355    -0.4044 C.3     
  31 N31           -8.9329     5.0403     0.1209 N.3     
  32 C32           -9.6099     5.4488    -1.1171 C.3     
  33 H33            1.0847     3.1001    -0.0304 H       
  34 H34            6.4646    -0.2587    -0.0648 H       
  35 H35            6.3205     3.8910    -0.0822 H       
  36 H36            3.8598     3.8897    -0.0612 H       
  37 H37           -1.2103    -1.6559    -0.0632 H       
  38 H38           -5.7517    -0.4000     0.1055 H       
  39 H39           -3.6517    -1.7304    -0.1288 H       
  40 H40            5.0892    -1.9995    -0.0426 H       
  41 H41           -6.2042     2.4760    -1.5377 H       
  42 H42           -6.9125     1.0189    -0.8010 H       
  43 H43            3.7898    -2.0622     2.1067 H       
  44 H44            2.3682    -2.6182     1.1912 H       
  45 H45            3.6370    -4.4456     2.0611 H       
  46 H46            2.3471    -2.5524    -1.2639 H       
  47 H47            3.8222    -2.1377    -2.1696 H       
  48 H48            3.7312    -3.6715    -1.2710 H       
  49 H49           -4.7777     3.7235     1.5714 H       
  50 H50           -4.9733     4.0353    -0.1699 H       
  51 H51           -7.2056     4.0660     1.9124 H       
  52 H52           -6.4678     5.4979     1.1534 H       
  53 H53           -7.2257     4.7350    -1.0671 H       
  54 H54           -8.6513     2.7317    -1.2730 H       
  55 H55           -8.4992     2.4271     0.4748 H       
  56 H56           -9.5445     4.4866     0.7018 H       
  57 H57           -8.9532     6.1019    -1.6918 H       
  58 H58           -9.8511     4.5651    -1.7079 H       
  59 H59          -10.5277     5.9824    -0.8703 H       
@<TRIPOS>BOND
   1    1    2 ar
   2    1    6 ar
   3    2    3 ar
   4    2   14 1
   5    3    4 ar
   6    4    5 ar
   7    4    7 1
   8    5    6 ar
   9    5    9 1
  10    6   33 1
  11    7    8 1
  12    7   22 1
  13    8    9 ar
  14    8   10 ar
  15    9   13 ar
  16   10   11 ar
  17   10   34 1
  18   11   12 ar
  19   12   13 ar
  20   12   35 1
  21   13   36 1
  22   14   15 1
  23   14   37 1
  24   15   16 ar
  25   15   20 ar
  26   16   17 ar
  27   17   18 ar
  28   18   19 ar
  29   18   21 1
  30   19   20 ar
  31   19   38 1
  32   20   39 1
  33   21   27 1
  34   21   23 1
  35   22   24 1
  36   22   26 1
  37   22   40 1
  38   23   30 1
  39   23   41 1
  40   23   42 1
  41   24   25 1
  42   24   43 1
  43   24   44 1
  44   25   45 1
  45   26   46 1
  46   26   47 1
  47   26   48 1
  48   27   28 1
  49   27   49 1
  50   27   50 1
  51   28   29 1
  52   28   51 1
  53   28   52 1
  54   29   30 1
  55   29   31 1
  56   29   53 1
  57   30   54 1
  58   30   55 1
  59   31   32 1
  60   31   56 1
  61   32   57 1
  62   32   58 1
  63   32   59 1

#	End of record

