#	Name: ASD05490106
#	Creating user name:	WinNT
#	Creation time:	15. 06. 2019 21:01

#	Modifying user name:	WinNT
#	Modification time:	15. 06. 2019 21:01

#	Program:	/corina/corina34_cracker 3.40 0067  02.08.2006

@<TRIPOS>MOLECULE
ASD05490106
  46   48    0    0    0
SMALL
NO_CHARGES


@<TRIPOS>ATOM
   1 N1            -0.0178     1.4608     0.0101 N.pl3   
   2 O2             4.5582     2.8949    -0.0261 O.3     
   3 N3             2.7941     4.3826    -0.0015 N.ar    
   4 C4             1.4952     4.6638     0.0118 C.ar    
   5 C5             3.2233     3.1292    -0.0123 C.ar    
   6 N6             2.3949     2.0994    -0.0093 N.ar    
   7 C7             1.0795     2.2895     0.0040 C.ar    
   8 C8             0.5781     3.6006     0.0150 C.ar    
   9 N9             1.0558     5.9772     0.0226 N.pl3   
  10 C10           -1.1306     2.2546     0.0190 C.2     
  11 N11           -0.7773     3.5129     0.0270 N.2     
  12 C12            5.4173     4.0368    -0.0280 C.3     
  13 C13            6.8766     3.5771    -0.0442 C.3     
  14 O14            7.1483     2.8975    -1.2715 O.3     
  15 C15            8.4917     2.4246    -1.3889 C.3     
  16 C16            0.0021    -0.0041     0.0020 C.3     
  17 C17            0.0225    -0.5140     1.4200 C.ar    
  18 C18           -1.1652    -0.7640     2.0814 C.ar    
  19 C19           -1.1470    -1.2322     3.3820 C.ar    
  20 C20            0.0599    -1.4504     4.0213 C.ar    
  21 C21            1.2483    -1.2000     3.3589 C.ar    
  22 C22            1.2292    -0.7370     2.0569 C.ar    
  23 Br23           0.0854    -2.0902     5.8006 Br      
  24 O24           -2.4073     1.8048     0.0270 O.3     
  25 C25           -3.4422     2.7900     0.0462 C.3     
  26 C26           -2.4419    -1.5044     4.1032 C.3     
  27 F27           -3.5172    -1.2103     3.2579 F       
  28 F28           -2.4950    -2.8524     4.4735 F       
  29 F29           -2.5157    -0.7031     5.2476 F       
  30 H30            1.6985     6.7037     0.0206 H       
  31 H31            0.1053     6.1706     0.0323 H       
  32 H32            5.2168     4.6408    -0.9129 H       
  33 H33            5.2335     4.6312     0.8670 H       
  34 H34            7.5315     4.4439     0.0439 H       
  35 H35            7.0539     2.9012     0.7924 H       
  36 H36            8.6170     1.9208    -2.3473 H       
  37 H37            9.1802     3.2675    -1.3287 H       
  38 H38            8.7025     1.7248    -0.5803 H       
  39 H39           -0.8878    -0.3767    -0.5053 H       
  40 H40            0.8920    -0.3525    -0.5222 H       
  41 H41           -2.1075    -0.5933     1.5822 H       
  42 H42            2.1910    -1.3702     3.8578 H       
  43 H43            2.1569    -0.5418     1.5396 H       
  44 H44           -3.3595     3.4211    -0.8387 H       
  45 H45           -4.4139     2.2962     0.0508 H       
  46 H46           -3.3425     3.4042     0.9411 H       
@<TRIPOS>BOND
   1    1   16 1
   2    1    7 1
   3    1   10 1
   4    2   12 1
   5    2    5 1
   6    3    4 ar
   7    3    5 ar
   8    4    9 1
   9    4    8 ar
  10    5    6 ar
  11    6    7 ar
  12    7    8 ar
  13    8   11 1
  14    9   30 1
  15    9   31 1
  16   10   11 2
  17   10   24 1
  18   12   13 1
  19   12   32 1
  20   12   33 1
  21   13   14 1
  22   13   34 1
  23   13   35 1
  24   14   15 1
  25   15   36 1
  26   15   37 1
  27   15   38 1
  28   16   17 1
  29   16   39 1
  30   16   40 1
  31   17   18 ar
  32   17   22 ar
  33   18   19 ar
  34   18   41 1
  35   19   20 ar
  36   19   26 1
  37   20   21 ar
  38   20   23 1
  39   21   22 ar
  40   21   42 1
  41   22   43 1
  42   24   25 1
  43   25   44 1
  44   25   45 1
  45   25   46 1
  46   26   27 1
  47   26   28 1
  48   26   29 1

#	End of record

