#	Name: ASD01208005
#	Creating user name:	WinNT
#	Creation time:	15. 06. 2019 19:09

#	Modifying user name:	WinNT
#	Modification time:	15. 06. 2019 19:09

#	Program:	/corina/corina34_cracker 3.40 0067  02.08.2006

@<TRIPOS>MOLECULE
ASD01208005
  63   67    0    0    0
SMALL
NO_CHARGES


@<TRIPOS>ATOM
   1 C1            -0.0844     1.4339     0.0275 C.ar    
   2 C2             0.0184     0.0510    -0.0132 C.ar    
   3 C3            -1.1247    -0.7352     0.0265 C.ar    
   4 C4            -2.3734    -0.1416     0.1069 C.ar    
   5 C5            -2.4812     1.2493     0.1480 C.ar    
   6 C6            -1.3290     2.0357     0.1136 C.ar    
   7 C7            -3.8115     1.8873     0.2338 C.2     
   8 C8            -4.0512     3.2313     0.2801 C.2     
   9 N9            -5.0122     1.2318     0.2743 N.pl3   
  10 C10           -6.0169     2.1663     0.3518 C.2     
  11 C11           -5.4334     3.4151     0.3564 C.2     
  12 C12           -7.4579     1.8843     0.4153 C.2     
  13 S13           -8.7175     3.1070     0.5140 S.3     
  14 N14           -7.9811     0.7010     0.4009 N.2     
  15 C15           -9.3197     0.6051     0.4649 C.ar    
  16 C16           -9.9530     1.8514     0.5375 C.ar    
  17 O17            1.0381     2.1991    -0.0116 O.3     
  18 C18            0.8561     3.6142    -0.0908 C.3     
  19 C19            2.0902     4.2521    -0.7320 C.3     
  20 O20            3.2212     4.0635     0.1207 O.3     
  21 C21            0.6609     4.1828     1.3162 C.3     
  22 O22           -1.0186    -2.0894    -0.0140 O.3     
  23 C23           -1.4876    -2.7334    -1.1149 C.ar    
  24 C24           -1.9383    -2.0053    -2.2067 C.ar    
  25 C25           -1.5112    -4.1203    -1.1513 C.ar    
  26 C26           -1.9880    -4.7725    -2.2718 C.ar    
  27 C27           -2.4411    -4.0445    -3.3566 C.ar    
  28 C28           -2.4142    -2.6624    -3.3247 C.ar    
  29 S29           -3.0476    -4.8796    -4.7847 S.o2    
  30 C30           -4.8221    -5.0850    -4.4694 C.3     
  31 O31           -2.8330    -3.9596    -5.8462 O.2     
  32 O32           -2.3880    -6.1380    -4.7613 O.2     
  33 C33            4.4328     4.6250    -0.3881 C.3     
  34 C34          -11.3423     1.9308     0.6103 C.ar    
  35 C35          -10.1242    -0.5564     0.4661 C.ar    
  36 C36          -11.4799    -0.4586     0.5379 C.ar    
  37 C37          -12.0997     0.7808     0.6117 C.ar    
  38 H38            0.9906    -0.4151    -0.0762 H       
  39 H39           -3.2625    -0.7540     0.1374 H       
  40 H40           -1.4079     3.1124     0.1456 H       
  41 H41           -3.3052     4.0120     0.2617 H       
  42 H42           -5.1336     0.2697     0.2517 H       
  43 H43           -5.9503     4.3619     0.4095 H       
  44 H44           -0.0229     3.8342    -0.6967 H       
  45 H45            2.2810     3.7838    -1.6976 H       
  46 H46            1.9157     5.3187    -0.8736 H       
  47 H47            1.5399     3.9629     1.9221 H       
  48 H48            0.5221     5.2623     1.2558 H       
  49 H49           -0.2182     3.7284     1.7730 H       
  50 H50           -1.9175    -0.9258    -2.1823 H       
  51 H51           -1.1568    -4.6893    -0.3046 H       
  52 H52           -2.0066    -5.8519    -2.3007 H       
  53 H53           -2.7690    -2.0961    -4.1731 H       
  54 H54           -5.2845    -4.1061    -4.3434 H       
  55 H55           -5.2838    -5.5992    -5.3124 H       
  56 H56           -4.9644    -5.6734    -3.5629 H       
  57 H57            5.2433     4.4395     0.3167 H       
  58 H58            4.6722     4.1644    -1.3466 H       
  59 H59            4.3070     5.6993    -0.5226 H       
  60 H60          -11.8254     2.8951     0.6661 H       
  61 H61           -9.6596    -1.5297     0.4094 H       
  62 H62          -12.0804    -1.3563     0.5375 H       
  63 H63          -13.1764     0.8435     0.6686 H       
@<TRIPOS>BOND
   1    1    2 ar
   2    1   17 1
   3    1    6 ar
   4    2    3 ar
   5    2   38 1
   6    3    4 ar
   7    3   22 1
   8    4    5 ar
   9    4   39 1
  10    5    6 ar
  11    5    7 1
  12    6   40 1
  13    7    8 2
  14    7    9 1
  15    8   11 1
  16    8   41 1
  17    9   10 1
  18    9   42 1
  19   10   11 2
  20   10   12 1
  21   11   43 1
  22   12   13 1
  23   12   14 2
  24   13   16 1
  25   14   15 1
  26   15   16 ar
  27   15   35 ar
  28   16   34 ar
  29   17   18 1
  30   18   19 1
  31   18   21 1
  32   18   44 1
  33   19   20 1
  34   19   45 1
  35   19   46 1
  36   20   33 1
  37   21   47 1
  38   21   48 1
  39   21   49 1
  40   22   23 1
  41   23   24 ar
  42   23   25 ar
  43   24   28 ar
  44   24   50 1
  45   25   26 ar
  46   25   51 1
  47   26   27 ar
  48   26   52 1
  49   27   28 ar
  50   27   29 1
  51   28   53 1
  52   29   30 1
  53   29   31 2
  54   29   32 2
  55   30   54 1
  56   30   55 1
  57   30   56 1
  58   33   57 1
  59   33   58 1
  60   33   59 1
  61   34   37 ar
  62   34   60 1
  63   35   36 ar
  64   35   61 1
  65   36   37 ar
  66   36   62 1
  67   37   63 1

#	End of record

