#	Name: ASD05720180
#	Creating user name:	WinNT
#	Creation time:	15. 06. 2019 21:02

#	Modifying user name:	WinNT
#	Modification time:	15. 06. 2019 21:02

#	Program:	/corina/corina34_cracker 3.40 0067  02.08.2006

@<TRIPOS>MOLECULE
ASD05720180
 103  107    0    0    0
SMALL
NO_CHARGES


@<TRIPOS>ATOM
   1 C1             2.0508     1.1056     0.3884 C.2     
   2 N2             1.7165    -0.1072    -0.0715 N.am    
   3 C3             2.8101    -0.6252    -0.9072 C.3     
   4 C4             3.8669     0.4957    -0.8687 C.3     
   5 N5             3.2566     1.5262    -0.0155 N.am    
   6 O6             1.3234     1.7669     1.1036 O.2     
   7 C7            -0.7692    -2.6768     0.0696 C.2     
   8 N8             0.3695    -2.0241    -0.1821 N.2     
   9 C9             0.5266    -0.7700     0.1978 C.2     
  10 C10           -0.5130    -0.1031     0.8775 C.2     
  11 C11           -1.6666    -0.7608     1.1338 C.2     
  12 N12           -1.7996    -2.0595     0.7277 N.pl3   
  13 N13           -2.8480    -2.9790     0.8454 N.2     
  14 C14           -2.4943    -4.1122     0.2910 C.2     
  15 C15           -1.1967    -3.9801    -0.2194 C.2     
  16 C16           -0.4218    -5.0216    -0.9291 C.ar    
  17 C17           -0.3048    -6.3005    -0.3801 C.ar    
  18 C18            0.4156    -7.2694    -1.0403 C.ar    
  19 C19            1.0299    -6.9738    -2.2598 C.ar    
  20 C20            0.9127    -5.6944    -2.8087 C.ar    
  21 C21            0.1878    -4.7273    -2.1508 C.ar    
  22 C22            1.8038    -8.0139    -2.9685 C.2     
  23 N23            2.1384    -7.9925    -4.2403 N.2     
  24 C24            2.8349    -9.0973    -4.5322 C.2     
  25 C25            2.9443    -9.8399    -3.4122 C.2     
  26 N26            2.2989    -9.1586    -2.4142 N.pl3   
  27 C27            2.1634    -9.5801    -1.0177 C.3     
  28 O28            2.9334   -10.7642    -0.8007 O.3     
  29 C29            2.8698   -11.2618     0.5373 C.3     
  30 C30            3.7264   -12.5242     0.6533 C.3     
  31 Si31           3.6435   -13.1728     2.3978 Si      
  32 C32            1.8766   -13.5800     2.8256 C.3     
  33 C33            4.6867   -14.7099     2.5390 C.3     
  34 C34            4.2844   -11.8773     3.5732 C.3     
  35 C35            2.3268    -0.8587    -2.3399 C.3     
  36 C36            1.3033    -1.9959    -2.3540 C.3     
  37 C37            1.6765     0.4193    -2.8735 C.3     
  38 C38            3.8701     2.8091     0.3367 C.3     
  39 C39            4.6852     2.6490     1.6216 C.3     
  40 C40            5.3258     3.9889     1.9895 C.3     
  41 O41            6.0871     3.8393     3.1895 O.3     
  42 Si42           6.8216     5.2090     3.6842 Si      
  43 C43            7.9923     5.7988     2.3604 C.3     
  44 C44            5.5381     6.5201     4.0072 C.3     
  45 C45            7.7733     4.8725     5.2500 C.3     
  46 C46            8.8274     3.7958     4.9847 C.3     
  47 C47            8.4624     6.1574     5.7140 C.3     
  48 C48            6.8119     4.3882     6.3371 C.3     
  49 H49            3.2126    -1.5453    -0.4834 H       
  50 H50            4.7942     0.1322    -0.4258 H       
  51 H51            4.0474     0.8859    -1.8704 H       
  52 H52           -0.3893     0.9230     1.1908 H       
  53 H53           -2.4736    -0.2658     1.6537 H       
  54 H54           -3.1048    -5.0012     0.2334 H       
  55 H55           -0.7794    -6.5288     0.5627 H       
  56 H56            0.5063    -8.2583    -0.6155 H       
  57 H57            1.3878    -5.4656    -3.7512 H       
  58 H58            0.0935    -3.7396    -2.5773 H       
  59 H59            3.2401    -9.3512    -5.5005 H       
  60 H60            3.4492   -10.7900    -3.3185 H       
  61 H61            2.5237    -8.7872    -0.3623 H       
  62 H62            1.1150    -9.7834    -0.7997 H       
  63 H63            3.2447   -10.5038     1.2250 H       
  64 H64            1.8360   -11.5000     0.7876 H       
  65 H65            3.3515   -13.2822    -0.0344 H       
  66 H66            4.7602   -12.2860     0.4030 H       
  67 H67            1.5017   -14.3380     2.1379 H       
  68 H68            1.8281   -13.9595     3.8462 H       
  69 H69            1.2663   -12.6806     2.7430 H       
  70 H70            5.7205   -14.4717     2.2886 H       
  71 H71            4.6382   -15.0895     3.5596 H       
  72 H72            4.3117   -15.4679     1.8512 H       
  73 H73            3.6741   -10.9780     3.4905 H       
  74 H74            4.2359   -12.2568     4.5938 H       
  75 H75            5.3182   -11.6391     3.3228 H       
  76 H76            3.1749    -1.1254    -2.9705 H       
  77 H77            1.1945    -2.3743    -3.3704 H       
  78 H78            1.6444    -2.7998    -1.7016 H       
  79 H79            0.3419    -1.6239    -1.9999 H       
  80 H80            2.4056     1.2294    -2.8635 H       
  81 H81            1.3322     0.2529    -3.8942 H       
  82 H82            0.8284     0.6860    -2.2429 H       
  83 H83            4.5259     3.1324    -0.4717 H       
  84 H84            3.0900     3.5545     0.4918 H       
  85 H85            4.0293     2.3257     2.4300 H       
  86 H86            5.4652     1.9037     1.4665 H       
  87 H87            5.9816     4.3121     1.1811 H       
  88 H88            4.5457     4.7342     2.1446 H       
  89 H89            7.4354     5.9956     1.4443 H       
  90 H90            8.4832     6.7141     2.6910 H       
  91 H91            8.7432     5.0316     2.1714 H       
  92 H92            4.8531     6.1750     4.7817 H       
  93 H93            6.0289     7.4354     4.3378 H       
  94 H94            4.9812     6.7169     3.0911 H       
  95 H95            9.5124     4.1408     4.2102 H       
  96 H96            9.3843     3.5989     5.9008 H       
  97 H97            8.3366     2.8804     4.6541 H       
  98 H98            7.7114     6.9245     5.9030 H       
  99 H99            9.0192     5.9605     6.6302 H       
 100 H100           9.1473     6.5024     4.9395 H       
 101 H101           6.3210     3.4728     6.0065 H       
 102 H102           7.3687     4.1913     7.2532 H       
 103 H103           6.0609     5.1553     6.5261 H       
@<TRIPOS>BOND
   1    1    2 am
   2    1    5 am
   3    1    6 2
   4    2    3 1
   5    2    9 1
   6    3    4 1
   7    3   35 1
   8    3   49 1
   9    4    5 1
  10    4   50 1
  11    4   51 1
  12    5   38 1
  13    7    8 1
  14    7   12 1
  15    7   15 2
  16    8    9 2
  17    9   10 1
  18   10   11 2
  19   10   52 1
  20   11   12 1
  21   11   53 1
  22   12   13 1
  23   13   14 2
  24   14   15 1
  25   14   54 1
  26   15   16 1
  27   16   17 ar
  28   16   21 ar
  29   17   18 ar
  30   17   55 1
  31   18   19 ar
  32   18   56 1
  33   19   20 ar
  34   19   22 1
  35   20   21 ar
  36   20   57 1
  37   21   58 1
  38   22   23 2
  39   22   26 1
  40   23   24 1
  41   24   25 2
  42   24   59 1
  43   25   26 1
  44   25   60 1
  45   26   27 1
  46   27   28 1
  47   27   61 1
  48   27   62 1
  49   28   29 1
  50   29   30 1
  51   29   63 1
  52   29   64 1
  53   30   31 1
  54   30   65 1
  55   30   66 1
  56   31   32 1
  57   31   33 1
  58   31   34 1
  59   32   67 1
  60   32   68 1
  61   32   69 1
  62   33   70 1
  63   33   71 1
  64   33   72 1
  65   34   73 1
  66   34   74 1
  67   34   75 1
  68   35   36 1
  69   35   37 1
  70   35   76 1
  71   36   77 1
  72   36   78 1
  73   36   79 1
  74   37   80 1
  75   37   81 1
  76   37   82 1
  77   38   39 1
  78   38   83 1
  79   38   84 1
  80   39   40 1
  81   39   85 1
  82   39   86 1
  83   40   41 1
  84   40   87 1
  85   40   88 1
  86   41   42 1
  87   42   43 1
  88   42   44 1
  89   42   45 1
  90   43   89 1
  91   43   90 1
  92   43   91 1
  93   44   92 1
  94   44   93 1
  95   44   94 1
  96   45   46 1
  97   45   48 1
  98   45   47 1
  99   46   95 1
 100   46   96 1
 101   46   97 1
 102   47   98 1
 103   47   99 1
 104   47  100 1
 105   48  101 1
 106   48  102 1
 107   48  103 1

#	End of record

