#	Name: ASD09120004
#	Creating user name:	WinNT
#	Creation time:	15. 06. 2019 21:21

#	Modifying user name:	WinNT
#	Modification time:	15. 06. 2019 21:21

#	Program:	/corina/corina34_cracker 3.40 0067  02.08.2006

@<TRIPOS>MOLECULE
ASD09120004
  31   32    0    0    0
SMALL
NO_CHARGES


@<TRIPOS>ATOM
   1 C1            -0.0198     1.3752     0.0356 C.ar    
   2 C2            -0.0027    -0.0041     0.0408 C.ar    
   3 C3             1.2021    -0.6849     0.0431 C.ar    
   4 C4             2.3974     0.0110     0.0406 C.ar    
   5 C5             2.3955     1.3921     0.0354 C.ar    
   6 C6             1.1820     2.0853     0.0326 C.ar    
   7 N7            -1.2765    -0.7580     0.0445 N.pl3   
   8 O8            -2.3378    -0.1605     0.0429 O.2     
   9 O9            -1.2633    -1.9759     0.0491 O.2     
  10 C10            1.1712     3.5626     0.0265 C.2     
  11 O11            2.2196     4.1782     0.0239 O.2     
  12 N12           -0.0009     4.2279     0.0238 N.am    
  13 C13           -0.0140     5.6218     0.1365 C.ar    
  14 Cl14           3.8963     2.2646     0.0329 Cl      
  15 C15            0.9244     7.6430     1.0223 C.ar    
  16 C16            0.9402     6.2661     0.9130 C.ar    
  17 C17           -0.9780     6.3652    -0.5325 C.ar    
  18 C18           -0.9882     7.7414    -0.4191 C.ar    
  19 C19           -0.0400     8.3796     0.3596 C.ar    
  20 C20           -2.0113     5.6706    -1.3816 C.3     
  21 H21           -0.9612     1.9046     0.0293 H       
  22 H22            1.2090    -1.7649     0.0472 H       
  23 H23            3.3340    -0.5266     0.0431 H       
  24 H24           -0.8354     3.7399    -0.0563 H       
  25 H25            1.6660     8.1447     1.6263 H       
  26 H26            1.6935     5.6913     1.4312 H       
  27 H27           -1.7372     8.3199    -0.9393 H       
  28 H28           -0.0503     9.4560     0.4470 H       
  29 H29           -2.8818     5.4311    -0.7711 H       
  30 H30           -2.3103     6.3266    -2.1992 H       
  31 H31           -1.5890     4.7519    -1.7888 H       
@<TRIPOS>BOND
   1    1    2 ar
   2    1    6 ar
   3    1   21 1
   4    2    3 ar
   5    2    7 1
   6    3    4 ar
   7    3   22 1
   8    4    5 ar
   9    4   23 1
  10    5    6 ar
  11    5   14 1
  12    6   10 1
  13    7    8 2
  14    7    9 2
  15   10   11 2
  16   10   12 am
  17   12   13 1
  18   12   24 1
  19   13   17 ar
  20   13   16 ar
  21   15   16 ar
  22   15   19 ar
  23   15   25 1
  24   16   26 1
  25   17   18 ar
  26   17   20 1
  27   18   19 ar
  28   18   27 1
  29   19   28 1
  30   20   29 1
  31   20   30 1
  32   20   31 1

#	End of record

