#	Name: ASD01913103
#	Creating user name:	WinNT
#	Creation time:	15. 06. 2019 20:00

#	Modifying user name:	WinNT
#	Modification time:	15. 06. 2019 20:00

#	Program:	/corina/corina34_cracker 3.40 0067  02.08.2006

@<TRIPOS>MOLECULE
ASD01913103
  38   39    0    0    0
SMALL
NO_CHARGES


@<TRIPOS>ATOM
   1 C1             0.0069     1.7533    -0.2487 C.ar    
   2 C2            -0.0753     0.3677    -0.3422 C.ar    
   3 N3             1.0168    -0.3815    -0.3357 N.ar    
   4 C4             2.2192     0.1459    -0.2416 C.ar    
   5 C5             2.3836     1.5285    -0.1442 C.ar    
   6 C6             1.2470     2.3503    -0.1483 C.ar    
   7 N7             4.8182     1.3177    -0.0345 N.am    
   8 C8             3.7330     2.1169    -0.0379 C.2     
   9 O9             3.8656     3.3226     0.0465 O.2     
  10 O10           -1.2903    -0.2240    -0.4410 O.3     
  11 C11           -1.3119    -1.6498    -0.5341 C.3     
  12 C12            6.1015     1.8791    -0.0194 C.ar    
  13 C13           -2.7602    -2.1322    -0.6374 C.3     
  14 C14           -2.7834    -3.6588    -0.7371 C.3     
  15 C15           -4.2316    -4.1412    -0.8405 C.3     
  16 C16            7.1786     1.1688    -0.5378 C.ar    
  17 C17            8.4443     1.7259    -0.5214 C.ar    
  18 C18            8.6383     2.9892     0.0110 C.ar    
  19 C19            7.5663     3.6975     0.5275 C.ar    
  20 C20            6.2990     3.1479     0.5078 C.ar    
  21 F21            6.9889    -0.0642    -1.0565 F       
  22 F22            9.8755     3.5316     0.0270 F       
  23 H23           -0.8896     2.3554    -0.2591 H       
  24 H24            3.0868    -0.4973    -0.2395 H       
  25 H25            1.3400     3.4238    -0.0744 H       
  26 H26            4.7107     0.3537    -0.0424 H       
  27 H27           -0.7601    -1.9645    -1.4198 H       
  28 H28           -0.8485    -2.0790     0.3543 H       
  29 H29           -3.3121    -1.8175     0.2483 H       
  30 H30           -3.2236    -1.7031    -1.5258 H       
  31 H31           -2.2315    -3.9735    -1.6228 H       
  32 H32           -2.3200    -4.0880     0.1512 H       
  33 H33           -4.2481    -5.2288    -0.9115 H       
  34 H34           -4.7835    -3.8265     0.0452 H       
  35 H35           -4.6950    -3.7121    -1.7288 H       
  36 H36            9.2817     1.1752    -0.9238 H       
  37 H37            7.7205     4.6826     0.9426 H       
  38 H38            5.4639     3.7013     0.9110 H       
@<TRIPOS>BOND
   1    1    2 ar
   2    1    6 ar
   3    1   23 1
   4    2    3 ar
   5    2   10 1
   6    3    4 ar
   7    4    5 ar
   8    4   24 1
   9    5    6 ar
  10    5    8 1
  11    6   25 1
  12    7    8 am
  13    7   12 1
  14    7   26 1
  15    8    9 2
  16   10   11 1
  17   11   13 1
  18   11   27 1
  19   11   28 1
  20   12   16 ar
  21   12   20 ar
  22   13   14 1
  23   13   29 1
  24   13   30 1
  25   14   15 1
  26   14   31 1
  27   14   32 1
  28   15   33 1
  29   15   34 1
  30   15   35 1
  31   16   17 ar
  32   16   21 1
  33   17   18 ar
  34   17   36 1
  35   18   19 ar
  36   18   22 1
  37   19   20 ar
  38   19   37 1
  39   20   38 1

#	End of record

