#	Name: ASD00310204
#	Creating user name:	WinNT
#	Creation time:	15. 06. 2019 18:34

#	Modifying user name:	WinNT
#	Modification time:	15. 06. 2019 18:34

#	Program:	/corina/corina34_cracker 3.40 0067  02.08.2006

@<TRIPOS>MOLECULE
ASD00310204
  27   28    0    0    0
SMALL
NO_CHARGES


@<TRIPOS>ATOM
   1 O1            -0.0174     1.4293     0.0099 O.3     
   2 C2             0.0021    -0.0041     0.0020 C.3     
   3 C3             1.3462     0.0598    -0.7338 C.3     
   4 C4             1.4159     1.4068    -0.0039 C.3     
   5 C5             2.3764    -0.9706    -0.2672 C.3     
   6 C6             3.6193    -0.8875    -1.1555 C.3     
   7 O7             4.5815    -1.8499    -0.7197 O.3     
   8 C8             5.7522    -1.9074    -1.4079 C.ar    
   9 C9             6.7309    -2.8186    -1.0387 C.ar    
  10 C10            7.9200    -2.8753    -1.7395 C.ar    
  11 C11            8.1354    -2.0240    -2.8085 C.ar    
  12 C12            7.1606    -1.1146    -3.1782 C.ar    
  13 C13            5.9676    -1.0588    -2.4840 C.ar    
  14 Br14           9.7646    -2.1030    -3.7651 Br      
  15 H15            0.0742    -0.4414     0.9978 H       
  16 H16           -0.7972    -0.4444    -0.5941 H       
  17 H17            1.2660     0.1356    -1.8182 H       
  18 H18            1.8554     2.2026    -0.6052 H       
  19 H19            1.8572     1.3379     0.9904 H       
  20 H20            2.6541    -0.7643     0.7665 H       
  21 H21            1.9471    -1.9702    -0.3355 H       
  22 H22            3.3416    -1.0938    -2.1892 H       
  23 H23            4.0485     0.1120    -1.0872 H       
  24 H24            6.5635    -3.4829    -0.2038 H       
  25 H25            8.6823    -3.5845    -1.4524 H       
  26 H26            7.3307    -0.4508    -4.0131 H       
  27 H27            5.2051    -0.3518    -2.7758 H       
@<TRIPOS>BOND
   1    1    2 1
   2    1    4 1
   3    2    3 1
   4    2   15 1
   5    2   16 1
   6    3    4 1
   7    3    5 1
   8    3   17 1
   9    4   18 1
  10    4   19 1
  11    5    6 1
  12    5   20 1
  13    5   21 1
  14    6    7 1
  15    6   22 1
  16    6   23 1
  17    7    8 1
  18    8    9 ar
  19    8   13 ar
  20    9   10 ar
  21    9   24 1
  22   10   11 ar
  23   10   25 1
  24   11   12 ar
  25   11   14 1
  26   12   13 ar
  27   12   26 1
  28   13   27 1

#	End of record

