#	Name: ASD01410270
#	Creating user name:	WinNT
#	Creation time:	15. 06. 2019 19:17

#	Modifying user name:	WinNT
#	Modification time:	15. 06. 2019 19:17

#	Program:	/corina/corina34_cracker 3.40 0067  02.08.2006

@<TRIPOS>MOLECULE
ASD01410270
  45   48    0    0    0
SMALL
NO_CHARGES


@<TRIPOS>ATOM
   1 C1            -0.3931     2.1449    -0.6124 C.ar    
   2 C2            -0.5563     0.7675    -0.7603 C.ar    
   3 C3             0.5414    -0.0818    -0.7169 C.ar    
   4 C4             1.8166     0.4416    -0.5250 C.ar    
   5 C5             1.9737     1.8363    -0.3766 C.ar    
   6 C6             0.8460     2.6772    -0.4236 C.ar    
   7 O7             2.8813    -0.3887    -0.4830 O.3     
   8 C8             4.1307     0.0851    -0.2982 C.2     
   9 C9             4.3519     1.5235    -0.1391 C.2     
  10 C10            3.2570     2.3875    -0.1815 C.2     
  11 C11            5.2159    -0.7668    -0.2551 C.2     
  12 C12            6.5023    -0.2412    -0.0609 C.2     
  13 C13            6.7046     1.1441     0.0915 C.2     
  14 C14            5.6631     2.0106     0.0543 C.2     
  15 C15            2.2688     6.0796     0.0503 C.3     
  16 C16            2.0814     4.5697    -0.1110 C.3     
  17 C17            3.4415     3.8747    -0.0226 C.3     
  18 C18            4.0763     4.1674     1.3384 C.3     
  19 C19            4.2637     5.6772     1.4997 C.3     
  20 C20            2.9035     6.3723     1.4113 C.3     
  21 O21            7.4646    -0.9993    -0.0229 O.2     
  22 O22            5.0391    -2.1096    -0.3998 O.3     
  23 O23            0.3705    -1.4242    -0.8615 O.3     
  24 O24           -1.7983     0.2531    -0.9478 O.3     
  25 C25            3.1773     3.6530     2.4330 C.2     
  26 O26            2.1819     3.0277     2.1534 O.2     
  27 O27            3.4823     3.8894     3.7186 O.3     
  28 H28           -1.2551     2.7943    -0.6524 H       
  29 H29            0.9635     3.7448    -0.3104 H       
  30 H30            7.7054     1.5220     0.2400 H       
  31 H31            5.8354     3.0702     0.1725 H       
  32 H32            2.9190     6.4517    -0.7415 H       
  33 H33            1.2998     6.5748    -0.0127 H       
  34 H34            1.4311     4.1977     0.6807 H       
  35 H35            1.6292     4.3613    -1.0806 H       
  36 H36            4.0918     4.2468    -0.8144 H       
  37 H37            5.0453     3.6722     1.4013 H       
  38 H38            4.7159     5.8857     2.4693 H       
  39 H39            4.9140     6.0493     0.7079 H       
  40 H40            3.0370     7.4479     1.5262 H       
  41 H41            2.2533     6.0002     2.2030 H       
  42 H42            5.8584    -2.6213    -0.3551 H       
  43 H43            0.4189    -1.7305    -1.7775 H       
  44 H44           -2.0604     0.1863    -1.8762 H       
  45 H45            2.8755     3.5395     4.3853 H       
@<TRIPOS>BOND
   1    1    2 ar
   2    1    6 ar
   3    1   28 1
   4    2    3 ar
   5    2   24 1
   6    3    4 ar
   7    3   23 1
   8    4    5 ar
   9    4    7 1
  10    5    6 ar
  11    5   10 1
  12    6   29 1
  13    7    8 1
  14    8    9 1
  15    8   11 2
  16    9   10 2
  17    9   14 1
  18   10   17 1
  19   11   12 1
  20   11   22 1
  21   12   13 1
  22   12   21 2
  23   13   14 2
  24   13   30 1
  25   14   31 1
  26   15   16 1
  27   15   20 1
  28   15   32 1
  29   15   33 1
  30   16   17 1
  31   16   34 1
  32   16   35 1
  33   17   18 1
  34   17   36 1
  35   18   19 1
  36   18   25 1
  37   18   37 1
  38   19   20 1
  39   19   38 1
  40   19   39 1
  41   20   40 1
  42   20   41 1
  43   22   42 1
  44   23   43 1
  45   24   44 1
  46   25   26 2
  47   25   27 1
  48   27   45 1

#	End of record

