#	Name: ASD03091784
#	Creating user name:	WinNT
#	Creation time:	15. 06. 2019 20:31

#	Modifying user name:	WinNT
#	Modification time:	15. 06. 2019 20:31

#	Program:	/corina/corina34_cracker 3.40 0067  02.08.2006

@<TRIPOS>MOLECULE
ASD03091784
  35   37    0    0    0
SMALL
NO_CHARGES


@<TRIPOS>ATOM
   1 C1            -0.0111     1.4664    -0.0344 C.3     
   2 C2             0.0620    -0.0603    -0.1047 C.3     
   3 N3             0.7598    -0.5736     1.0810 N.3     
   4 C4             0.0356    -0.2316     2.3119 C.3     
   5 C5            -0.0388     1.2898     2.4562 C.3     
   6 C6             1.3809     1.8622     2.5289 C.3     
   7 N7             2.0588     1.6070     1.2506 N.am    
   8 C8             1.4092     2.0405     0.0061 C.3     
   9 C9             3.2546     0.9861     1.2201 C.2     
  10 O10            3.7519     0.6754     0.1537 O.2     
  11 C11            3.9566     0.6849     2.4720 C.2     
  12 C12            5.0961    -0.0575     2.5942 C.2     
  13 C13           -0.7561     1.8800     1.2384 C.3     
  14 O14            3.5928     1.0977     3.7038 O.3     
  15 C15            4.4681     0.6330     4.6052 C.2     
  16 C16            5.4142    -0.0867     3.9615 C.2     
  17 C17            4.4099     0.8759     6.0914 C.3     
  18 Br18           6.8888    -0.9668     4.7533 Br      
  19 H19           -0.5344     1.8478    -0.9112 H       
  20 H20           -0.9471    -0.4710    -0.1384 H       
  21 H21            0.6047    -0.3570    -1.0023 H       
  22 H22            0.9055    -1.5696     1.0120 H       
  23 H23           -0.9732    -0.6417     2.2654 H       
  24 H24            0.5593    -0.6526     3.1701 H       
  25 H25           -0.5822     1.5442     3.3662 H       
  26 H26            1.3332     2.9361     2.7094 H       
  27 H27            1.9294     1.3776     3.3366 H       
  28 H28            1.9763     1.6734    -0.8493 H       
  29 H29            1.3642     3.1292    -0.0226 H       
  30 H30            5.6459    -0.5309     1.7942 H       
  31 H31           -0.7697     2.9672     1.3153 H       
  32 H32           -1.7785     1.5039     1.2003 H       
  33 H33            3.5411     1.4912     6.3252 H       
  34 H34            4.3304    -0.0782     6.6126 H       
  35 H35            5.3161     1.3902     6.4113 H       
@<TRIPOS>BOND
   1    1    2 1
   2    1    8 1
   3    1   13 1
   4    1   19 1
   5    2    3 1
   6    2   20 1
   7    2   21 1
   8    3    4 1
   9    3   22 1
  10    4    5 1
  11    4   23 1
  12    4   24 1
  13    5    6 1
  14    5   13 1
  15    5   25 1
  16    6    7 1
  17    6   26 1
  18    6   27 1
  19    7    8 1
  20    7    9 am
  21    8   28 1
  22    8   29 1
  23    9   10 2
  24    9   11 1
  25   11   12 2
  26   11   14 1
  27   12   16 1
  28   12   30 1
  29   13   31 1
  30   13   32 1
  31   14   15 1
  32   15   16 2
  33   15   17 1
  34   16   18 1
  35   17   33 1
  36   17   34 1
  37   17   35 1

#	End of record

