#	Name: ASD01180162
#	Creating user name:	WinNT
#	Creation time:	15. 06. 2019 19:06

#	Modifying user name:	WinNT
#	Modification time:	15. 06. 2019 19:06

#	Program:	/corina/corina34_cracker 3.40 0067  02.08.2006

@<TRIPOS>MOLECULE
ASD01180162
  20   21    0    0    0
SMALL
NO_CHARGES


@<TRIPOS>ATOM
   1 N1            -0.0157     1.3065     0.0092 N.ar    
   2 C2             0.0021    -0.0041     0.0020 C.ar    
   3 C3             1.1977    -0.7213    -0.0132 C.ar    
   4 C4             2.3914    -0.0562    -0.0210 C.ar    
   5 C5             2.3674     1.3512    -0.0132 C.ar    
   6 C6             3.5534     2.1025    -0.0209 C.ar    
   7 C7             3.4884     3.4627    -0.0135 C.ar    
   8 C8             2.2600     4.1195     0.0017 C.ar    
   9 C9             1.0909     3.4225     0.0099 C.ar    
  10 C10            1.1166     2.0172     0.0022 C.ar    
  11 C11            4.7622     4.2680    -0.0213 C.3     
  12 Br12           1.1673    -2.6120    -0.0225 Br      
  13 H13           -0.9340    -0.5426     0.0084 H       
  14 H14            3.3271    -0.5954    -0.0325 H       
  15 H15            4.5117     1.6046    -0.0323 H       
  16 H16            2.2348     5.1992     0.0073 H       
  17 H17            0.1470     3.9473     0.0224 H       
  18 H18            5.0597     4.4673    -1.0508 H       
  19 H19            4.5985     5.2118     0.4988 H       
  20 H20            5.5496     3.7074     0.4825 H       
@<TRIPOS>BOND
   1    1    2 ar
   2    1   10 ar
   3    2    3 ar
   4    2   13 1
   5    3    4 ar
   6    3   12 1
   7    4    5 ar
   8    4   14 1
   9    5    6 ar
  10    5   10 ar
  11    6    7 ar
  12    6   15 1
  13    7    8 ar
  14    7   11 1
  15    8    9 ar
  16    8   16 1
  17    9   10 ar
  18    9   17 1
  19   11   18 1
  20   11   19 1
  21   11   20 1

#	End of record

