#	Name: ASD01190059
#	Creating user name:	WinNT
#	Creation time:	15. 06. 2019 19:07

#	Modifying user name:	WinNT
#	Modification time:	15. 06. 2019 19:07

#	Program:	/corina/corina34_cracker 3.40 0067  02.08.2006

@<TRIPOS>MOLECULE
ASD01190059
  52   56    0    0    0
SMALL
NO_CHARGES


@<TRIPOS>ATOM
   1 C1            -0.9584    -1.2615     0.1584 C.2     
   2 C2             0.2011    -0.4844     0.7264 C.3     
   3 O3            -0.8910    -1.7183    -0.9631 O.2     
   4 N4            -2.0681    -1.4537     0.8987 N.am    
   5 C5             1.3705     0.5080    -1.2714 C.ar    
   6 C6             2.5453     0.2187    -1.9923 C.ar    
   7 C7             2.8959     1.0173    -3.0830 C.ar    
   8 C8             2.0632     2.0707    -3.4116 C.ar    
   9 C9             0.9222     2.2973    -2.6576 C.ar    
  10 N10            0.6099     1.5325    -1.6331 N.ar    
  11 N11            1.2790    -0.4220    -0.2638 N.pl3   
  12 C12            3.1436    -0.9509    -1.3466 C.2     
  13 C13            2.3436    -1.2811    -0.3206 C.2     
  14 C14            4.4179    -1.6462    -1.7513 C.3     
  15 C15            4.6979    -2.8001    -0.7864 C.3     
  16 O16            4.2806    -2.1577    -3.0785 O.3     
  17 N17            8.7505     1.9359    -1.8302 N.pl3   
  18 N18            9.2402     1.6541    -3.1098 N.2     
  19 C19            8.5092     0.7366    -3.6768 C.2     
  20 C20            7.4555     0.3621    -2.7390 C.ar    
  21 C21            6.3939    -0.5486    -2.7817 C.ar    
  22 C22            5.5612    -0.6654    -1.7067 C.ar    
  23 C23            5.7573     0.1118    -0.5716 C.ar    
  24 C24            6.7864     1.0080    -0.5065 C.ar    
  25 C25            7.6524     1.1488    -1.5875 C.ar    
  26 C26            9.2966     2.8673    -0.9375 C.ar    
  27 C27           10.6707     3.0622    -0.8903 C.ar    
  28 C28           11.2070     3.9808    -0.0095 C.ar    
  29 C29           10.3755     4.7075     0.8262 C.ar    
  30 C30            9.0049     4.5146     0.7806 C.ar    
  31 C31            8.4641     3.6011    -0.1027 C.ar    
  32 F32           10.9021     5.6053     1.6873 F       
  33 F33            3.6365    -3.7106    -0.8278 F       
  34 F34            5.8809    -3.4455    -1.1622 F       
  35 F35            4.8323    -2.2993     0.5129 F       
  36 H36           -0.1247     0.5262     0.9729 H       
  37 H37            0.5636    -0.9792     1.6274 H       
  38 H38           -2.1204    -1.0918     1.7972 H       
  39 H39           -2.8144    -1.9539     0.5331 H       
  40 H40            3.7914     0.8179    -3.6529 H       
  41 H41            2.2997     2.7117    -4.2480 H       
  42 H42            0.2740     3.1212    -2.9172 H       
  43 H43            2.5127    -2.1047     0.3574 H       
  44 H44            4.1013    -1.4800    -3.7446 H       
  45 H45            8.6566     0.3264    -4.6650 H       
  46 H46            6.2344    -1.1557    -3.6606 H       
  47 H47            5.0879     0.0063     0.2693 H       
  48 H48            6.9277     1.6063     0.3815 H       
  49 H49           11.3196     2.4955    -1.5416 H       
  50 H50           12.2757     4.1324     0.0278 H       
  51 H51            8.3581     5.0821     1.4334 H       
  52 H52            7.3948     3.4545    -0.1413 H       
@<TRIPOS>BOND
   1    1    2 1
   2    1    3 2
   3    1    4 am
   4    2   11 1
   5    2   36 1
   6    2   37 1
   7    4   38 1
   8    4   39 1
   9    5    6 ar
  10    5   10 ar
  11    5   11 1
  12    6    7 ar
  13    6   12 1
  14    7    8 ar
  15    7   40 1
  16    8    9 ar
  17    8   41 1
  18    9   10 ar
  19    9   42 1
  20   11   13 1
  21   12   13 2
  22   12   14 1
  23   13   43 1
  24   14   15 1
  25   14   16 1
  26   14   22 1
  27   15   33 1
  28   15   34 1
  29   15   35 1
  30   16   44 1
  31   17   18 1
  32   17   25 1
  33   17   26 1
  34   18   19 2
  35   19   20 1
  36   19   45 1
  37   20   21 ar
  38   20   25 ar
  39   21   22 ar
  40   21   46 1
  41   22   23 ar
  42   23   24 ar
  43   23   47 1
  44   24   25 ar
  45   24   48 1
  46   26   27 ar
  47   26   31 ar
  48   27   28 ar
  49   27   49 1
  50   28   29 ar
  51   28   50 1
  52   29   30 ar
  53   29   32 1
  54   30   31 ar
  55   30   51 1
  56   31   52 1

#	End of record

