#	Name: ASD04882366
#	Creating user name:	WinNT
#	Creation time:	15. 06. 2019 20:54

#	Modifying user name:	WinNT
#	Modification time:	15. 06. 2019 20:54

#	Program:	/corina/corina34_cracker 3.40 0067  02.08.2006

@<TRIPOS>MOLECULE
ASD04882366
  96  102    0    0    0
SMALL
NO_CHARGES


@<TRIPOS>ATOM
   1 N1            -1.9322    -0.9865    -1.8846 N.am    
   2 C2            -1.4628    -2.3058    -1.8352 C.ar    
   3 C3            -2.3686    -3.3692    -1.7908 C.ar    
   4 C4            -1.9043    -4.6786    -1.7413 C.ar    
   5 C5            -0.5508    -4.9328    -1.7357 C.ar    
   6 C6             0.3605    -3.8740    -1.7799 C.ar    
   7 C7            -0.1037    -2.5568    -1.8360 C.ar    
   8 N8            -3.7380    -3.1168    -1.7958 N.3     
   9 C9            -4.3844    -3.7414    -2.9584 C.3     
  10 C10           -4.3614    -3.5689    -0.5442 C.3     
  11 C11           -5.8474    -3.2026    -0.5562 C.3     
  12 N12           -6.4938    -3.8272    -1.7188 N.3     
  13 C13           -5.8704    -3.3751    -2.9704 C.3     
  14 C14            1.8104    -4.1465    -1.7730 C.2     
  15 O15            2.6025    -3.2247    -1.8115 O.2     
  16 C16           -1.1979    -0.0322    -2.4900 C.2     
  17 C17           -1.7388     1.3309    -2.6383 C.2     
  18 O18           -0.0887    -0.2957    -2.9140 O.2     
  19 C19           -7.8674    -3.5740    -1.7238 C.ar    
  20 C20           -8.7698    -4.6289    -1.6798 C.ar    
  21 C21           -8.3342    -2.2662    -1.7671 C.ar    
  22 C22           -9.6927    -2.0194    -1.7720 C.ar    
  23 C23          -10.5886    -3.0724    -1.7334 C.ar    
  24 C24          -10.1275    -4.3750    -1.6849 C.ar    
  25 C25           -1.1150     2.3892    -3.2243 C.2     
  26 N26           -2.9582     1.7666    -2.2203 N.2     
  27 C27           -3.0739     3.0238    -2.5275 C.2     
  28 O28           -1.9564     3.4324    -3.1449 O.3     
  29 N29            2.2570    -5.4172    -1.7240 N.am    
  30 C30           -4.2760     3.8855    -2.2386 C.3     
  31 C31           -4.0671     5.1157    -1.3532 C.3     
  32 C32           -4.3060     5.2857    -2.8548 C.3     
  33 C33           -8.2682    -6.0490    -1.6270 C.3     
  34 C34            3.6968    -5.6878    -1.7172 C.3     
  35 C35            3.9315    -7.1985    -1.6582 C.3     
  36 C36            5.4351    -7.4812    -1.6510 C.3     
  37 C37            5.6663    -8.9692    -1.5929 C.2     
  38 C38            7.0715    -9.5133    -1.5751 C.3     
  39 O39            4.7255    -9.7256    -1.5605 O.2     
  40 N40            7.0280   -10.9765    -1.5173 N.pl3   
  41 C41            7.0040   -11.7219    -2.6987 C.ar    
  42 C42            7.0104   -11.6265    -0.2807 C.ar    
  43 C43            6.9110   -11.0782    -3.9263 C.ar    
  44 C44            7.0787   -13.1083    -2.6488 C.ar    
  45 C45            7.0547   -13.8420    -3.8185 C.ar    
  46 C46            6.9563   -13.1983    -5.0385 C.ar    
  47 C47            6.8875   -11.8181    -5.0921 C.ar    
  48 C48            8.1299   -11.5899     0.5411 C.ar    
  49 C49            5.8713   -12.3062     0.1325 C.ar    
  50 C50            5.8574   -12.9476     1.3554 C.ar    
  51 C51            6.9756   -12.9139     2.1684 C.ar    
  52 C52            8.1091   -12.2335     1.7628 C.ar    
  53 H53           -2.7875    -0.7608    -1.4866 H       
  54 H54           -2.6066    -5.4984    -1.7067 H       
  55 H55           -0.1932    -5.9512    -1.6968 H       
  56 H56            0.5981    -1.7366    -1.8706 H       
  57 H57           -3.9138    -3.3813    -3.8732 H       
  58 H58           -4.2773    -4.8243    -2.8958 H       
  59 H59           -4.2540    -4.6498    -0.4542 H       
  60 H60           -3.8740    -3.0830     0.3011 H       
  61 H61           -6.3181    -3.5627     0.3586 H       
  62 H62           -5.9546    -2.1197    -0.6188 H       
  63 H63           -5.9778    -2.2942    -3.0604 H       
  64 H64           -6.3579    -3.8609    -3.8157 H       
  65 H65           -7.6351    -1.4434    -1.7966 H       
  66 H66          -10.0562    -1.0029    -1.8056 H       
  67 H67          -11.6507    -2.8766    -1.7366 H       
  68 H68          -10.8297    -5.1950    -1.6549 H       
  69 H69           -0.1306     2.3896    -3.6685 H       
  70 H70            1.6252    -6.1525    -1.6933 H       
  71 H71           -5.2238     3.3550    -2.1476 H       
  72 H72           -4.8776     5.3946    -0.6798 H       
  73 H73           -3.0601     5.3017    -0.9795 H       
  74 H74           -3.4563     5.5835    -3.4691 H       
  75 H75           -5.2737     5.6765    -3.1693 H       
  76 H76           -8.1434    -6.3518    -0.5873 H       
  77 H77           -8.9884    -6.7071    -2.1131 H       
  78 H78           -7.3099    -6.1153    -2.1422 H       
  79 H79            4.1464    -5.2854    -2.6249 H       
  80 H80            4.1512    -5.2152    -0.8463 H       
  81 H81            3.4818    -7.6009    -0.7504 H       
  82 H82            3.4771    -7.6711    -2.5290 H       
  83 H83            5.8848    -7.0788    -2.5588 H       
  84 H84            5.8895    -7.0086    -0.7802 H       
  85 H85            7.5936    -9.2008    -2.4795 H       
  86 H86            7.5983    -9.1307    -0.7010 H       
  87 H87            6.8569   -10.0004    -3.9689 H       
  88 H88            7.1559   -13.6116    -1.6964 H       
  89 H89            7.1131   -14.9198    -3.7805 H       
  90 H90            6.9378   -13.7745    -5.9518 H       
  91 H91            6.8104   -11.3186    -6.0465 H       
  92 H92            9.0156   -11.0589     0.2248 H       
  93 H93            4.9976   -12.3326    -0.5018 H       
  94 H94            4.9722   -13.4759     1.6773 H       
  95 H95            6.9620   -13.4164     3.1243 H       
  96 H96            8.9808   -12.2094     2.4000 H       
@<TRIPOS>BOND
   1    1    2 1
   2    1   16 am
   3    1   53 1
   4    2    3 ar
   5    2    7 ar
   6    3    4 ar
   7    3    8 1
   8    4    5 ar
   9    4   54 1
  10    5    6 ar
  11    5   55 1
  12    6    7 ar
  13    6   14 1
  14    7   56 1
  15    8    9 1
  16    8   10 1
  17    9   13 1
  18    9   57 1
  19    9   58 1
  20   10   11 1
  21   10   59 1
  22   10   60 1
  23   11   12 1
  24   11   61 1
  25   11   62 1
  26   12   13 1
  27   12   19 1
  28   13   63 1
  29   13   64 1
  30   14   15 2
  31   14   29 am
  32   16   18 2
  33   16   17 1
  34   17   25 2
  35   17   26 1
  36   19   20 ar
  37   19   21 ar
  38   20   33 1
  39   20   24 ar
  40   21   22 ar
  41   21   65 1
  42   22   23 ar
  43   22   66 1
  44   23   24 ar
  45   23   67 1
  46   24   68 1
  47   25   28 1
  48   25   69 1
  49   26   27 2
  50   27   28 1
  51   27   30 1
  52   29   34 1
  53   29   70 1
  54   30   31 1
  55   30   32 1
  56   30   71 1
  57   31   32 1
  58   31   72 1
  59   31   73 1
  60   32   74 1
  61   32   75 1
  62   33   76 1
  63   33   77 1
  64   33   78 1
  65   34   35 1
  66   34   79 1
  67   34   80 1
  68   35   36 1
  69   35   81 1
  70   35   82 1
  71   36   37 1
  72   36   83 1
  73   36   84 1
  74   37   38 1
  75   37   39 2
  76   38   40 1
  77   38   85 1
  78   38   86 1
  79   40   41 1
  80   40   42 1
  81   41   43 ar
  82   41   44 ar
  83   42   48 ar
  84   42   49 ar
  85   43   47 ar
  86   43   87 1
  87   44   45 ar
  88   44   88 1
  89   45   46 ar
  90   45   89 1
  91   46   47 ar
  92   46   90 1
  93   47   91 1
  94   48   52 ar
  95   48   92 1
  96   49   50 ar
  97   49   93 1
  98   50   51 ar
  99   50   94 1
 100   51   52 ar
 101   51   95 1
 102   52   96 1

#	End of record

