#	Name: ASD02408121
#	Creating user name:	WinNT
#	Creation time:	15. 06. 2019 20:21

#	Modifying user name:	WinNT
#	Modification time:	15. 06. 2019 20:21

#	Program:	/corina/corina34_cracker 3.40 0067  02.08.2006

@<TRIPOS>MOLECULE
ASD02408121
  45   48    0    0    0
SMALL
NO_CHARGES


@<TRIPOS>ATOM
   1 C1             2.3638     5.9645    -4.2217 C.2     
   2 C2             1.1898     6.5931    -4.2981 C.2     
   3 C3             2.8894     5.3827    -2.9348 C.3     
   4 C4             2.4232     3.9558    -2.8012 C.2     
   5 N5             2.7871     3.2512    -1.7123 N.am    
   6 N6             1.6758     3.4456    -3.7419 N.2     
   7 C7             1.2321     2.1838    -3.6764 C.2     
   8 C8             1.5784     1.3902    -2.5702 C.2     
   9 C9             2.3871     1.9712    -1.5599 C.2     
  10 N10            0.4467     1.6713    -4.6796 N.pl3   
  11 C11           -0.6861     0.7846    -4.3731 C.3     
  12 O12            2.7170     1.3276    -0.5787 O.2     
  13 S13            0.9156     7.1317    -5.9499 S.3     
  14 C14            2.4563     6.4529    -6.4587 C.2     
  15 C15            3.0601     5.8820    -5.4152 C.2     
  16 C16           -1.9319     1.3228    -5.0847 C.3     
  17 N17           -1.6418     1.4881    -6.5153 N.3     
  18 C18           -0.5851     2.4851    -6.7330 C.3     
  19 C19            0.7122     1.9994    -6.0885 C.3     
  20 C20           -2.7922     1.8191    -7.2219 C.ar    
  21 N21           -3.9440     1.9418    -6.5801 N.ar    
  22 C22           -5.0587     2.2549    -7.2129 C.ar    
  23 C23           -2.7222     2.0240    -8.5959 C.ar    
  24 C24           -3.8747     2.3533    -9.2866 C.ar    
  25 C25           -5.0628     2.4667    -8.5772 C.ar    
  26 C26            1.1239     0.0365    -2.4631 C.1     
  27 N27            0.7634    -1.0374    -2.3780 N.1     
  28 H28            0.5112     6.7473    -3.4722 H       
  29 H29            3.9791     5.4097    -2.9421 H       
  30 H30            2.5172     5.9668    -2.0932 H       
  31 H31            3.3408     3.6667    -1.0328 H       
  32 H32           -0.4686    -0.2230    -4.7274 H       
  33 H33           -0.8575     0.7682    -3.2968 H       
  34 H34            2.8510     6.4887    -7.4634 H       
  35 H35            4.0229     5.3991    -5.4939 H       
  36 H36           -2.7549     0.6191    -4.9594 H       
  37 H37           -2.2081     2.2861    -4.6559 H       
  38 H38           -0.4313     2.6243    -7.8031 H       
  39 H39           -0.8800     3.4322    -6.2812 H       
  40 H40            1.4665     2.7841    -6.1475 H       
  41 H41            1.0664     1.1075    -6.6055 H       
  42 H42           -5.9798     2.3464    -6.6566 H       
  43 H43           -1.7808     1.9276    -9.1164 H       
  44 H44           -3.8507     2.5189   -10.3536 H       
  45 H45           -5.9801     2.7221    -9.0868 H       
@<TRIPOS>BOND
   1    1    2 2
   2    1    3 1
   3    1   15 1
   4    2   13 1
   5    2   28 1
   6    3    4 1
   7    3   29 1
   8    3   30 1
   9    4    5 1
  10    4    6 2
  11    5    9 am
  12    5   31 1
  13    6    7 1
  14    7    8 2
  15    7   10 1
  16    8    9 1
  17    8   26 1
  18    9   12 2
  19   10   11 1
  20   10   19 1
  21   11   16 1
  22   11   32 1
  23   11   33 1
  24   13   14 1
  25   14   15 2
  26   14   34 1
  27   15   35 1
  28   16   17 1
  29   16   36 1
  30   16   37 1
  31   17   18 1
  32   17   20 1
  33   18   19 1
  34   18   38 1
  35   18   39 1
  36   19   40 1
  37   19   41 1
  38   20   21 ar
  39   20   23 ar
  40   21   22 ar
  41   22   25 ar
  42   22   42 1
  43   23   24 ar
  44   23   43 1
  45   24   25 ar
  46   24   44 1
  47   25   45 1
  48   26   27 3

#	End of record

