#	Name: ASD03430522
#	Creating user name:	WinNT
#	Creation time:	15. 06. 2019 20:41

#	Modifying user name:	WinNT
#	Modification time:	15. 06. 2019 20:41

#	Program:	/corina/corina34_cracker 3.40 0067  02.08.2006

@<TRIPOS>MOLECULE
ASD03430522
  47   52    0    0    0
SMALL
NO_CHARGES


@<TRIPOS>ATOM
   1 O1            -0.0160     1.3312     0.0094 O.3     
   2 C2             0.0021    -0.0041     0.0020 C.2     
   3 C3             1.3048    -0.4169    -0.0126 C.2     
   4 C4             2.1092     0.8151    -0.0137 C.2     
   5 C5             1.2308     1.8284     0.0001 C.2     
   6 C6             1.7987    -1.8009    -0.0241 C.2     
   7 O7             3.0024    -2.0210    -0.0368 O.co2   
   8 O8             1.0062    -2.7334    -0.0208 O.co2   
   9 C9            -1.2078    -0.9026     0.0087 C.3     
  10 F10           -1.5699    -1.1872     1.3297 F       
  11 F11           -2.2693    -0.2602    -0.6377 F       
  12 F12           -0.9073    -2.0943    -0.6596 F       
  13 C13            1.5869     3.2927     0.0046 C.3     
  14 O14           -1.2185     1.1022    -6.2422 O.3     
  15 C15           -1.4504     1.2392    -7.6566 C.3     
  16 O16           -1.6415     2.6548    -7.8365 O.3     
  17 C17           -0.9447     3.2496    -6.8239 C.ar    
  18 C18           -0.6858     2.2946    -5.8433 C.ar    
  19 C19           -0.5023     4.5497    -6.6571 C.ar    
  20 C20            0.2006     4.9139    -5.5126 C.ar    
  21 C21            0.4459     3.9531    -4.5364 C.ar    
  22 C22            0.0115     2.6546    -4.7024 C.ar    
  23 O23            0.7333     6.1200    -5.1636 O.3     
  24 C24            1.1888     4.6486    -3.4271 C.3     
  25 C25            0.9840     6.1361    -3.7450 C.3     
  26 N26            1.6886     3.7748    -1.3751 N.am    
  27 C27            0.6542     4.2871    -2.0713 C.2     
  28 C28            2.6420     4.2785    -3.3935 C.ar    
  29 C29            3.6663     4.3614    -4.3100 C.ar    
  30 C30            4.9355     3.9267    -3.9719 C.ar    
  31 C31            5.1725     3.4082    -2.7117 C.ar    
  32 C32            4.1495     3.3222    -1.7906 C.ar    
  33 C33            2.8689     3.7578    -2.1221 C.ar    
  34 O34           -0.4848     4.4286    -1.6793 O.2     
  35 H35            3.1867     0.8884    -0.0229 H       
  36 H36            0.8132     3.8533     0.5292 H       
  37 H37            2.5426     3.4327     0.5097 H       
  38 H38           -0.5845     0.8947    -8.2218 H       
  39 H39           -2.3450     0.6913    -7.9528 H       
  40 H40           -0.7038     5.2869    -7.4202 H       
  41 H41            0.2154     1.9168    -3.9406 H       
  42 H42            1.8835     6.7080    -3.5173 H       
  43 H43            0.1246     6.5327    -3.2045 H       
  44 H44            3.4789     4.7664    -5.2934 H       
  45 H45            5.7394     3.9924    -4.6901 H       
  46 H46            6.1633     3.0687    -2.4479 H       
  47 H47            4.3423     2.9157    -0.8088 H       
@<TRIPOS>BOND
   1    1    2 1
   2    1    5 1
   3    2    3 2
   4    2    9 1
   5    3    4 1
   6    3    6 1
   7    4    5 2
   8    4   35 1
   9    5   13 1
  10    6    7 ar
  11    6    8 ar
  12    9   10 1
  13    9   11 1
  14    9   12 1
  15   13   26 1
  16   13   36 1
  17   13   37 1
  18   14   15 1
  19   14   18 1
  20   15   16 1
  21   15   38 1
  22   15   39 1
  23   16   17 1
  24   17   18 ar
  25   17   19 ar
  26   18   22 ar
  27   19   20 ar
  28   19   40 1
  29   20   21 ar
  30   20   23 1
  31   21   22 ar
  32   21   24 1
  33   22   41 1
  34   23   25 1
  35   24   25 1
  36   24   27 1
  37   24   28 1
  38   25   42 1
  39   25   43 1
  40   26   27 am
  41   26   33 1
  42   27   34 2
  43   28   29 ar
  44   28   33 ar
  45   29   30 ar
  46   29   44 1
  47   30   31 ar
  48   30   45 1
  49   31   32 ar
  50   31   46 1
  51   32   33 ar
  52   32   47 1

#	End of record

