#	Name: ASD01881932
#	Creating user name:	WinNT
#	Creation time:	15. 06. 2019 19:43

#	Modifying user name:	WinNT
#	Modification time:	15. 06. 2019 19:43

#	Program:	/corina/corina34_cracker 3.40 0067  02.08.2006

@<TRIPOS>MOLECULE
ASD01881932
  41   44    0    0    0
SMALL
NO_CHARGES


@<TRIPOS>ATOM
   1 C1            -0.0184     1.5028     0.0103 C.2     
   2 C2             0.0021    -0.0041     0.0020 C.3     
   3 O3             1.0236     2.1234     0.0037 O.2     
   4 N4            -1.1946     2.1607     0.0195 N.am    
   5 S5             0.1746     4.5488     0.0253 S.3     
   6 C6            -1.2134     3.5506     0.0271 C.2     
   7 N7            -2.2859     4.2785     0.0358 N.2     
   8 C8            -2.1194     5.5878     0.0415 C.2     
   9 C9            -0.8455     5.9851     0.0373 C.2     
  10 C10           -3.2744     6.5558     0.0513 C.3     
  11 O11           -2.7741     7.8943     0.0551 O.3     
  12 N12           -6.2663    12.1142     0.0902 N.pl3   
  13 N13           -5.2908    13.1221     0.0908 N.2     
  14 N14           -4.1214    12.5861     0.0834 N.2     
  15 C15           -4.2222    11.2419     0.0775 C.ar    
  16 C16           -5.5895    10.9159     0.0817 C.ar    
  17 C17           -3.2727    10.2108     0.0679 C.ar    
  18 C18           -3.6929     8.8968     0.0640 C.ar    
  19 C19           -5.0514     8.5895     0.0685 C.ar    
  20 C20           -5.9884     9.5840     0.0764 C.ar    
  21 C21           -7.7194    12.3004     0.1026 C.3     
  22 C22           -8.2362    12.3760    -1.3355 C.3     
  23 C23           -9.7507    12.4522    -1.5389 C.3     
  24 C24           -8.8825    13.6876    -1.7859 C.3     
  25 Br25          -1.4262    10.6186     0.0615 Br      
  26 H26            1.0345    -0.3534    -0.0097 H       
  27 H27           -0.4983    -0.3791     0.8948 H       
  28 H28           -0.5153    -0.3696    -0.8850 H       
  29 H29           -2.0280     1.6644     0.0207 H       
  30 H30           -0.5001     7.0084     0.0407 H       
  31 H31           -3.8871     6.3994    -0.8365 H       
  32 H32           -3.8787     6.3913     0.9434 H       
  33 H33           -5.3668     7.5566     0.0649 H       
  34 H34           -7.0394     9.3354     0.0797 H       
  35 H35           -8.1891    11.4600     0.6137 H       
  36 H36           -7.9627    13.2255     0.6252 H       
  37 H37           -7.6566    11.8208    -2.0731 H       
  38 H38          -10.1675    11.9475    -2.4105 H       
  39 H39          -10.3789    12.4485    -0.6482 H       
  40 H40           -8.9396    14.4966    -1.0577 H       
  41 H41           -8.7281    13.9957    -2.8200 H       
@<TRIPOS>BOND
   1    1    2 1
   2    1    3 2
   3    1    4 am
   4    2   26 1
   5    2   27 1
   6    2   28 1
   7    4    6 1
   8    4   29 1
   9    5    6 1
  10    5    9 1
  11    6    7 2
  12    7    8 1
  13    8    9 2
  14    8   10 1
  15    9   30 1
  16   10   11 1
  17   10   31 1
  18   10   32 1
  19   11   18 1
  20   12   13 1
  21   12   16 1
  22   12   21 1
  23   13   14 2
  24   14   15 1
  25   15   16 ar
  26   15   17 ar
  27   16   20 ar
  28   17   18 ar
  29   17   25 1
  30   18   19 ar
  31   19   20 ar
  32   19   33 1
  33   20   34 1
  34   21   22 1
  35   21   35 1
  36   21   36 1
  37   22   23 1
  38   22   24 1
  39   22   37 1
  40   23   24 1
  41   23   38 1
  42   23   39 1
  43   24   40 1
  44   24   41 1

#	End of record

