#	Name: ASD00431137
#	Creating user name:	WinNT
#	Creation time:	15. 06. 2019 18:35

#	Modifying user name:	WinNT
#	Modification time:	15. 06. 2019 18:35

#	Program:	/corina/corina34_cracker 3.40 0067  02.08.2006

@<TRIPOS>MOLECULE
ASD00431137
  49   51    0    0    0
SMALL
NO_CHARGES


@<TRIPOS>ATOM
   1 C1             0.1240     1.4493    -0.1448 C.2     
   2 N2             0.0543     0.1038    -0.1794 N.am    
   3 O3             1.2008     1.9990    -0.0232 O.2     
   4 O4            -0.9990     2.1845    -0.2505 O.3     
   5 C5             1.2769    -0.6960    -0.0705 C.3     
   6 C6             1.6241    -0.8984     1.4058 C.3     
   7 O7            -0.0494    -2.7875    -0.6600 O.3     
   8 N8             0.0658    -3.8162    -1.2847 N.2     
   9 C9             1.2483    -3.9033    -1.8484 C.2     
  10 C10            1.9454    -2.7136    -1.4876 C.2     
  11 C11            1.0600    -2.0366    -0.7238 C.2     
  12 S12            3.3481    -5.1016    -3.4303 S.3     
  13 C13            2.9565    -6.6215    -4.1076 C.2     
  14 N14            1.7504    -6.9654    -3.7750 N.2     
  15 C15            1.0767    -6.1293    -3.0160 C.2     
  16 C16            1.7539    -5.0096    -2.6860 C.2     
  17 O17            3.7864    -7.3607    -4.8814 O.3     
  18 C18            3.3928    -8.6176    -5.2200 C.ar    
  19 C19            4.1258    -9.3493    -6.1450 C.ar    
  20 C20            3.7255   -10.6265    -6.4883 C.ar    
  21 C21            2.5917   -11.1772    -5.9088 C.ar    
  22 C22            1.8597   -10.4459    -4.9854 C.ar    
  23 C23            2.2626    -9.1709    -4.6375 C.ar    
  24 O24            2.1978   -12.4340    -6.2465 O.3     
  25 C25            2.9157   -13.0774    -7.3015 C.3     
  26 C26            4.0457   -13.9214    -6.7087 C.3     
  27 C27            1.9641   -13.9801    -8.0892 C.3     
  28 Cl28           5.5442    -8.6594    -6.8702 Cl      
  29 C29           -0.8486     3.6280    -0.2052 C.3     
  30 H30           -0.8053    -0.3350    -0.2765 H       
  31 H31            2.0960    -0.1773    -0.5686 H       
  32 H32            0.8050    -1.4170     1.9039 H       
  33 H33            2.5337    -1.4935     1.4868 H       
  34 H34            1.7809     0.0713     1.8783 H       
  35 H35            2.9485    -2.4213    -1.7609 H       
  36 H36            0.0669    -6.3222    -2.6850 H       
  37 H37            4.2951   -11.1959    -7.2079 H       
  38 H38            0.9767   -10.8747    -4.5351 H       
  39 H39            1.6949    -8.6036    -3.9148 H       
  40 H40            3.3360   -12.3236    -7.9673 H       
  41 H41            3.6254   -14.6751    -6.0428 H       
  42 H42            4.5933   -14.4121    -7.5133 H       
  43 H43            4.7236   -13.2782    -6.1475 H       
  44 H44            1.1591   -13.3788    -8.5116 H       
  45 H45            2.5117   -14.4709    -8.8939 H       
  46 H46            1.5438   -14.7339    -7.4234 H       
  47 H47           -0.3978     3.9167     0.7442 H       
  48 H48           -0.2078     3.9524    -1.0252 H       
  49 H49           -1.8272     4.0984    -0.3008 H       
@<TRIPOS>BOND
   1    1    2 am
   2    1    3 2
   3    1    4 1
   4    2    5 1
   5    2   30 1
   6    4   29 1
   7    5    6 1
   8    5   11 1
   9    5   31 1
  10    6   32 1
  11    6   33 1
  12    6   34 1
  13    7    8 1
  14    7   11 1
  15    8    9 2
  16    9   10 1
  17    9   16 1
  18   10   11 2
  19   10   35 1
  20   12   13 1
  21   12   16 1
  22   13   14 2
  23   13   17 1
  24   14   15 1
  25   15   16 2
  26   15   36 1
  27   17   18 1
  28   18   19 ar
  29   18   23 ar
  30   19   20 ar
  31   19   28 1
  32   20   21 ar
  33   20   37 1
  34   21   22 ar
  35   21   24 1
  36   22   23 ar
  37   22   38 1
  38   23   39 1
  39   24   25 1
  40   25   26 1
  41   25   27 1
  42   25   40 1
  43   26   41 1
  44   26   42 1
  45   26   43 1
  46   27   44 1
  47   27   45 1
  48   27   46 1
  49   29   47 1
  50   29   48 1
  51   29   49 1

#	End of record

