#	Name: ASD00170476
#	Creating user name:	WinNT
#	Creation time:	15. 06. 2019 18:32

#	Modifying user name:	WinNT
#	Modification time:	15. 06. 2019 18:32

#	Program:	/corina/corina34_cracker 3.40 0067  02.08.2006

@<TRIPOS>MOLECULE
ASD00170476
  40   43    0    0    0
SMALL
NO_CHARGES


@<TRIPOS>ATOM
   1 C1            -0.0277     1.3894    -0.0165 C.ar    
   2 C2            -0.0015    -0.0103    -0.0082 C.ar    
   3 C3            -1.1923    -0.7253     0.0054 C.ar    
   4 C4            -2.3964    -0.0562     0.0109 C.ar    
   5 C5            -2.4346     1.3349     0.0028 C.ar    
   6 C6            -1.2457     2.0609    -0.0056 C.ar    
   7 C7            -3.8278    -0.5297     0.0258 C.3     
   8 C8            -4.6727     0.7256     0.0253 C.2     
   9 C9            -3.8582     1.7972     0.0120 C.2     
  10 S10           -6.3492     1.2711     0.0367 S.3     
  11 C11           -5.8063     2.9442     0.0222 C.2     
  12 N12           -4.5165     2.9774     0.0108 N.2     
  13 N13           -6.6352     4.0544     0.0219 N.pl3   
  14 N14            1.2210    -0.6872    -0.0142 N.am    
  15 C15            1.3482    -1.8545     0.6473 C.2     
  16 O16            0.4349    -2.2669     1.3306 O.2     
  17 C17            2.6251    -2.6473     0.5381 C.3     
  18 C18            1.2422     2.1556    -0.0306 C.ar    
  19 C19            2.2481     1.8590     0.8871 C.ar    
  20 C20            3.4281     2.5750     0.8690 C.ar    
  21 C21            3.6130     3.5850    -0.0575 C.ar    
  22 C22            2.6178     3.8838    -0.9709 C.ar    
  23 C23            1.4362     3.1711    -0.9655 C.ar    
  24 N24            2.8231     4.9662    -1.9594 N.pl3   
  25 O25            3.8674     5.5929    -1.9682 O.2     
  26 O26            1.9477     5.2302    -2.7641 O.2     
  27 H27           -1.1742    -1.8051     0.0114 H       
  28 H28           -1.2697     3.1406    -0.0119 H       
  29 H29           -4.0370    -1.1248    -0.8632 H       
  30 H30           -4.0219    -1.1140     0.9252 H       
  31 H31           -7.5984     3.9404     0.0302 H       
  32 H32           -6.2523     4.9456     0.0135 H       
  33 H33            1.9781    -0.3170    -0.4945 H       
  34 H34            3.3139    -2.3367     1.3238 H       
  35 H35            2.4041    -3.7090     0.6475 H       
  36 H36            3.0810    -2.4695    -0.4359 H       
  37 H37            2.1046     1.0707     1.6112 H       
  38 H38            4.2082     2.3462     1.5800 H       
  39 H39            4.5377     4.1429    -0.0677 H       
  40 H40            0.6601     3.4049    -1.6792 H       
@<TRIPOS>BOND
   1    1    2 ar
   2    1   18 1
   3    1    6 ar
   4    2    3 ar
   5    2   14 1
   6    3    4 ar
   7    3   27 1
   8    4    5 ar
   9    4    7 1
  10    5    6 ar
  11    5    9 1
  12    6   28 1
  13    7    8 1
  14    7   29 1
  15    7   30 1
  16    8    9 2
  17    8   10 1
  18    9   12 1
  19   10   11 1
  20   11   12 2
  21   11   13 1
  22   13   31 1
  23   13   32 1
  24   14   15 am
  25   14   33 1
  26   15   16 2
  27   15   17 1
  28   17   34 1
  29   17   35 1
  30   17   36 1
  31   18   19 ar
  32   18   23 ar
  33   19   20 ar
  34   19   37 1
  35   20   21 ar
  36   20   38 1
  37   21   22 ar
  38   21   39 1
  39   22   23 ar
  40   22   24 1
  41   23   40 1
  42   24   25 2
  43   24   26 2

#	End of record

