#	Name: ASD01813001
#	Creating user name:	WinNT
#	Creation time:	15. 06. 2019 19:29

#	Modifying user name:	WinNT
#	Modification time:	15. 06. 2019 19:29

#	Program:	/corina/corina34_cracker 3.40 0067  02.08.2006

@<TRIPOS>MOLECULE
ASD01813001
  57   61    0    0    0
SMALL
NO_CHARGES


@<TRIPOS>ATOM
   1 N1             0.0053     1.3210    -0.2539 N.ar    
   2 C2             0.0359     0.0095    -0.3891 C.ar    
   3 C3             1.2381    -0.6807    -0.4030 C.ar    
   4 C4             2.4140     0.0228    -0.2729 C.ar    
   5 C5             2.3627     1.4143    -0.1304 C.ar    
   6 C6             1.1086     2.0407    -0.1257 C.ar    
   7 C7             3.8705    -0.3561    -0.2429 C.3     
   8 N8             4.6158     0.8979    -0.0767 N.am    
   9 C9             3.7395     1.9162    -0.0124 C.2     
  10 C10            6.0734     1.0199     0.0060 C.3     
  11 C11            6.6410     1.2085    -1.3772 C.ar    
  12 O12            1.0258     3.3856     0.0104 O.3     
  13 O13            4.0429     3.0858     0.1235 O.2     
  14 C14            6.7943     2.4835    -1.8912 C.ar    
  15 C15            7.3136     2.6621    -3.1574 C.ar    
  16 C16            7.6841     1.5549    -3.9182 C.ar    
  17 C17            7.5279     0.2728    -3.3952 C.ar    
  18 C18            7.0120     0.1062    -2.1260 C.ar    
  19 C19           -0.2018     3.9616    -0.0793 C.ar    
  20 C20           -1.0070     4.0608     1.0465 C.ar    
  21 C21           -0.6498     4.4565    -1.2954 C.ar    
  22 C22           -1.8981     5.0421    -1.3839 C.ar    
  23 C23           -2.7005     5.1349    -0.2619 C.ar    
  24 C24           -2.2541     4.6470     0.9527 C.ar    
  25 C25           -0.5214     3.5288     2.3703 C.3     
  26 C26            8.2425     1.7406    -5.2803 C.ar    
  27 C27            8.4078     3.0161    -5.8254 C.ar    
  28 N28            8.9067     3.1476    -7.0385 N.ar    
  29 N29            9.2522     2.1382    -7.7508 N.ar    
  30 C30            9.1343     0.8948    -7.3231 C.ar    
  31 C31            8.6271     0.6435    -6.0608 C.ar    
  32 C32            9.5574    -0.2499    -8.2072 C.3     
  33 C33           -4.0614     5.7745    -0.3612 C.3     
  34 H34           -0.8909    -0.5358    -0.4903 H       
  35 H35            1.2518    -1.7549    -0.5139 H       
  36 H36            4.0671    -1.0231     0.5965 H       
  37 H37            4.1519    -0.8381    -1.1792 H       
  38 H38            6.3316     1.8792     0.6249 H       
  39 H39            6.4892     0.1149     0.4490 H       
  40 H40            6.5068     3.3408    -1.3007 H       
  41 H41            7.4322     3.6580    -3.5580 H       
  42 H42            7.8134    -0.5887    -3.9806 H       
  43 H43            6.8940    -0.8869    -1.7182 H       
  44 H44           -0.0233     4.3846    -2.1721 H       
  45 H45           -2.2472     5.4279    -2.3302 H       
  46 H46           -2.8813     4.7241     1.8285 H       
  47 H47            0.0101     4.3159     2.9052 H       
  48 H48           -1.3738     3.1980     2.9636 H       
  49 H49            0.1507     2.6879     2.1994 H       
  50 H50            8.1279     3.8901    -5.2560 H       
  51 H51            8.5274    -0.3663    -5.6909 H       
  52 H52           10.6073    -0.4802    -8.0260 H       
  53 H53            8.9493    -1.1263    -7.9829 H       
  54 H54            9.4216     0.0287    -9.2522 H       
  55 H55           -4.8033     5.0142    -0.6053 H       
  56 H56           -4.3158     6.2374     0.5923 H       
  57 H57           -4.0495     6.5346    -1.1424 H       
@<TRIPOS>BOND
   1    1    2 ar
   2    1    6 ar
   3    2    3 ar
   4    2   34 1
   5    3    4 ar
   6    3   35 1
   7    4    7 1
   8    4    5 ar
   9    5    6 ar
  10    5    9 1
  11    6   12 1
  12    7    8 1
  13    7   36 1
  14    7   37 1
  15    8    9 am
  16    8   10 1
  17    9   13 2
  18   10   11 1
  19   10   38 1
  20   10   39 1
  21   11   14 ar
  22   11   18 ar
  23   12   19 1
  24   14   15 ar
  25   14   40 1
  26   15   16 ar
  27   15   41 1
  28   16   17 ar
  29   16   26 1
  30   17   18 ar
  31   17   42 1
  32   18   43 1
  33   19   21 ar
  34   19   20 ar
  35   20   24 ar
  36   20   25 1
  37   21   22 ar
  38   21   44 1
  39   22   23 ar
  40   22   45 1
  41   23   24 ar
  42   23   33 1
  43   24   46 1
  44   25   47 1
  45   25   48 1
  46   25   49 1
  47   26   27 ar
  48   26   31 ar
  49   27   28 ar
  50   27   50 1
  51   28   29 ar
  52   29   30 ar
  53   30   31 ar
  54   30   32 1
  55   31   51 1
  56   32   52 1
  57   32   53 1
  58   32   54 1
  59   33   55 1
  60   33   56 1
  61   33   57 1

#	End of record

