#	Name: ASD03731553
#	Creating user name:	WinNT
#	Creation time:	15. 06. 2019 20:45

#	Modifying user name:	WinNT
#	Modification time:	15. 06. 2019 20:45

#	Program:	/corina/corina34_cracker 3.40 0067  02.08.2006

@<TRIPOS>MOLECULE
ASD03731553
  36   37    0    0    0
SMALL
NO_CHARGES


@<TRIPOS>ATOM
   1 C1            -0.7925     1.3884     0.4251 C.2     
   2 C2            -0.5690    -0.0643     0.3075 C.ar    
   3 C3             0.5812    -0.5488    -0.3274 C.ar    
   4 C4             0.7852    -1.9096    -0.4340 C.ar    
   5 C5            -0.1485    -2.7960     0.0874 C.ar    
   6 C6            -1.2917    -2.3175     0.7185 C.ar    
   7 C7            -1.5016    -0.9622     0.8345 C.ar    
   8 O8             0.0226     2.1678    -0.0297 O.2     
   9 N9            -1.9030     1.8524     1.0317 N.am    
  10 S10           -2.1542     3.4839     1.1638 S.o2    
  11 O11           -3.3844     3.5934     1.8665 O.2     
  12 O12           -0.9452     3.9806     1.7214 O.2     
  13 C13           -2.3462     4.0524    -0.5481 C.3     
  14 F14            1.4888     0.3137    -0.8348 F       
  15 O15            0.0553    -4.1333    -0.0197 O.3     
  16 C16           -0.4550    -4.7715    -1.1056 C.ar    
  17 C17           -1.0653    -4.0428    -2.1166 C.ar    
  18 C18           -1.5828    -4.6932    -3.2196 C.ar    
  19 C19           -1.4935    -6.0709    -3.3168 C.ar    
  20 C20           -0.8854    -6.7992    -2.3099 C.ar    
  21 C21           -0.3613    -6.1519    -1.2077 C.ar    
  22 C22           -2.2457    -3.9023    -4.3178 C.3     
  23 F23           -2.2150    -2.5412    -3.9961 F       
  24 F24           -1.5635    -4.1126    -5.5210 F       
  25 F25           -3.5741    -4.3189    -4.4560 F       
  26 Cl26          -2.1458    -6.8861    -4.7037 Cl      
  27 H27            1.6714    -2.2856    -0.9236 H       
  28 H28           -2.0147    -3.0111     1.1219 H       
  29 H29           -2.3881    -0.5928     1.3286 H       
  30 H30           -2.5552     1.2307     1.3909 H       
  31 H31           -3.1956     3.5457    -1.0061 H       
  32 H32           -2.5175     5.1288    -0.5565 H       
  33 H33           -1.4407     3.8242    -1.1105 H       
  34 H34           -1.1359    -2.9678    -2.0408 H       
  35 H35           -0.8166    -7.8742    -2.3876 H       
  36 H36            0.1169    -6.7204    -0.4238 H       
@<TRIPOS>BOND
   1    1    2 1
   2    1    8 2
   3    1    9 am
   4    2    3 ar
   5    2    7 ar
   6    3    4 ar
   7    3   14 1
   8    4    5 ar
   9    4   27 1
  10    5    6 ar
  11    5   15 1
  12    6    7 ar
  13    6   28 1
  14    7   29 1
  15    9   10 am
  16    9   30 1
  17   10   11 2
  18   10   12 2
  19   10   13 1
  20   13   31 1
  21   13   32 1
  22   13   33 1
  23   15   16 1
  24   16   17 ar
  25   16   21 ar
  26   17   18 ar
  27   17   34 1
  28   18   19 ar
  29   18   22 1
  30   19   20 ar
  31   19   26 1
  32   20   21 ar
  33   20   35 1
  34   21   36 1
  35   22   23 1
  36   22   24 1
  37   22   25 1

#	End of record

