#	Name: ASD01148091
#	Creating user name:	WinNT
#	Creation time:	15. 06. 2019 19:02

#	Modifying user name:	WinNT
#	Modification time:	15. 06. 2019 19:02

#	Program:	/corina/corina34_cracker 3.40 0067  02.08.2006

@<TRIPOS>MOLECULE
ASD01148091
  31   32    0    0    0
SMALL
NO_CHARGES


@<TRIPOS>ATOM
   1 C1             0.2948     1.3526    -0.8759 C.2     
   2 C2             0.2606    -0.0810    -0.5352 C.ar    
   3 C3             1.3764    -0.8870    -0.7826 C.ar    
   4 C4             1.3444    -2.2153    -0.4663 C.ar    
   5 C5             0.2023    -2.7724     0.1027 C.ar    
   6 C6            -0.9133    -1.9777     0.3527 C.ar    
   7 C7            -0.8857    -0.6371     0.0416 C.ar    
   8 O8             1.2933     1.8355    -1.3724 O.2     
   9 O9            -0.7832     2.1267    -0.6419 O.3     
  10 N10            2.5273    -3.0652    -0.7297 N.pl3   
  11 O11            3.5624    -2.5618    -1.1281 O.2     
  12 O12            2.4657    -4.2680    -0.5479 O.2     
  13 N13            0.1756    -4.1262     0.4218 N.pl3   
  14 C14            1.4206    -6.3438     3.0725 C.ar    
  15 C15            0.8029    -5.9359     1.9071 C.ar    
  16 C16            0.7876    -4.5790     1.5880 C.ar    
  17 C17            1.4018    -3.6862     2.4669 C.ar    
  18 C18            1.9971    -4.1742     3.6106 C.ar    
  19 N19            1.9909    -5.4670     3.8785 N.ar    
  20 Br20           1.4434    -8.1799     3.5240 Br      
  21 C21           -0.6784     3.5293    -1.0025 C.3     
  22 H22            2.2640    -0.4588    -1.2245 H       
  23 H23           -1.7982    -2.4119     0.7941 H       
  24 H24           -1.7482    -0.0176     0.2382 H       
  25 H25           -0.2693    -4.7548    -0.1680 H       
  26 H26            0.3385    -6.6579     1.2518 H       
  27 H27            1.4110    -2.6274     2.2541 H       
  28 H28            2.4750    -3.4902     4.2962 H       
  29 H29           -1.6126     4.0370    -0.7624 H       
  30 H30            0.1381     3.9878    -0.4445 H       
  31 H31           -0.4819     3.6160    -2.0711 H       
@<TRIPOS>BOND
   1    1    2 1
   2    1    8 2
   3    1    9 1
   4    2    3 ar
   5    2    7 ar
   6    3    4 ar
   7    3   22 1
   8    4    5 ar
   9    4   10 1
  10    5    6 ar
  11    5   13 1
  12    6    7 ar
  13    6   23 1
  14    7   24 1
  15    9   21 1
  16   10   11 2
  17   10   12 2
  18   13   16 1
  19   13   25 1
  20   14   15 ar
  21   14   19 ar
  22   14   20 1
  23   15   16 ar
  24   15   26 1
  25   16   17 ar
  26   17   18 ar
  27   17   27 1
  28   18   19 ar
  29   18   28 1
  30   21   29 1
  31   21   30 1
  32   21   31 1

#	End of record

