#	Name: ASD04590053
#	Creating user name:	WinNT
#	Creation time:	15. 06. 2019 20:50

#	Modifying user name:	WinNT
#	Modification time:	15. 06. 2019 20:50

#	Program:	/corina/corina34_cracker 3.40 0067  02.08.2006

@<TRIPOS>MOLECULE
ASD04590053
  37   39    0    0    0
SMALL
NO_CHARGES


@<TRIPOS>ATOM
   1 N1            -0.0768     1.2682    -0.0495 N.pl3   
   2 N2            -0.0362    -0.0145     0.0019 N.2     
   3 C3             1.1928    -0.4418    -0.2150 C.2     
   4 C4             2.0015     0.7055    -0.4237 C.2     
   5 C5             1.1590     1.7667    -0.3105 C.2     
   6 C6             1.6418    -1.8464    -0.2359 C.2     
   7 O7             2.8102    -2.1082    -0.4485 O.2     
   8 N8             0.7572    -2.8400    -0.0194 N.am    
   9 C9             1.1618    -4.1748    -0.1354 C.ar    
  10 C10            2.4398    -4.5506     0.2569 C.ar    
  11 C11            2.8368    -5.8684     0.1421 C.ar    
  12 C12            1.9617    -6.8146    -0.3643 C.ar    
  13 C13            0.6869    -6.4420    -0.7562 C.ar    
  14 C14            0.2838    -5.1263    -0.6376 C.ar    
  15 F15            2.3523    -8.1030    -0.4767 F       
  16 N16            3.3784     0.7379    -0.6897 N.am    
  17 C17            4.0033     1.9192    -0.8647 C.2     
  18 C18            5.4528     1.9533    -1.1447 C.ar    
  19 C19            6.1049     3.1773    -1.3269 C.ar    
  20 C20            7.4624     3.1999    -1.5888 C.ar    
  21 C21            8.1730     2.0168    -1.6703 C.ar    
  22 C22            7.5326     0.8028    -1.4913 C.ar    
  23 C23            6.1805     0.7642    -1.2233 C.ar    
  24 O24            3.3736     2.9568    -0.7920 O.2     
  25 F25            5.4106     4.3335    -1.2478 F       
  26 H26           -0.8759     1.8036     0.0760 H       
  27 H27            1.4229     2.8093    -0.4097 H       
  28 H28           -0.1599    -2.6299     0.2168 H       
  29 H29            3.1228    -3.8128     0.6513 H       
  30 H30            3.8306    -6.1611     0.4471 H       
  31 H31            0.0060    -7.1814    -1.1512 H       
  32 H32           -0.7120    -4.8369    -0.9392 H       
  33 H33            3.8808    -0.0898    -0.7477 H       
  34 H34            7.9684     4.1435    -1.7302 H       
  35 H35            9.2332     2.0399    -1.8750 H       
  36 H36            8.0947    -0.1171    -1.5572 H       
  37 H37            5.6844    -0.1842    -1.0789 H       
@<TRIPOS>BOND
   1    1    2 1
   2    1    5 1
   3    1   26 1
   4    2    3 2
   5    3    4 1
   6    3    6 1
   7    4    5 2
   8    4   16 1
   9    5   27 1
  10    6    7 2
  11    6    8 am
  12    8    9 1
  13    8   28 1
  14    9   10 ar
  15    9   14 ar
  16   10   11 ar
  17   10   29 1
  18   11   12 ar
  19   11   30 1
  20   12   13 ar
  21   12   15 1
  22   13   14 ar
  23   13   31 1
  24   14   32 1
  25   16   17 am
  26   16   33 1
  27   17   18 1
  28   17   24 2
  29   18   19 ar
  30   18   23 ar
  31   19   20 ar
  32   19   25 1
  33   20   21 ar
  34   20   34 1
  35   21   22 ar
  36   21   35 1
  37   22   23 ar
  38   22   36 1
  39   23   37 1

#	End of record

