#	Name: ASD01209133
#	Creating user name:	WinNT
#	Creation time:	15. 06. 2019 19:11

#	Modifying user name:	WinNT
#	Modification time:	15. 06. 2019 19:11

#	Program:	/corina/corina34_cracker 3.40 0067  02.08.2006

@<TRIPOS>MOLECULE
ASD01209133
  42   42    0    0    0
SMALL
NO_CHARGES


@<TRIPOS>ATOM
   1 C1            -0.0155     1.2920     0.0091 C.2     
   2 P2            -3.9629    -0.3099     0.0373 P.3     
   3 O3            -4.2826    -1.0069    -1.2285 O.2     
   4 O4            -4.9010     0.9902     0.1858 O.3     
   5 O5            -4.2224    -1.3034     1.2774 O.3     
   6 C6            -6.3274     0.9319     0.1238 C.3     
   7 C7            -6.9035     2.3381     0.3010 C.3     
   8 C8            -5.4718    -1.9602     1.5002 C.3     
   9 C9            -5.3759    -2.8254     2.7584 C.3     
  10 N10            0.0021    -0.0041     0.0020 N.2     
  11 C11           -1.1669    -0.6175     0.0099 C.2     
  12 C12           -2.2218     0.1991     0.0243 C.2     
  13 S13           -1.6286     1.8579     0.0350 S.3     
  14 N14            1.1131     2.1037     0.0027 N.am    
  15 O15            3.4346     2.3358    -0.0187 O.3     
  16 C16            4.7251     1.6704    -0.0351 C.3     
  17 C17            4.8356     0.8028    -1.2905 C.3     
  18 C18            5.8394     2.7188    -0.0401 C.3     
  19 C19            4.8601     0.7885     1.2078 C.3     
  20 C20            2.3416     1.5496    -0.0125 C.2     
  21 O21            2.4627     0.3406    -0.0206 O.2     
  22 H22           -6.6330     0.5332    -0.8436 H       
  23 H23           -6.6995     0.2841     0.9176 H       
  24 H24           -7.9916     2.2937     0.2536 H       
  25 H25           -6.5979     2.7368     1.2683 H       
  26 H26           -6.5315     2.9859    -0.4929 H       
  27 H27           -6.2561    -1.2146     1.6309 H       
  28 H28           -5.7089    -2.5905     0.6431 H       
  29 H29           -4.5916    -3.5710     2.6277 H       
  30 H30           -5.1388    -2.1951     3.6156 H       
  31 H31           -6.3289    -3.3264     2.9284 H       
  32 H32           -1.2615    -1.6934     0.0044 H       
  33 H33            1.0164     3.0688     0.0092 H       
  34 H34            4.7394     1.4311    -2.1760 H       
  35 H35            5.8043     0.3033    -1.3029 H       
  36 H36            4.0417     0.0559    -1.2870 H       
  37 H37            5.7607     3.3369     0.8543 H       
  38 H38            6.8082     2.2193    -0.0524 H       
  39 H39            5.7433     3.3471    -0.9256 H       
  40 H40            4.0662     0.0416     1.2113 H       
  41 H41            5.8288     0.2890     1.1955 H       
  42 H42            4.7814     1.4066     2.1022 H       
@<TRIPOS>BOND
   1    1   10 2
   2    1   14 1
   3    1   13 1
   4    2    3 2
   5    2    4 1
   6    2    5 1
   7    2   12 1
   8    4    6 1
   9    5    8 1
  10    6    7 1
  11    6   22 1
  12    6   23 1
  13    7   24 1
  14    7   25 1
  15    7   26 1
  16    8    9 1
  17    8   27 1
  18    8   28 1
  19    9   29 1
  20    9   30 1
  21    9   31 1
  22   10   11 1
  23   11   12 2
  24   11   32 1
  25   12   13 1
  26   14   20 am
  27   14   33 1
  28   15   16 1
  29   15   20 1
  30   16   17 1
  31   16   18 1
  32   16   19 1
  33   17   34 1
  34   17   35 1
  35   17   36 1
  36   18   37 1
  37   18   38 1
  38   18   39 1
  39   19   40 1
  40   19   41 1
  41   19   42 1
  42   20   21 2

#	End of record

