#	Name: ASD00310060
#	Creating user name:	WinNT
#	Creation time:	15. 06. 2019 18:33

#	Modifying user name:	WinNT
#	Modification time:	15. 06. 2019 18:33

#	Program:	/corina/corina34_cracker 3.40 0067  02.08.2006

@<TRIPOS>MOLECULE
ASD00310060
  17   18    0    0    0
SMALL
NO_CHARGES


@<TRIPOS>ATOM
   1 N1            -0.0165     1.3621     0.0095 N.pl3   
   2 C2             0.0021    -0.0041     0.0020 C.2     
   3 C3             1.2714    -0.4460    -0.0125 C.2     
   4 C4             2.1363     0.7341    -0.0144 C.ar    
   5 C5             3.5228     0.9186    -0.0273 C.ar    
   6 C6             4.0419     2.1790    -0.0262 C.ar    
   7 C7             3.1922     3.2959    -0.0121 C.ar    
   8 C8             1.8093     3.1271     0.0013 C.ar    
   9 C9             1.2737     1.8478    -0.0002 C.ar    
  10 C10            3.7492     4.6151    -0.0110 C.1     
  11 N11            4.1911     5.6617    -0.0102 N.1     
  12 Br12           5.9169     2.4239    -0.0430 Br      
  13 H13           -0.8178     1.9087     0.0164 H       
  14 H14           -0.8739    -0.6357     0.0070 H       
  15 H15            1.5923    -1.4772    -0.0207 H       
  16 H16            4.1816     0.0629    -0.0378 H       
  17 H17            1.1577     3.9883     0.0125 H       
@<TRIPOS>BOND
   1    1    2 1
   2    1    9 1
   3    1   13 1
   4    2    3 2
   5    2   14 1
   6    3    4 1
   7    3   15 1
   8    4    5 ar
   9    4    9 ar
  10    5    6 ar
  11    5   16 1
  12    6    7 ar
  13    6   12 1
  14    7    8 ar
  15    7   10 1
  16    8    9 ar
  17    8   17 1
  18   10   11 3

#	End of record

