#	Name: ASD09740694
#	Creating user name:	WinNT
#	Creation time:	15. 06. 2019 21:23

#	Modifying user name:	WinNT
#	Modification time:	15. 06. 2019 21:23

#	Program:	/corina/corina34_cracker 3.40 0067  02.08.2006

@<TRIPOS>MOLECULE
ASD09740694
  55   58    0    0    0
SMALL
NO_CHARGES


@<TRIPOS>ATOM
   1 C1            -0.0761     1.3112     0.0152 C.2     
   2 C2            -0.0690     0.0012     0.0087 C.2     
   3 S3             1.4449     2.2006     0.0012 S.o2    
   4 O4             1.3480     3.1773     1.0288 O.2     
   5 O5             2.4786     1.2269    -0.0507 O.2     
   6 N6             1.5134     3.0321    -1.4292 N.am    
   7 C7             0.5459     4.0972    -1.7044 C.3     
   8 C8             0.1893     4.1220    -3.2060 C.3     
   9 C9            -0.0074     5.6294    -3.4736 C.3     
  10 C10            0.8429     6.3297    -2.4358 C.ar    
  11 C11            1.3069     7.6478    -2.3837 C.ar    
  12 C12            2.0878     8.0683    -1.3073 C.ar    
  13 C13            2.3987     7.1800    -0.2984 C.ar    
  14 C14            1.9373     5.8783    -0.3544 C.ar    
  15 C15            1.1607     5.4514    -1.4209 C.ar    
  16 S16            1.1657     8.3005    -5.1950 S.3     
  17 C17            0.5287     9.9069    -5.5364 C.2     
  18 N18            0.2380    10.5014    -4.4133 N.2     
  19 C19            0.4600     9.8346    -3.3081 C.2     
  20 C20            0.9705     8.5940    -3.4680 C.2     
  21 C21            0.3526    10.4890    -6.8830 C.ar    
  22 C22           -0.1633    11.7750    -7.0239 C.ar    
  23 C23           -0.3273    12.3190    -8.2967 C.ar    
  24 C24            0.0285    11.5669    -9.4266 C.ar    
  25 C25            0.5414    10.2867    -9.2745 C.ar    
  26 C26            0.7090     9.7509    -8.0157 C.ar    
  27 O27           -0.1295    12.0912   -10.6678 O.3     
  28 C28            0.3629    11.3200   -11.7654 C.3     
  29 C29           -0.6975    10.3019   -12.1897 C.3     
  30 C30            0.6778    12.2481   -12.9402 C.3     
  31 C31           -0.8574    13.6403    -8.4508 C.1     
  32 N32           -1.2779    14.6885    -8.5730 N.1     
  33 H33           -1.0144     1.8461     0.0246 H       
  34 H34            0.8692    -0.5336    -0.0052 H       
  35 H35           -1.0013    -0.5439     0.0172 H       
  36 H36            2.1941     2.8139    -2.0849 H       
  37 H37           -0.3532     3.9569    -1.1044 H       
  38 H38            1.0088     3.7256    -3.8055 H       
  39 H39           -0.7322     3.5713    -3.3946 H       
  40 H40            0.3347     5.8832    -4.4769 H       
  41 H41           -1.0556     5.9018    -3.3503 H       
  42 H42            2.4481     9.0854    -1.2638 H       
  43 H43            3.0032     7.5023     0.5365 H       
  44 H44            2.1840     5.1880     0.4388 H       
  45 H45            0.2492    10.2491    -2.3334 H       
  46 H46           -0.4355    12.3485    -6.1502 H       
  47 H47            0.8143     9.7095   -10.1455 H       
  48 H48            1.1130     8.7556    -7.9041 H       
  49 H49            1.2696    10.7958   -11.4633 H       
  50 H50           -1.6042    10.8261   -12.4917 H       
  51 H51           -0.3219     9.7136   -13.0269 H       
  52 H52           -0.9218     9.6407   -11.3527 H       
  53 H53            1.4332    12.9734   -12.6379 H       
  54 H54            1.0534    11.6598   -13.7775 H       
  55 H55           -0.2289    12.7723   -13.2423 H       
@<TRIPOS>BOND
   1    1    2 2
   2    1    3 1
   3    1   33 1
   4    2   34 1
   5    2   35 1
   6    3    4 2
   7    3    5 2
   8    3    6 am
   9    6    7 1
  10    6   36 1
  11    7    8 1
  12    7   15 1
  13    7   37 1
  14    8    9 1
  15    8   38 1
  16    8   39 1
  17    9   10 1
  18    9   40 1
  19    9   41 1
  20   10   11 ar
  21   10   15 ar
  22   11   12 ar
  23   11   20 1
  24   12   13 ar
  25   12   42 1
  26   13   14 ar
  27   13   43 1
  28   14   15 ar
  29   14   44 1
  30   16   17 1
  31   16   20 1
  32   17   18 2
  33   17   21 1
  34   18   19 1
  35   19   20 2
  36   19   45 1
  37   21   22 ar
  38   21   26 ar
  39   22   23 ar
  40   22   46 1
  41   23   24 ar
  42   23   31 1
  43   24   25 ar
  44   24   27 1
  45   25   26 ar
  46   25   47 1
  47   26   48 1
  48   27   28 1
  49   28   29 1
  50   28   30 1
  51   28   49 1
  52   29   50 1
  53   29   51 1
  54   29   52 1
  55   30   53 1
  56   30   54 1
  57   30   55 1
  58   31   32 3

#	End of record

