#	Name: ASD02039290
#	Creating user name:	WinNT
#	Creation time:	15. 06. 2019 20:18

#	Modifying user name:	WinNT
#	Modification time:	15. 06. 2019 20:18

#	Program:	/corina/corina34_cracker 3.40 0067  02.08.2006

@<TRIPOS>MOLECULE
ASD02039290
  50   52    0    0    0
SMALL
NO_CHARGES


@<TRIPOS>ATOM
   1 C1             0.1358     1.1849    -0.3166 C.ar    
   2 C2             0.5176    -0.0930     0.0498 C.ar    
   3 C3            -0.3865    -1.1373    -0.0186 C.ar    
   4 C4            -1.6783    -0.9083    -0.4543 C.ar    
   5 C5            -2.0680     0.3797    -0.8245 C.ar    
   6 C6            -1.1531     1.4273    -0.7474 C.ar    
   7 C7            -3.4526     0.6331    -1.2936 C.ar    
   8 C8            -4.0240    -0.1681    -2.2862 C.ar    
   9 C9             1.1277     2.3168    -0.2393 C.3     
  10 N10            1.9438     2.3347    -1.4558 N.am    
  11 C11            1.4503     3.0089    -2.6591 C.3     
  12 C12            3.1488     1.7310    -1.4678 C.2     
  13 C13            3.6004     0.9645    -0.2935 C.2     
  14 C14            4.7333     0.2090    -0.2107 C.2     
  15 C15            2.4332     4.1081    -3.0674 C.3     
  16 N16            2.9680     0.8860     0.9052 N.2     
  17 C17            3.6608     0.1197     1.6973 C.2     
  18 N18            4.7637    -0.3181     1.0359 N.pl3   
  19 O19            3.8633     1.8190    -2.4481 O.2     
  20 C20            5.7998    -1.2026     1.5748 C.3     
  21 F21           -2.5612    -1.9287    -0.5219 F       
  22 C22            1.3203     1.9931    -3.7958 C.3     
  23 C23           -4.2063     1.6698    -0.7477 C.ar    
  24 N24           -5.4359     1.8959    -1.1634 N.ar    
  25 C25           -5.9996     1.1604    -2.1019 C.ar    
  26 C26           -5.3188     0.1093    -2.6892 C.ar    
  27 C27           -7.4096     1.4663    -2.5370 C.3     
  28 H28            1.5260    -0.2762     0.3903 H       
  29 H29           -0.0828    -2.1332     0.2684 H       
  30 H30           -1.4492     2.4260    -1.0326 H       
  31 H31           -3.4692    -0.9827    -2.7277 H       
  32 H32            0.5934     3.2623    -0.1463 H       
  33 H33            1.7721     2.1766     0.6285 H       
  34 H34            0.4754     3.4512    -2.4539 H       
  35 H35            5.4654     0.0596    -0.9904 H       
  36 H36            3.4239     3.6757    -3.2078 H       
  37 H37            2.1007     4.5650    -3.9994 H       
  38 H38            2.4753     4.8665    -2.2857 H       
  39 H39            3.4021    -0.1259     2.7166 H       
  40 H40            5.5317    -2.2401     1.3752 H       
  41 H41            6.7542    -0.9760     1.0996 H       
  42 H42            5.8843    -1.0498     2.6508 H       
  43 H43            0.5860     1.2350    -3.5234 H       
  44 H44            0.9967     2.5027    -4.7034 H       
  45 H45            2.2856     1.5178    -3.9705 H       
  46 H46           -3.7789     2.2936     0.0234 H       
  47 H47           -5.7907    -0.4856    -3.4571 H       
  48 H48           -7.3890     2.1804    -3.3603 H       
  49 H49           -7.8960     0.5476    -2.8650 H       
  50 H50           -7.9637     1.8921    -1.7005 H       
@<TRIPOS>BOND
   1    1    2 ar
   2    1    9 1
   3    1    6 ar
   4    2    3 ar
   5    2   28 1
   6    3    4 ar
   7    3   29 1
   8    4    5 ar
   9    4   21 1
  10    5    6 ar
  11    5    7 1
  12    6   30 1
  13    7   23 ar
  14    7    8 ar
  15    8   26 ar
  16    8   31 1
  17    9   10 1
  18    9   32 1
  19    9   33 1
  20   10   11 1
  21   10   12 am
  22   11   22 1
  23   11   15 1
  24   11   34 1
  25   12   13 1
  26   12   19 2
  27   13   14 2
  28   13   16 1
  29   14   18 1
  30   14   35 1
  31   15   36 1
  32   15   37 1
  33   15   38 1
  34   16   17 2
  35   17   18 1
  36   17   39 1
  37   18   20 1
  38   20   40 1
  39   20   41 1
  40   20   42 1
  41   22   43 1
  42   22   44 1
  43   22   45 1
  44   23   24 ar
  45   23   46 1
  46   24   25 ar
  47   25   26 ar
  48   25   27 1
  49   26   47 1
  50   27   48 1
  51   27   49 1
  52   27   50 1

#	End of record

