#	Name: ASD04882041
#	Creating user name:	WinNT
#	Creation time:	15. 06. 2019 20:53

#	Modifying user name:	WinNT
#	Modification time:	15. 06. 2019 20:53

#	Program:	/corina/corina34_cracker 3.40 0067  02.08.2006

@<TRIPOS>MOLECULE
ASD04882041
  76   80    0    0    0
SMALL
NO_CHARGES


@<TRIPOS>ATOM
   1 C1             1.5165     1.4360     1.7950 C.ar    
   2 C2             1.4778     0.0559     1.8136 C.ar    
   3 C3             2.6583    -0.6692     1.9180 C.ar    
   4 C4             3.8738    -0.0027     2.0032 C.ar    
   5 C5             3.9053     1.3781     1.9839 C.ar    
   6 C6             2.7287     2.0966     1.8800 C.ar    
   7 C7             5.1568    -0.7850     2.1170 C.3     
   8 N8             2.6228    -2.0654     1.9376 N.3     
   9 C9             3.2377    -2.6249     0.7258 C.3     
  10 C10            3.2505    -4.1524     0.8222 C.3     
  11 N11            1.8745    -4.6419     0.9852 N.3     
  12 C12            1.2596    -4.0823     2.1970 C.3     
  13 C13            1.2468    -2.5549     2.1006 C.3     
  14 C14            1.8391    -6.0337     1.0048 C.ar    
  15 C15            2.1761    -6.7566    -0.1430 C.ar    
  16 C16            2.1413    -8.1382    -0.1231 C.ar    
  17 C17            1.7688    -8.8080     1.0457 C.ar    
  18 C18            1.4330    -8.0789     2.1900 C.ar    
  19 C19            1.4741    -6.7025     2.1676 C.ar    
  20 C20            1.7297   -10.2825     1.0715 C.2     
  21 N21            1.3704   -10.9275     2.1991 N.am    
  22 O22            2.0216   -10.9160     0.0755 O.2     
  23 C23            1.3316   -12.3917     2.2247 C.3     
  24 C24            0.8961   -12.8662     3.6126 C.3     
  25 C25            0.8555   -14.3954     3.6394 C.3     
  26 N26            0.4386   -14.8496     4.9683 N.am    
  27 C27           -0.9554   -15.0819     5.3644 C.3     
  28 C28           -0.9451   -15.1137     6.9089 C.3     
  29 C29            0.5099   -15.5448     7.2057 C.3     
  30 C30            1.2839   -15.1127     5.9797 C.2     
  31 O31            2.4910   -15.0114     5.9204 O.2     
  32 N32            2.5484    -6.0815    -1.3125 N.am    
  33 C33            3.3530    -6.6833    -2.2109 C.2     
  34 O34            3.6921    -7.8386    -2.0450 O.2     
  35 C35            3.8241    -5.9366    -3.4003 C.ar    
  36 C36            4.6555    -6.5642    -4.3250 C.ar    
  37 N37            3.4460    -4.6766    -3.5788 N.ar    
  38 C38            3.8412    -3.9789    -4.6210 C.ar    
  39 C39            4.6732    -4.5381    -5.5780 C.ar    
  40 C40            5.0878    -5.8526    -5.4334 C.ar    
  41 H41            0.5996     2.0002     1.7094 H       
  42 H42            0.5309    -0.4593     1.7476 H       
  43 H43            4.8502     1.8970     2.0501 H       
  44 H44            2.7561     3.1762     1.8649 H       
  45 H45            5.5063    -1.0566     1.1209 H       
  46 H46            5.9116    -0.1749     2.6130 H       
  47 H47            4.9805    -1.6894     2.6992 H       
  48 H48            2.6617    -2.3205    -0.1481 H       
  49 H49            4.2598    -2.2578     0.6339 H       
  50 H50            3.6798    -4.5706    -0.0882 H       
  51 H51            3.8491    -4.4576     1.6804 H       
  52 H52            0.2374    -4.4495     2.2888 H       
  53 H53            1.8356    -4.3867     3.0709 H       
  54 H54            0.8174    -2.1367     3.0110 H       
  55 H55            0.6481    -2.2497     1.2423 H       
  56 H56            2.4009    -8.6990    -1.0088 H       
  57 H57            1.1450    -8.5955     3.0936 H       
  58 H58            1.2141    -6.1413     3.0530 H       
  59 H59            1.1375   -10.4222     2.9936 H       
  60 H60            0.6215   -12.7495     1.4791 H       
  61 H61            2.3230   -12.7855     2.0007 H       
  62 H62            1.6061   -12.5084     4.3582 H       
  63 H63           -0.0953   -12.4724     3.8367 H       
  64 H64            0.1455   -14.7531     2.8938 H       
  65 H65            1.8469   -14.7891     3.4153 H       
  66 H66           -1.5891   -14.2698     5.0080 H       
  67 H67           -1.3057   -16.0357     4.9698 H       
  68 H68           -1.1510   -14.1257     7.3207 H       
  69 H69           -1.6549   -15.8486     7.2886 H       
  70 H70            0.8842   -15.0375     8.0949 H       
  71 H71            0.5698   -16.6262     7.3285 H       
  72 H72            2.2272    -5.1810    -1.4759 H       
  73 H73            4.9593    -7.5904    -4.1804 H       
  74 H74            3.5126    -2.9562    -4.7330 H       
  75 H75            4.9921    -3.9565    -6.4303 H       
  76 H76            5.7361    -6.3110    -6.1655 H       
@<TRIPOS>BOND
   1    1    2 ar
   2    1    6 ar
   3    1   41 1
   4    2    3 ar
   5    2   42 1
   6    3    4 ar
   7    3    8 1
   8    4    5 ar
   9    4    7 1
  10    5    6 ar
  11    5   43 1
  12    6   44 1
  13    7   45 1
  14    7   46 1
  15    7   47 1
  16    8    9 1
  17    8   13 1
  18    9   10 1
  19    9   48 1
  20    9   49 1
  21   10   11 1
  22   10   50 1
  23   10   51 1
  24   11   12 1
  25   11   14 1
  26   12   13 1
  27   12   52 1
  28   12   53 1
  29   13   54 1
  30   13   55 1
  31   14   15 ar
  32   14   19 ar
  33   15   16 ar
  34   15   32 1
  35   16   17 ar
  36   16   56 1
  37   17   18 ar
  38   17   20 1
  39   18   19 ar
  40   18   57 1
  41   19   58 1
  42   20   21 am
  43   20   22 2
  44   21   23 1
  45   21   59 1
  46   23   24 1
  47   23   60 1
  48   23   61 1
  49   24   25 1
  50   24   62 1
  51   24   63 1
  52   25   26 1
  53   25   64 1
  54   25   65 1
  55   26   27 1
  56   26   30 am
  57   27   28 1
  58   27   66 1
  59   27   67 1
  60   28   29 1
  61   28   68 1
  62   28   69 1
  63   29   30 1
  64   29   70 1
  65   29   71 1
  66   30   31 2
  67   32   33 am
  68   32   72 1
  69   33   34 2
  70   33   35 1
  71   35   36 ar
  72   35   37 ar
  73   36   40 ar
  74   36   73 1
  75   37   38 ar
  76   38   39 ar
  77   38   74 1
  78   39   40 ar
  79   39   75 1
  80   40   76 1

#	End of record

