#	Name: ASD03330911
#	Creating user name:	WinNT
#	Creation time:	15. 06. 2019 20:38

#	Modifying user name:	WinNT
#	Modification time:	15. 06. 2019 20:38

#	Program:	/corina/corina34_cracker 3.40 0067  02.08.2006

@<TRIPOS>MOLECULE
ASD03330911
  60   62    0    0    0
SMALL
NO_CHARGES


@<TRIPOS>ATOM
   1 N1             0.4410     0.9370    -0.2640 N.pl3   
   2 C2             0.3276    -0.4180    -0.2054 C.2     
   3 C3             1.4748    -1.3942    -0.1845 C.3     
   4 N4             2.4709    -0.9466     0.8013 N.3     
   5 C5             3.4467    -0.0390     0.1949 C.3     
   6 C6             2.7975     0.8148    -0.8905 C.3     
   7 C7             1.6997     1.6876    -0.2763 C.3     
   8 C8            -0.8242     1.4521    -0.2962 C.2     
   9 N9            -1.6822     0.4570    -0.2415 N.2     
  10 C10           -1.0019    -0.7094    -0.1820 C.2     
  11 C11           -1.5940    -2.0564    -0.1060 C.2     
  12 O12           -0.8738    -3.0354    -0.0575 O.2     
  13 N13           -2.9335    -2.2039    -0.0902 N.am    
  14 C14           -1.1688     2.8807    -0.3779 C.2     
  15 C15           -2.3863     3.3728    -0.6946 C.2     
  16 C16           -2.4657     4.7481    -0.7065 C.2     
  17 C17           -1.3290     5.3846    -0.4037 C.2     
  18 S18           -0.0612     4.2122    -0.0709 S.3     
  19 C19           -3.7399     5.4818    -1.0370 C.3     
  20 C20            3.1391    -2.0927     1.4322 C.3     
  21 C21           -4.9067    -3.5178    -0.6092 C.2     
  22 C22           -3.5222    -3.5433    -0.0146 C.3     
  23 C23           -3.6036    -3.9828     1.4486 C.3     
  24 C24           -4.3817    -2.9389     2.2522 C.3     
  25 O25           -5.5599    -2.4963    -0.5813 O.2     
  26 N26           -5.4190    -4.6301    -1.1720 N.am    
  27 C27           -6.8034    -4.6376    -1.6511 C.3     
  28 C28           -4.3198    -5.3320     1.5368 C.3     
  29 C29           -2.1907    -4.1171     2.0201 C.3     
  30 H30            1.1072    -2.3825     0.0918 H       
  31 H31            1.9338    -1.4382    -1.1722 H       
  32 H32            3.8566     0.6131     0.9661 H       
  33 H33            4.2546    -0.6238    -0.2448 H       
  34 H34            3.5528     1.4524    -1.3501 H       
  35 H35            2.3619     0.1656    -1.6500 H       
  36 H36            1.5784     2.5929    -0.8711 H       
  37 H37            1.9747     1.9547     0.7441 H       
  38 H38           -3.5079    -1.4231    -0.1288 H       
  39 H39           -3.2305     2.7384    -0.9209 H       
  40 H40           -1.2089     6.4572    -0.3651 H       
  41 H41           -4.3086     5.6521    -0.1229 H       
  42 H42           -3.4986     6.4393    -1.4986 H       
  43 H43           -4.3341     4.8845    -1.7286 H       
  44 H44            3.5849    -2.7223     0.6622 H       
  45 H45            3.9185    -1.7340     2.1044 H       
  46 H46            2.4096    -2.6722     1.9980 H       
  47 H47           -2.9008    -4.2451    -0.5708 H       
  48 H48           -5.3882    -2.8432     1.8450 H       
  49 H49           -4.4397    -3.2520     3.2946 H       
  50 H50           -3.8715    -1.9777     2.1893 H       
  51 H51           -4.8711    -5.4257    -1.2599 H       
  52 H52           -7.4768    -4.4291    -0.8197 H       
  53 H53           -6.9265    -3.8735    -2.4187 H       
  54 H54           -7.0372    -5.6158    -2.0714 H       
  55 H55           -3.7397    -6.0866     1.0057 H       
  56 H56           -4.4217    -5.6215     2.5826 H       
  57 H57           -5.3082    -5.2489     1.0848 H       
  58 H58           -1.6805    -3.1559     1.9573 H       
  59 H59           -2.2487    -4.4302     3.0626 H       
  60 H60           -1.6364    -4.8608     1.4476 H       
@<TRIPOS>BOND
   1    1    2 1
   2    1    7 1
   3    1    8 1
   4    2    3 1
   5    2   10 2
   6    3    4 1
   7    3   30 1
   8    3   31 1
   9    4    5 1
  10    4   20 1
  11    5    6 1
  12    5   32 1
  13    5   33 1
  14    6    7 1
  15    6   34 1
  16    6   35 1
  17    7   36 1
  18    7   37 1
  19    8    9 2
  20    8   14 1
  21    9   10 1
  22   10   11 1
  23   11   12 2
  24   11   13 am
  25   13   22 1
  26   13   38 1
  27   14   15 2
  28   14   18 1
  29   15   16 1
  30   15   39 1
  31   16   17 2
  32   16   19 1
  33   17   18 1
  34   17   40 1
  35   19   41 1
  36   19   42 1
  37   19   43 1
  38   20   44 1
  39   20   45 1
  40   20   46 1
  41   21   25 2
  42   21   26 am
  43   21   22 1
  44   22   23 1
  45   22   47 1
  46   23   24 1
  47   23   28 1
  48   23   29 1
  49   24   48 1
  50   24   49 1
  51   24   50 1
  52   26   27 1
  53   26   51 1
  54   27   52 1
  55   27   53 1
  56   27   54 1
  57   28   55 1
  58   28   56 1
  59   28   57 1
  60   29   58 1
  61   29   59 1
  62   29   60 1

#	End of record

