#	Name: ASD01811320
#	Creating user name:	WinNT
#	Creation time:	15. 06. 2019 19:26

#	Modifying user name:	WinNT
#	Modification time:	15. 06. 2019 19:26

#	Program:	/corina/corina34_cracker 3.40 0067  02.08.2006

@<TRIPOS>MOLECULE
ASD01811320
  57   59    0    0    0
SMALL
NO_CHARGES


@<TRIPOS>ATOM
   1 N1            -0.0369     1.4006     0.3510 N.am    
   2 C2            -0.0604     0.1000    -0.0017 C.2     
   3 O3             0.9095    -0.4027    -0.5357 O.2     
   4 N4            -1.1588    -0.6434     0.2374 N.am    
   5 C5            -1.1843    -2.0571    -0.1460 C.3     
   6 C6            -0.5525    -2.8983     0.9650 C.3     
   7 C7            -2.6326    -2.5012    -0.3609 C.3     
   8 C8             1.1323     2.1511     0.1804 C.ar    
   9 C9             1.0516     3.5147    -0.0757 C.ar    
  10 C10            2.2031     4.2601    -0.2453 C.ar    
  11 C11            3.4408     3.6552    -0.1615 C.ar    
  12 C12            3.5326     2.2865     0.0957 C.ar    
  13 C13            2.3705     1.5353     0.2725 C.ar    
  14 C14           -0.2960     4.1828    -0.1693 C.3     
  15 C15            4.8573     1.6358     0.1856 C.2     
  16 O16            4.9975     0.4884    -0.1904 O.2     
  17 N17            5.9092     2.3148     0.6844 N.am    
  18 C18            7.2546     1.7246     0.6732 C.3     
  19 C19            7.8238     1.7677     2.0948 C.3     
  20 C20            7.7724     3.2052     2.6172 C.3     
  21 C21            6.3186     3.6810     2.6644 C.3     
  22 C22            5.7333     3.6619     1.2441 C.3     
  23 C23            8.3629     3.2573     4.0028 C.ar    
  24 C24            7.5635     2.9680     5.0943 C.ar    
  25 C25            8.1087     3.0162     6.3649 C.ar    
  26 C26            9.4605     3.3594     6.4944 C.ar    
  27 C27           10.1987     3.6372     5.3427 C.ar    
  28 N28            9.6348     3.5728     4.1544 N.ar    
  29 C29           10.0747     3.4245     7.7864 C.1     
  30 N30           10.5619     3.4762     8.8113 N.1     
  31 H31           -0.8315     1.8176     0.7193 H       
  32 H32           -1.9326    -0.2424     0.6634 H       
  33 H33           -0.6216    -2.1933    -1.0695 H       
  34 H34           -1.1152    -2.7621     1.8885 H       
  35 H35           -0.5714    -3.9501     0.6797 H       
  36 H36            0.4793    -2.5819     1.1181 H       
  37 H37           -3.0827    -1.9020    -1.1524 H       
  38 H38           -2.6515    -3.5531    -0.6462 H       
  39 H39           -3.1953    -2.3650     0.5626 H       
  40 H40            2.1340     5.3193    -0.4445 H       
  41 H41            4.3383     4.2409    -0.2954 H       
  42 H42            2.4353     0.4767     0.4762 H       
  43 H43           -0.5963     4.5349     0.8176 H       
  44 H44           -0.2354     5.0287    -0.8540 H       
  45 H45           -1.0310     3.4679    -0.5392 H       
  46 H46            7.1972     0.6904     0.3338 H       
  47 H47            7.8986     2.2956     0.0043 H       
  48 H48            7.2308     1.1233     2.7438 H       
  49 H49            8.8573     1.4214     2.0836 H       
  50 H50            8.3453     3.8533     1.9540 H       
  51 H51            5.7397     3.0186     3.3080 H       
  52 H52            6.2808     4.6965     3.0585 H       
  53 H53            6.2558     4.3876     0.6209 H       
  54 H54            4.6717     3.9063     1.2816 H       
  55 H55            6.5245     2.7075     4.9559 H       
  56 H56            7.5074     2.7953     7.2344 H       
  57 H57           11.2420     3.9032     5.4267 H       
@<TRIPOS>BOND
   1    1    2 am
   2    1    8 1
   3    1   31 1
   4    2    3 2
   5    2    4 am
   6    4    5 1
   7    4   32 1
   8    5    6 1
   9    5    7 1
  10    5   33 1
  11    6   34 1
  12    6   35 1
  13    6   36 1
  14    7   37 1
  15    7   38 1
  16    7   39 1
  17    8    9 ar
  18    8   13 ar
  19    9   10 ar
  20    9   14 1
  21   10   11 ar
  22   10   40 1
  23   11   12 ar
  24   11   41 1
  25   12   13 ar
  26   12   15 1
  27   13   42 1
  28   14   43 1
  29   14   44 1
  30   14   45 1
  31   15   16 2
  32   15   17 am
  33   17   18 1
  34   17   22 1
  35   18   19 1
  36   18   46 1
  37   18   47 1
  38   19   20 1
  39   19   48 1
  40   19   49 1
  41   20   21 1
  42   20   23 1
  43   20   50 1
  44   21   22 1
  45   21   51 1
  46   21   52 1
  47   22   53 1
  48   22   54 1
  49   23   24 ar
  50   23   28 ar
  51   24   25 ar
  52   24   55 1
  53   25   26 ar
  54   25   56 1
  55   26   27 ar
  56   26   29 1
  57   27   28 ar
  58   27   57 1
  59   29   30 3

#	End of record

