#	Name: ASD01412095
#	Creating user name:	WinNT
#	Creation time:	15. 06. 2019 19:20

#	Modifying user name:	WinNT
#	Modification time:	15. 06. 2019 19:20

#	Program:	/corina/corina34_cracker 3.40 0067  02.08.2006

@<TRIPOS>MOLECULE
ASD01412095
  84   90    0    0    0
SMALL
NO_CHARGES


@<TRIPOS>ATOM
   1 C1             1.3295     3.8560    -2.6554 C.ar    
   2 C2             0.6890     2.5863    -2.6785 C.ar    
   3 C3            -0.5520     2.7617    -3.3149 C.2     
   4 C4            -0.6494     4.0648    -3.6584 C.2     
   5 N5             0.4853     4.7476    -3.2469 N.pl3   
   6 C6            -1.7423     4.7613    -4.3696 C.ar    
   7 C7            -1.3766     5.6536    -5.3965 C.ar    
   8 O8            -0.0711     5.7399    -5.7387 O.3     
   9 C9             0.8502     6.4913    -4.9445 C.3     
  10 C10            0.6603     6.1872    -3.4534 C.3     
  11 C11           -1.5837     1.6928    -3.5681 C.3     
  12 C12           -0.9751     0.5929    -4.4402 C.3     
  13 C13           -2.0225    -0.4923    -4.6973 C.3     
  14 C14           -2.4749    -1.0906    -3.3637 C.3     
  15 C15           -3.0835     0.0093    -2.4916 C.3     
  16 C16           -2.0361     1.0945    -2.2345 C.3     
  17 C17            2.5899     4.0038    -2.0901 C.ar    
  18 C18            3.1829     2.8553    -1.5537 C.ar    
  19 C19            2.5424     1.6112    -1.5797 C.ar    
  20 C20            1.3015     1.4474    -2.1314 C.ar    
  21 C21            4.5225     2.9589    -0.9436 C.2     
  22 N22            5.1115     1.8649    -0.4213 N.am    
  23 O23            5.0949     4.0312    -0.9121 O.2     
  24 C24            6.4869     1.9411     0.0774 C.3     
  25 C25            6.5727     2.9391     1.2033 C.2     
  26 C26            6.9497     0.5528     0.5655 C.3     
  27 C27            7.7093    -0.0420    -0.6463 C.3     
  28 C28            8.4470     1.1905    -1.2257 C.3     
  29 C29            7.4387     2.3478    -1.0612 C.3     
  30 N30            5.5725     3.0287     2.1022 N.am    
  31 O31            7.5418     3.6618     1.3005 O.2     
  32 C32            5.5814     4.0458     3.0564 C.ar    
  33 C33            5.0416     3.8176     4.3187 C.ar    
  34 C34            5.0486     4.8181     5.2635 C.ar    
  35 C35            5.6000     6.0672     4.9532 C.ar    
  36 C36            6.1419     6.2921     3.6820 C.ar    
  37 C37            6.1353     5.2841     2.7453 C.ar    
  38 C38            5.6094     7.1388     5.9585 C.2     
  39 C39            6.1419     8.3433     5.6570 C.2     
  40 C40            6.1510     9.3773     6.6270 C.2     
  41 O41            5.6793     9.1799     7.7308 O.2     
  42 O42            6.6829    10.5802     6.3258 O.3     
  43 N43           -3.0143     4.5736    -4.0638 N.ar    
  44 C44           -3.9729     5.2378    -4.6802 C.ar    
  45 C45           -3.6837     6.1605    -5.6698 C.ar    
  46 C46           -2.3629     6.3777    -6.0402 C.ar    
  47 H47            1.8682     6.2349    -5.2376 H       
  48 H48            0.6859     7.5552    -5.1153 H       
  49 H49           -0.2195     6.7162    -3.0868 H       
  50 H50            1.5371     6.5264    -2.9018 H       
  51 H51           -2.4413     2.1295    -4.0799 H       
  52 H52           -0.6528     1.0191    -5.3902 H       
  53 H53           -0.1175     0.1562    -3.9284 H       
  54 H54           -2.8801    -0.0556    -5.2091 H       
  55 H55           -1.5889    -1.2759    -5.3186 H       
  56 H56           -3.2211    -1.8637    -3.5469 H       
  57 H57           -1.6173    -1.5273    -2.8519 H       
  58 H58           -3.9411     0.4461    -3.0034 H       
  59 H59           -3.4058    -0.4169    -1.5416 H       
  60 H60           -1.1785     0.6578    -1.7227 H       
  61 H61           -2.4697     1.8781    -1.6132 H       
  62 H62            3.0894     4.9611    -2.0659 H       
  63 H63            3.0427     0.7551    -1.1516 H       
  64 H64            0.8142     0.4837    -2.1460 H       
  65 H65            4.6248     1.0271    -0.3757 H       
  66 H66            7.6163     0.6523     1.4221 H       
  67 H67            6.0906    -0.0682     0.8194 H       
  68 H68            8.4212    -0.8008    -0.3213 H       
  69 H69            7.0114    -0.4528    -1.3759 H       
  70 H70            9.3554     1.3930    -0.6584 H       
  71 H71            8.6806     1.0349    -2.2790 H       
  72 H72            6.8773     2.4881    -1.9849 H       
  73 H73            7.9640     3.2664    -0.7998 H       
  74 H74            4.8464     2.3857     2.0855 H       
  75 H75            4.6162     2.8540     4.5570 H       
  76 H76            4.6291     4.6402     6.2427 H       
  77 H77            6.5680     7.2542     3.4382 H       
  78 H78            6.5534     5.4566     1.7646 H       
  79 H79            5.1906     6.9636     6.9385 H       
  80 H80            6.5607     8.5185     4.6770 H       
  81 H81            6.6434    11.2201     7.0497 H       
  82 H82           -5.0023     5.0583    -4.4072 H       
  83 H83           -4.4803     6.7079    -6.1517 H       
  84 H84           -2.1131     7.0935    -6.8094 H       
@<TRIPOS>BOND
   1    1    2 ar
   2    1   17 ar
   3    1    5 1
   4    2    3 1
   5    2   20 ar
   6    3    4 2
   7    3   11 1
   8    4    5 1
   9    4    6 1
  10    5   10 1
  11    6    7 ar
  12    6   43 ar
  13    7    8 1
  14    7   46 ar
  15    8    9 1
  16    9   10 1
  17    9   47 1
  18    9   48 1
  19   10   49 1
  20   10   50 1
  21   11   12 1
  22   11   16 1
  23   11   51 1
  24   12   13 1
  25   12   52 1
  26   12   53 1
  27   13   14 1
  28   13   54 1
  29   13   55 1
  30   14   15 1
  31   14   56 1
  32   14   57 1
  33   15   16 1
  34   15   58 1
  35   15   59 1
  36   16   60 1
  37   16   61 1
  38   17   18 ar
  39   17   62 1
  40   18   19 ar
  41   18   21 1
  42   19   20 ar
  43   19   63 1
  44   20   64 1
  45   21   22 am
  46   21   23 2
  47   22   24 1
  48   22   65 1
  49   24   25 1
  50   24   26 1
  51   24   29 1
  52   25   30 am
  53   25   31 2
  54   26   27 1
  55   26   66 1
  56   26   67 1
  57   27   28 1
  58   27   68 1
  59   27   69 1
  60   28   29 1
  61   28   70 1
  62   28   71 1
  63   29   72 1
  64   29   73 1
  65   30   32 1
  66   30   74 1
  67   32   33 ar
  68   32   37 ar
  69   33   34 ar
  70   33   75 1
  71   34   35 ar
  72   34   76 1
  73   35   36 ar
  74   35   38 1
  75   36   37 ar
  76   36   77 1
  77   37   78 1
  78   38   39 2
  79   38   79 1
  80   39   40 1
  81   39   80 1
  82   40   41 2
  83   40   42 1
  84   42   81 1
  85   43   44 ar
  86   44   45 ar
  87   44   82 1
  88   45   46 ar
  89   45   83 1
  90   46   84 1

#	End of record

