#	Name: ASD01209216
#	Creating user name:	WinNT
#	Creation time:	15. 06. 2019 19:11

#	Modifying user name:	WinNT
#	Modification time:	15. 06. 2019 19:11

#	Program:	/corina/corina34_cracker 3.40 0067  02.08.2006

@<TRIPOS>MOLECULE
ASD01209216
  61   64    0    0    0
SMALL
NO_CHARGES


@<TRIPOS>ATOM
   1 O1            -0.5796     1.4166    -0.0424 O.3     
   2 O2             1.7044     1.6181     1.2441 O.3     
   3 N3             1.0754     4.9085    -8.1923 N.pl3   
   4 C4             0.5873     5.7479    -7.2372 C.2     
   5 C5            -0.0145     5.3676    -5.9584 C.2     
   6 N6             0.7723     5.0336    -4.9163 N.am    
   7 O7            -1.2257     5.3528    -5.8360 O.2     
   8 C8             0.2073     4.7764    -3.6744 C.2     
   9 P9             0.9071     2.0327    -0.0918 P.3     
  10 O10            1.6207     1.5049    -1.2761 O.2     
  11 C11            0.8086     3.8497    -0.2014 C.3     
  12 N12            0.8711     4.4485    -2.6100 N.2     
  13 S13           -1.4644     4.8533    -3.3241 S.3     
  14 C14           -1.1455     4.4014    -1.6515 C.2     
  15 C15            0.1716     4.2401    -1.5102 C.2     
  16 C16            0.7763     7.0486    -7.7235 C.ar    
  17 C17            1.4135     6.8603    -9.0354 C.ar    
  18 N18            1.5424     5.5554    -9.1990 N.2     
  19 C19            0.5142     8.3479    -7.2713 C.ar    
  20 C20            0.8531     9.4096    -8.0522 C.ar    
  21 C21            1.4576     9.2369    -9.2972 C.ar    
  22 C22            1.7386     8.0037    -9.7924 C.ar    
  23 S23            1.8683    10.6581   -10.2544 S.o2    
  24 O24            1.8579    10.1916   -11.5966 O.2     
  25 O25            0.9516    11.6519    -9.8171 O.2     
  26 C26            3.5562    11.0783    -9.7395 C.3     
  27 C27            1.0736     3.4476    -8.0823 C.3     
  28 C28           -0.2758     2.9023    -8.5541 C.3     
  29 C29            2.0392     0.2659     1.5627 C.3     
  30 C30            2.7910     0.2268     2.8946 C.3     
  31 C31           -0.8409     0.0118    -0.0595 C.3     
  32 C32           -2.3510    -0.2268    -0.0017 C.3     
  33 C33           -0.4371     1.3825    -8.6272 C.3     
  34 C34           -1.1426     2.1746    -7.5246 C.3     
  35 H35            1.7332     4.9730    -5.0339 H       
  36 H36            0.2071     4.2314     0.6236 H       
  37 H37            1.8119     4.2720    -0.1454 H       
  38 H38           -1.8863     4.2796    -0.8751 H       
  39 H39            0.0465     8.5060    -6.3108 H       
  40 H40            0.6488    10.4098    -7.6996 H       
  41 H41            2.2073     7.9002   -10.7599 H       
  42 H42            4.2198    10.2398    -9.9507 H       
  43 H43            3.8952    11.9571   -10.2881 H       
  44 H44            3.5678    11.2905    -8.6705 H       
  45 H45            1.8692     3.0355    -8.7032 H       
  46 H46            1.2381     3.1613    -7.0436 H       
  47 H47           -0.7859     3.4994    -9.3100 H       
  48 H48            1.1267    -0.3250     1.6430 H       
  49 H49            2.6713    -0.1468     0.7764 H       
  50 H50            3.0463    -0.8046     3.1376 H       
  51 H51            3.7034     0.8177     2.8143 H       
  52 H52            2.1589     0.6396     3.6809 H       
  53 H53           -0.4394    -0.4213    -0.9757 H       
  54 H54           -0.3657    -0.4567     0.8024 H       
  55 H55           -2.7525     0.2063     0.9145 H       
  56 H56           -2.8262     0.2417    -0.8636 H       
  57 H57           -2.5503    -1.2983    -0.0148 H       
  58 H58           -1.0536     0.9799    -9.4309 H       
  59 H59            0.4182     0.7712    -8.3391 H       
  60 H60           -0.7516     2.0844    -6.5112 H       
  61 H61           -2.2234     2.2930    -7.6029 H       
@<TRIPOS>BOND
   1    1   31 1
   2    1    9 1
   3    2   29 1
   4    2    9 1
   5    3    4 1
   6    3   27 1
   7    3   18 1
   8    4    5 1
   9    4   16 2
  10    5    6 am
  11    5    7 2
  12    6    8 1
  13    6   35 1
  14    8   12 2
  15    8   13 1
  16    9   10 2
  17    9   11 1
  18   11   15 1
  19   11   36 1
  20   11   37 1
  21   12   15 1
  22   13   14 1
  23   14   15 2
  24   14   38 1
  25   16   17 ar
  26   16   19 ar
  27   17   18 2
  28   17   22 ar
  29   19   20 ar
  30   19   39 1
  31   20   21 ar
  32   20   40 1
  33   21   22 ar
  34   21   23 1
  35   22   41 1
  36   23   24 2
  37   23   25 2
  38   23   26 1
  39   26   42 1
  40   26   43 1
  41   26   44 1
  42   27   28 1
  43   27   45 1
  44   27   46 1
  45   28   33 1
  46   28   34 1
  47   28   47 1
  48   29   30 1
  49   29   48 1
  50   29   49 1
  51   30   50 1
  52   30   51 1
  53   30   52 1
  54   31   32 1
  55   31   53 1
  56   31   54 1
  57   32   55 1
  58   32   56 1
  59   32   57 1
  60   33   34 1
  61   33   58 1
  62   33   59 1
  63   34   60 1
  64   34   61 1

#	End of record

