#	Name: ASD03090870
#	Creating user name:	WinNT
#	Creation time:	15. 06. 2019 20:29

#	Modifying user name:	WinNT
#	Modification time:	15. 06. 2019 20:29

#	Program:	/corina/corina34_cracker 3.40 0067  02.08.2006

@<TRIPOS>MOLECULE
ASD03090870
  55   58    0    0    0
SMALL
NO_CHARGES


@<TRIPOS>ATOM
   1 N1            -0.0149     1.3421     0.1048 N.am    
   2 C2             0.0030    -0.0051     0.0719 C.2     
   3 O3            -1.0442    -0.6288     0.0748 O.2     
   4 N4             1.1687    -0.6570     0.0361 N.2     
   5 S5            -0.1729    -3.0447     0.0008 S.3     
   6 C6             1.1864    -1.9875     0.0036 C.2     
   7 N7             2.2793    -2.7909    -0.0347 N.pl3   
   8 C8             2.0560    -4.1338    -0.0638 C.2     
   9 C9             0.7906    -4.5309    -0.0520 C.2     
  10 C10            0.2795    -5.9484    -0.0785 C.3     
  11 O11            7.4851    -0.9543    -0.0528 O.3     
  12 C12            8.1209    -2.2099    -0.3569 C.3     
  13 O13            7.1778    -3.1928     0.1096 O.3     
  14 C14            5.9555    -2.5894     0.0355 C.ar    
  15 C15            6.1440    -1.2125    -0.0645 C.ar    
  16 C16            4.6733    -3.1114     0.0455 C.ar    
  17 C17            3.5781    -2.2627    -0.0443 C.ar    
  18 C18            3.7690    -0.8915    -0.1440 C.ar    
  19 C19            5.0485    -0.3694    -0.1545 C.ar    
  20 F20            8.3226    -2.3376    -1.7353 F       
  21 F21            9.3332    -2.3264     0.3315 F       
  22 C22            1.2438     2.0918     0.1013 C.3     
  23 C23            1.6571     2.3876    -1.3418 C.3     
  24 C24            2.9716     3.1705    -1.3454 C.3     
  25 C25            3.3850     3.4664    -2.7885 C.3     
  26 C26           -1.2932     2.0571     0.1380 C.3     
  27 C27           -1.7139     2.2678     1.5697 C.ar    
  28 C28           -1.3222     3.4089     2.2444 C.ar    
  29 C29           -1.7080     3.6021     3.5577 C.ar    
  30 C30           -2.4860     2.6544     4.1961 C.ar    
  31 C31           -2.8785     1.5137     3.5211 C.ar    
  32 C32           -2.4962     1.3226     2.2064 C.ar    
  33 H33            2.8708    -4.8420    -0.0950 H       
  34 H34           -0.8103    -5.9421    -0.0606 H       
  35 H35            0.6251    -6.4423    -0.9866 H       
  36 H36            0.6541    -6.4860     0.7926 H       
  37 H37            4.5250    -4.1784     0.1226 H       
  38 H38            2.9166    -0.2319    -0.2138 H       
  39 H39            5.1947     0.6979    -0.2316 H       
  40 H40            1.1096     3.0296     0.6404 H       
  41 H41            2.0199     1.5009     0.5877 H       
  42 H42            1.7913     1.4498    -1.8808 H       
  43 H43            0.8810     2.9785    -1.8282 H       
  44 H44            2.8375     4.1083    -0.8064 H       
  45 H45            3.7478     2.5797    -0.8590 H       
  46 H46            3.5191     2.5286    -3.3276 H       
  47 H47            2.6089     4.0572    -3.2749 H       
  48 H48            4.3215     4.0241    -2.7911 H       
  49 H49           -1.1819     3.0234    -0.3539 H       
  50 H50           -2.0512     1.4704    -0.3808 H       
  51 H51           -0.7144     4.1493     1.7457 H       
  52 H52           -1.4014     4.4933     4.0851 H       
  53 H53           -2.7868     2.8051     5.2223 H       
  54 H54           -3.4860     0.7732     4.0200 H       
  55 H55           -2.8059     0.4331     1.6779 H       
@<TRIPOS>BOND
   1    1    2 am
   2    1   22 1
   3    1   26 1
   4    2    3 2
   5    2    4 1
   6    4    6 2
   7    5    6 1
   8    5    9 1
   9    6    7 1
  10    7    8 1
  11    7   17 1
  12    8    9 2
  13    8   33 1
  14    9   10 1
  15   10   34 1
  16   10   35 1
  17   10   36 1
  18   11   12 1
  19   11   15 1
  20   12   13 1
  21   12   20 1
  22   12   21 1
  23   13   14 1
  24   14   15 ar
  25   14   16 ar
  26   15   19 ar
  27   16   17 ar
  28   16   37 1
  29   17   18 ar
  30   18   19 ar
  31   18   38 1
  32   19   39 1
  33   22   23 1
  34   22   40 1
  35   22   41 1
  36   23   24 1
  37   23   42 1
  38   23   43 1
  39   24   25 1
  40   24   44 1
  41   24   45 1
  42   25   46 1
  43   25   47 1
  44   25   48 1
  45   26   27 1
  46   26   49 1
  47   26   50 1
  48   27   28 ar
  49   27   32 ar
  50   28   29 ar
  51   28   51 1
  52   29   30 ar
  53   29   52 1
  54   30   31 ar
  55   30   53 1
  56   31   32 ar
  57   31   54 1
  58   32   55 1

#	End of record

