#	Name: ASD01208421
#	Creating user name:	WinNT
#	Creation time:	15. 06. 2019 19:09

#	Modifying user name:	WinNT
#	Modification time:	15. 06. 2019 19:09

#	Program:	/corina/corina34_cracker 3.40 0067  02.08.2006

@<TRIPOS>MOLECULE
ASD01208421
  46   47    0    0    0
SMALL
NO_CHARGES


@<TRIPOS>ATOM
   1 S1            -2.6543     0.8937     0.5632 S.3     
   2 C2            -1.7981    -0.6459     0.5797 C.2     
   3 N3            -0.5270    -0.4238     0.7724 N.2     
   4 C4            -0.1552     0.8289     0.9085 C.2     
   5 C5            -1.1313     1.7386     0.8330 C.2     
   6 N6            -1.7511    -3.1634     0.2733 N.pl3   
   7 C7            -2.4172    -1.9697     0.4051 C.2     
   8 C8            -3.7563    -2.2299     0.3451 C.2     
   9 C9            -3.9054    -3.6142     0.1730 C.2     
  10 C10           -2.6696    -4.1598     0.1323 C.2     
  11 Si11           0.0761    -3.3798     0.2784 Si      
  12 C12            0.6998    -3.3530     2.0337 C.3     
  13 C13            0.3431    -2.0135     2.6812 C.3     
  14 C14            0.0492    -4.4905     2.8235 C.3     
  15 C15            0.5104    -5.0110    -0.5101 C.3     
  16 C16            0.2388    -4.9388    -2.0141 C.3     
  17 C17            1.9913    -5.3137    -0.2732 C.3     
  18 C18            0.8682    -1.9948    -0.6834 C.3     
  19 C19            2.2789    -2.4093    -1.1063 C.3     
  20 C20            0.0305    -1.6938    -1.9277 C.3     
  21 H21            0.8757     1.1064     1.0716 H       
  22 H22           -1.0080     2.8078     0.9219 H       
  23 H23           -4.5531    -1.5045     0.4175 H       
  24 H24           -4.8403    -4.1483     0.0887 H       
  25 H25           -2.4474    -5.2093     0.0083 H       
  26 H26            1.7822    -3.4813     2.0366 H       
  27 H27           -0.7393    -1.8852     2.6782 H       
  28 H28            0.7080    -1.9978     3.7082 H       
  29 H29            0.8066    -1.2031     2.1185 H       
  30 H30            0.3033    -5.4448     2.3622 H       
  31 H31            0.4141    -4.4748     3.8505 H       
  32 H32           -1.0332    -4.3623     2.8205 H       
  33 H33           -0.0971    -5.8010    -0.0687 H       
  34 H34            0.9460    -4.2514    -2.4784 H       
  35 H35            0.3546    -5.9301    -2.4522 H       
  36 H36           -0.7777    -4.5833    -2.1831 H       
  37 H37            2.2363    -5.1324     0.7733 H       
  38 H38            2.1926    -6.3566    -0.5181 H       
  39 H39            2.5999    -4.6678    -0.9061 H       
  40 H40            0.9234    -1.1036    -0.0582 H       
  41 H41            2.8300    -1.5312    -1.4430 H       
  42 H42            2.7951    -2.8590    -0.2581 H       
  43 H43            2.2167    -3.1329    -1.9190 H       
  44 H44           -0.9640    -1.3654    -1.6256 H       
  45 H45            0.5121    -0.9070    -2.5084 H       
  46 H46           -0.0535    -2.5945    -2.5358 H       
@<TRIPOS>BOND
   1    1    2 1
   2    1    5 1
   3    2    3 2
   4    2    7 1
   5    3    4 1
   6    4    5 2
   7    4   21 1
   8    5   22 1
   9    6    7 1
  10    6   10 1
  11    6   11 1
  12    7    8 2
  13    8    9 1
  14    8   23 1
  15    9   10 2
  16    9   24 1
  17   10   25 1
  18   11   12 1
  19   11   15 1
  20   11   18 1
  21   12   13 1
  22   12   14 1
  23   12   26 1
  24   13   27 1
  25   13   28 1
  26   13   29 1
  27   14   30 1
  28   14   31 1
  29   14   32 1
  30   15   16 1
  31   15   17 1
  32   15   33 1
  33   16   34 1
  34   16   35 1
  35   16   36 1
  36   17   37 1
  37   17   38 1
  38   17   39 1
  39   18   19 1
  40   18   20 1
  41   18   40 1
  42   19   41 1
  43   19   42 1
  44   19   43 1
  45   20   44 1
  46   20   45 1
  47   20   46 1

#	End of record

