#	Name: ASD02038838
#	Creating user name:	WinNT
#	Creation time:	15. 06. 2019 20:17

#	Modifying user name:	WinNT
#	Modification time:	15. 06. 2019 20:17

#	Program:	/corina/corina34_cracker 3.40 0067  02.08.2006

@<TRIPOS>MOLECULE
ASD02038838
  55   58    0    0    0
SMALL
NO_CHARGES


@<TRIPOS>ATOM
   1 C1            -1.2823    -0.8512     0.4656 C.2     
   2 C2            -0.0606    -0.0344     0.3017 C.2     
   3 N3             1.1368    -0.6350     0.1536 N.am    
   4 C4             1.2419    -2.0930     0.2502 C.3     
   5 C5             1.2140    -2.6913    -1.1327 C.ar    
   6 C6             2.3333     0.1702    -0.1039 C.3     
   7 O7            -0.1364     1.1788     0.3005 O.2     
   8 N8            -1.3378    -2.1952     0.4970 N.2     
   9 C9            -2.5932    -2.5286     0.6566 C.2     
  10 N10           -3.3112    -1.3923     0.7237 N.pl3   
  11 N11           -2.5060    -0.3926     0.6123 N.2     
  12 C12            2.3969    -3.0121    -1.7679 C.ar    
  13 C13            2.1214     1.0143    -1.3644 C.3     
  14 C14            3.3441     1.9097    -1.5811 C.3     
  15 O15            3.5438     2.7285    -0.4271 O.3     
  16 C16            3.7938     1.9943     0.7732 C.3     
  17 C17            2.5892     1.1023     1.0844 C.3     
  18 C18            0.0032    -2.9229    -1.7598 C.ar    
  19 C19           -0.0311    -3.4720    -3.0286 C.ar    
  20 C20            1.1469    -3.7931    -3.6769 C.ar    
  21 C21            2.3709    -3.5655    -3.0459 C.ar    
  22 C22            3.6393    -3.9075    -3.7354 C.ar    
  23 C23            3.8056    -5.1661    -4.3099 C.ar    
  24 C24           -4.7631    -1.3064     0.8998 C.3     
  25 F25            1.1133    -4.3300    -4.9162 F       
  26 C26            4.9875    -5.4787    -4.9505 C.ar    
  27 C27            6.0059    -4.5455    -5.0225 C.ar    
  28 C28            5.8462    -3.2946    -4.4541 C.ar    
  29 C29            4.6664    -2.9693    -3.8160 C.ar    
  30 C30            7.2944    -4.8930    -5.7225 C.3     
  31 F31            7.1982    -4.5481    -7.0749 F       
  32 F32            8.3495    -4.1866    -5.1350 F       
  33 F33            7.5318    -6.2669    -5.6074 F       
  34 H34            2.1778    -2.3581     0.7419 H       
  35 H35            0.4042    -2.4800     0.8304 H       
  36 H36            3.1915    -0.4868    -0.2450 H       
  37 H37           -2.9826    -3.5338     0.7223 H       
  38 H38            3.3411    -2.8339    -1.2749 H       
  39 H39            1.9935     0.3579    -2.2251 H       
  40 H40            1.2330     1.6341    -1.2427 H       
  41 H41            4.2252     1.2887    -1.7431 H       
  42 H42            3.1807     2.5435    -2.4527 H       
  43 H43            4.6808     1.3745     0.6420 H       
  44 H44            3.9544     2.6891     1.5975 H       
  45 H45            1.7103     1.7239     1.2556 H       
  46 H46            2.7958     0.5088     1.9750 H       
  47 H47           -0.9194    -2.6741    -1.2564 H       
  48 H48           -0.9794    -3.6507    -3.5135 H       
  49 H49            3.0114    -5.8958    -4.2536 H       
  50 H50           -4.9983    -1.2664     1.9633 H       
  51 H51           -5.1357    -0.4061     0.4112 H       
  52 H52           -5.2354    -2.1827     0.4558 H       
  53 H53            5.1175    -6.4539    -5.3960 H       
  54 H54            6.6447    -2.5699    -4.5130 H       
  55 H55            4.5427    -1.9923    -3.3726 H       
@<TRIPOS>BOND
   1    1    2 1
   2    1    8 1
   3    1   11 2
   4    2    3 am
   5    2    7 2
   6    3    4 1
   7    3    6 1
   8    4    5 1
   9    4   34 1
  10    4   35 1
  11    5   12 ar
  12    5   18 ar
  13    6   13 1
  14    6   17 1
  15    6   36 1
  16    8    9 2
  17    9   10 1
  18    9   37 1
  19   10   11 1
  20   10   24 1
  21   12   21 ar
  22   12   38 1
  23   13   14 1
  24   13   39 1
  25   13   40 1
  26   14   15 1
  27   14   41 1
  28   14   42 1
  29   15   16 1
  30   16   17 1
  31   16   43 1
  32   16   44 1
  33   17   45 1
  34   17   46 1
  35   18   19 ar
  36   18   47 1
  37   19   20 ar
  38   19   48 1
  39   20   21 ar
  40   20   25 1
  41   21   22 1
  42   22   23 ar
  43   22   29 ar
  44   23   26 ar
  45   23   49 1
  46   24   50 1
  47   24   51 1
  48   24   52 1
  49   26   27 ar
  50   26   53 1
  51   27   28 ar
  52   27   30 1
  53   28   29 ar
  54   28   54 1
  55   29   55 1
  56   30   31 1
  57   30   32 1
  58   30   33 1

#	End of record

