#	Name: ASD01720180
#	Creating user name:	WinNT
#	Creation time:	15. 06. 2019 19:23

#	Modifying user name:	WinNT
#	Modification time:	15. 06. 2019 19:23

#	Program:	/corina/corina34_cracker 3.40 0067  02.08.2006

@<TRIPOS>MOLECULE
ASD01720180
  52   55    0    0    0
SMALL
NO_CHARGES


@<TRIPOS>ATOM
   1 C1            -0.3331     1.1759    -0.2830 C.ar    
   2 N2            -0.1463    -0.1353    -0.2895 N.ar    
   3 C3             1.0202    -0.6584     0.0587 C.ar    
   4 N4             2.0408     0.1018     0.4255 N.ar    
   5 C5             1.9231     1.4249     0.4548 C.ar    
   6 C6             0.7069     2.0050     0.0931 C.ar    
   7 N7             2.9963     2.2198     0.8407 N.am    
   8 C8             2.9356     3.6631     1.1183 C.3     
   9 C9             4.3848     4.0253     1.4964 C.3     
  10 O10            5.1026     2.7615     1.3933 O.3     
  11 C11            4.2537     1.7951     1.0262 C.2     
  12 N12            1.1759    -2.0334     0.0390 N.pl3   
  13 C13            0.0587    -2.8914    -0.3633 C.3     
  14 C14            0.2244    -4.2553     0.2558 C.ar    
  15 C15            0.0393    -3.0222    -1.8876 C.3     
  16 C16            1.4657    -4.7184     0.5688 C.ar    
  17 C17            1.6385    -5.9767     1.1417 C.ar    
  18 C18            0.5712    -6.7793     1.4056 C.ar    
  19 C19           -0.7256    -6.3353     1.0969 C.ar    
  20 C20           -0.9018    -5.0532     0.5185 C.ar    
  21 C21            1.9886     3.9464     2.2861 C.3     
  22 C22            2.4885     3.2192     3.5360 C.3     
  23 C23            1.9464     5.4521     2.5547 C.3     
  24 O24            4.5924     0.6386     0.8717 O.2     
  25 C25           -1.8519    -7.1353     1.3552 C.ar    
  26 C26           -3.0928    -6.6719     1.0431 C.ar    
  27 C27           -3.2657    -5.4134     0.4694 C.ar    
  28 C28           -2.1991    -4.6090     0.2100 C.ar    
  29 H29           -1.2862     1.5930    -0.5727 H       
  30 H30            0.5809     3.0775     0.1070 H       
  31 H31            2.6235     4.2111     0.2293 H       
  32 H32            4.7918     4.7541     0.7955 H       
  33 H33            4.4294     4.4080     2.5160 H       
  34 H34            2.0248    -2.4291     0.2916 H       
  35 H35           -0.8787    -2.4501    -0.0246 H       
  36 H36           -0.7919    -3.6606    -2.1870 H       
  37 H37           -0.0806    -2.0357    -2.3355 H       
  38 H38            0.9766    -3.4636    -2.2263 H       
  39 H39            2.3294    -4.1014     0.3696 H       
  40 H40            2.6343    -6.3205     1.3797 H       
  41 H41            0.7204    -7.7524     1.8497 H       
  42 H42            0.9880     3.5937     2.0363 H       
  43 H43            3.4445     3.6422     3.8445 H       
  44 H44            1.7623     3.3378     4.3402 H       
  45 H45            2.6147     2.1596     3.3138 H       
  46 H46            1.6833     5.9776     1.6367 H       
  47 H47            1.2007     5.6637     3.3210 H       
  48 H48            2.9252     5.7875     2.8977 H       
  49 H49           -1.7332    -8.1128     1.7987 H       
  50 H50           -3.9566    -7.2887     1.2426 H       
  51 H51           -4.2614    -5.0699     0.2308 H       
  52 H52           -2.3486    -3.6346    -0.2312 H       
@<TRIPOS>BOND
   1    1    2 ar
   2    1    6 ar
   3    1   29 1
   4    2    3 ar
   5    3    4 ar
   6    3   12 1
   7    4    5 ar
   8    5    6 ar
   9    5    7 1
  10    6   30 1
  11    7    8 1
  12    7   11 am
  13    8    9 1
  14    8   21 1
  15    8   31 1
  16    9   10 1
  17    9   32 1
  18    9   33 1
  19   10   11 1
  20   11   24 2
  21   12   13 1
  22   12   34 1
  23   13   14 1
  24   13   15 1
  25   13   35 1
  26   14   16 ar
  27   14   20 ar
  28   15   36 1
  29   15   37 1
  30   15   38 1
  31   16   17 ar
  32   16   39 1
  33   17   18 ar
  34   17   40 1
  35   18   19 ar
  36   18   41 1
  37   19   20 ar
  38   19   25 ar
  39   20   28 ar
  40   21   22 1
  41   21   23 1
  42   21   42 1
  43   22   43 1
  44   22   44 1
  45   22   45 1
  46   23   46 1
  47   23   47 1
  48   23   48 1
  49   25   26 ar
  50   25   49 1
  51   26   27 ar
  52   26   50 1
  53   27   28 ar
  54   27   51 1
  55   28   52 1

#	End of record

