#	Name: ASD03091018
#	Creating user name:	WinNT
#	Creation time:	15. 06. 2019 20:29

#	Modifying user name:	WinNT
#	Modification time:	15. 06. 2019 20:29

#	Program:	/corina/corina34_cracker 3.40 0067  02.08.2006

@<TRIPOS>MOLECULE
ASD03091018
  46   48    0    0    0
SMALL
NO_CHARGES


@<TRIPOS>ATOM
   1 C1            -0.0520     1.5756    -0.7050 C.2     
   2 C2            -0.0452     0.0982    -1.0021 C.3     
   3 C3             1.3933    -0.3688    -1.2333 C.3     
   4 C4             2.2256    -0.0971     0.0215 C.3     
   5 O5             0.9934     2.1955    -0.6804 O.2     
   6 N6            -1.2030     2.2027    -0.4748 N.2     
   7 S7             0.2179     4.5421    -0.1347 S.3     
   8 C8            -1.2090     3.5044    -0.2130 C.2     
   9 N9            -2.3075     4.2499     0.0358 N.pl3   
  10 C10           -2.0996     5.6565     0.2985 C.3     
  11 C11           -0.6435     6.0415     0.2436 C.2     
  12 O12           -7.3829     2.0403     0.0320 O.3     
  13 C13           -7.5828     0.8516     0.8046 C.3     
  14 C14           -6.9392     1.0603     2.1821 C.3     
  15 O15           -5.5434     1.3146     1.9906 O.3     
  16 C16           -5.2122     2.2134     1.0235 C.ar    
  17 C17           -6.1300     2.5743     0.0433 C.ar    
  18 C18           -3.9432     2.7706     1.0201 C.ar    
  19 C19           -3.5894     3.6864     0.0387 C.ar    
  20 C20           -4.5073     4.0435    -0.9396 C.ar    
  21 C21           -5.7726     3.4885    -0.9362 C.ar    
  22 F22           -7.5348     2.1534     2.8205 F       
  23 F23           -7.1068    -0.0902     2.9603 F       
  24 F24           -8.9528     0.6116     0.9553 F       
  25 F25           -6.9805    -0.2355     0.1622 F       
  26 C26           -0.1226     7.2390     0.4364 C.2     
  27 C27            1.4003    -1.8688    -1.5349 C.3     
  28 C28            1.9926     0.3923    -2.4175 C.3     
  29 H29           -0.4721    -0.4440    -0.1584 H       
  30 H30           -0.6381    -0.0953    -1.8960 H       
  31 H31            1.7987    -0.6394     0.8651 H       
  32 H32            3.2504    -0.4299    -0.1432 H       
  33 H33            2.2207     0.9715     0.2364 H       
  34 H34           -2.6472     6.2389    -0.4425 H       
  35 H35           -2.4903     5.8925     1.2883 H       
  36 H36           -3.2296     2.4928     1.7818 H       
  37 H37           -4.2321     4.7551    -1.7039 H       
  38 H38           -6.4852     3.7675    -1.6984 H       
  39 H39            0.9458     7.3806     0.3679 H       
  40 H40           -0.7650     8.0772     0.6628 H       
  41 H41            0.8073    -2.0624    -2.4288 H       
  42 H42            2.4251    -2.2015    -1.6996 H       
  43 H43            0.9733    -2.4111    -0.6913 H       
  44 H44            1.9877     1.4609    -2.2026 H       
  45 H45            3.0174     0.0596    -2.5822 H       
  46 H46            1.3997     0.1987    -3.3114 H       
@<TRIPOS>BOND
   1    1    2 1
   2    1    5 2
   3    1    6 1
   4    2    3 1
   5    2   29 1
   6    2   30 1
   7    3    4 1
   8    3   27 1
   9    3   28 1
  10    4   31 1
  11    4   32 1
  12    4   33 1
  13    6    8 2
  14    7    8 1
  15    7   11 1
  16    8    9 1
  17    9   10 1
  18    9   19 1
  19   10   11 1
  20   10   34 1
  21   10   35 1
  22   11   26 2
  23   12   13 1
  24   12   17 1
  25   13   14 1
  26   13   24 1
  27   13   25 1
  28   14   15 1
  29   14   22 1
  30   14   23 1
  31   15   16 1
  32   16   17 ar
  33   16   18 ar
  34   17   21 ar
  35   18   19 ar
  36   18   36 1
  37   19   20 ar
  38   20   21 ar
  39   20   37 1
  40   21   38 1
  41   26   39 1
  42   26   40 1
  43   27   41 1
  44   27   42 1
  45   27   43 1
  46   28   44 1
  47   28   45 1
  48   28   46 1

#	End of record

