#	Name: ASD03090458
#	Creating user name:	WinNT
#	Creation time:	15. 06. 2019 20:28

#	Modifying user name:	WinNT
#	Modification time:	15. 06. 2019 20:28

#	Program:	/corina/corina34_cracker 3.40 0067  02.08.2006

@<TRIPOS>MOLECULE
ASD03090458
  43   45    0    0    0
SMALL
NO_CHARGES


@<TRIPOS>ATOM
   1 C1            -0.0186     1.5023     0.0155 C.2     
   2 C2             0.0014    -0.0045     0.0124 C.3     
   3 O3             1.0237     2.1227     0.0094 O.2     
   4 N4            -1.1946     2.1607     0.0195 N.am    
   5 C5            -1.2153     3.5571     0.1329 C.ar    
   6 C6            -2.1836     4.2939    -0.5360 C.ar    
   7 C7            -2.2037     5.6700    -0.4234 C.ar    
   8 C8            -1.2567     6.3163     0.3575 C.ar    
   9 C9            -0.2887     5.5808     1.0257 C.ar    
  10 C10           -0.2712     4.2041     0.9189 C.ar    
  11 O11           -1.2768     7.6714     0.4676 O.3     
  12 C12           -0.2720     8.2707     1.2881 C.3     
  13 C13           -0.4542     9.7898     1.2900 C.3     
  14 C14            0.6217    10.4314     2.1685 C.3     
  15 N15            4.2721    -1.4535    -2.2206 N.pl3   
  16 C16            5.4642    -1.8571    -1.6838 C.2     
  17 C17            5.3942    -1.8320    -0.3434 C.2     
  18 C18            4.0472    -1.3750     0.0066 C.ar    
  19 C19            3.3823    -1.1483     1.2133 C.ar    
  20 C20            2.0880    -0.7108     1.2027 C.ar    
  21 C21            1.4287    -0.4880     0.0014 C.ar    
  22 C22            2.0658    -0.7048    -1.2004 C.ar    
  23 C23            3.3835    -1.1512    -1.2133 C.ar    
  24 H24           -0.5013    -0.3764     0.9053 H       
  25 H25           -0.5139    -0.3729    -0.8747 H       
  26 H26           -2.0266     1.6678    -0.0562 H       
  27 H27           -2.9205     3.7909    -1.1445 H       
  28 H28           -2.9568     6.2433    -0.9436 H       
  29 H29            0.4487     6.0846     1.6328 H       
  30 H30            0.4797     3.6313     1.4427 H       
  31 H31           -0.3614     7.8927     2.3065 H       
  32 H32            0.7138     8.0235     0.8941 H       
  33 H33           -0.3647    10.1677     0.2715 H       
  34 H34           -1.4400    10.0370     1.6840 H       
  35 H35            0.4919    11.5136     2.1698 H       
  36 H36            0.5322    10.0534     3.1869 H       
  37 H37            1.6075    10.1842     1.7745 H       
  38 H38            4.0825    -1.3863    -3.1696 H       
  39 H39            6.3326    -2.1524    -2.2539 H       
  40 H40            6.1817    -2.0983     0.3460 H       
  41 H41            3.8888    -1.3195     2.1517 H       
  42 H42            1.5740    -0.5360     2.1363 H       
  43 H43            1.5443    -0.5289    -2.1296 H       
@<TRIPOS>BOND
   1    1    2 1
   2    1    3 2
   3    1    4 am
   4    2   21 1
   5    2   24 1
   6    2   25 1
   7    4    5 1
   8    4   26 1
   9    5    6 ar
  10    5   10 ar
  11    6    7 ar
  12    6   27 1
  13    7    8 ar
  14    7   28 1
  15    8    9 ar
  16    8   11 1
  17    9   10 ar
  18    9   29 1
  19   10   30 1
  20   11   12 1
  21   12   13 1
  22   12   31 1
  23   12   32 1
  24   13   14 1
  25   13   33 1
  26   13   34 1
  27   14   35 1
  28   14   36 1
  29   14   37 1
  30   15   16 1
  31   15   23 1
  32   15   38 1
  33   16   17 2
  34   16   39 1
  35   17   18 1
  36   17   40 1
  37   18   19 ar
  38   18   23 ar
  39   19   20 ar
  40   19   41 1
  41   20   21 ar
  42   20   42 1
  43   21   22 ar
  44   22   23 ar
  45   22   43 1

#	End of record

