#	Name: ASD01900210
#	Creating user name:	WinNT
#	Creation time:	15. 06. 2019 19:51

#	Modifying user name:	WinNT
#	Modification time:	15. 06. 2019 19:51

#	Program:	/corina/corina34_cracker 3.40 0067  02.08.2006

@<TRIPOS>MOLECULE
ASD01900210
  46   49    0    0    0
SMALL
NO_CHARGES


@<TRIPOS>ATOM
   1 C1            -0.0168     1.3887     0.0097 C.ar    
   2 C2             0.0021    -0.0041     0.0020 C.ar    
   3 C3            -1.2003    -0.6938     0.0103 C.ar    
   4 C4            -2.3798     0.0338     0.0259 C.ar    
   5 C5            -2.3237     1.4186     0.0328 C.ar    
   6 N6            -1.1690     2.0478     0.0297 N.ar    
   7 C7             1.2594     2.1406     0.0015 C.2     
   8 O8             2.3173     1.5421    -0.0118 O.2     
   9 N9             1.2477     3.4883     0.0089 N.am    
  10 C10            2.4592     4.2021     0.0011 C.2     
  11 C11            3.7581     3.6467    -0.0147 C.2     
  12 C12            4.6358     4.6702    -0.0179 C.2     
  13 N13            3.9336     5.8385    -0.0047 N.am    
  14 C14            2.5970     5.5485     0.0016 C.2     
  15 S15            4.5906     7.3586    -0.0025 S.o2    
  16 O16            3.6082     8.2195     0.5568 O.2     
  17 O17            5.9023     7.2280     0.5281 O.2     
  18 C18            4.7807     7.8470    -1.6847 C.ar    
  19 C19            3.7574     8.5123    -2.3286 C.ar    
  20 C20            5.9578     7.5679    -2.3559 C.ar    
  21 C21            6.1141     7.9492    -3.6761 C.ar    
  22 C22            5.0950     8.6105    -4.3315 C.ar    
  23 C23            3.9093     8.8984    -3.6590 C.ar    
  24 C24            2.8101     9.6087    -4.3583 C.ar    
  25 C25            2.9600     9.9902    -5.6901 C.ar    
  26 C26            1.6221     9.8916    -3.6874 C.ar    
  27 C27            0.6030    10.5526    -4.3428 C.ar    
  28 C28            0.7592    10.9336    -5.6633 C.ar    
  29 C29            1.9344    10.6507    -6.3357 C.ar    
  30 H30            0.9402    -0.5390    -0.0105 H       
  31 H31           -1.2176    -1.7736     0.0043 H       
  32 H32           -3.3333    -0.4733     0.0323 H       
  33 H33           -3.2409     1.9887     0.0446 H       
  34 H34            0.4034     3.9659     0.0195 H       
  35 H35            4.0031     2.5949    -0.0223 H       
  36 H36            5.7119     4.5797    -0.0285 H       
  37 H37            1.7920     6.2683     0.0118 H       
  38 H38            2.8404     8.7330    -1.8025 H       
  39 H39            6.7577     7.0506    -1.8470 H       
  40 H40            7.0353     7.7294    -4.1952 H       
  41 H41            5.2181     8.9078    -5.3624 H       
  42 H42            3.8772     9.7698    -6.2160 H       
  43 H43            1.4988     9.5939    -2.6566 H       
  44 H44           -0.3182    10.7723    -3.8237 H       
  45 H45           -0.0411    11.4500    -6.1725 H       
  46 H46            2.0511    10.9504    -7.3667 H       
@<TRIPOS>BOND
   1    1    2 ar
   2    1    7 1
   3    1    6 ar
   4    2    3 ar
   5    2   30 1
   6    3    4 ar
   7    3   31 1
   8    4    5 ar
   9    4   32 1
  10    5    6 ar
  11    5   33 1
  12    7    8 2
  13    7    9 am
  14    9   10 1
  15    9   34 1
  16   10   11 1
  17   10   14 2
  18   11   12 2
  19   11   35 1
  20   12   13 1
  21   12   36 1
  22   13   14 1
  23   13   15 am
  24   14   37 1
  25   15   16 2
  26   15   17 2
  27   15   18 1
  28   18   19 ar
  29   18   20 ar
  30   19   23 ar
  31   19   38 1
  32   20   21 ar
  33   20   39 1
  34   21   22 ar
  35   21   40 1
  36   22   23 ar
  37   22   41 1
  38   23   24 1
  39   24   25 ar
  40   24   26 ar
  41   25   29 ar
  42   25   42 1
  43   26   27 ar
  44   26   43 1
  45   27   28 ar
  46   27   44 1
  47   28   29 ar
  48   28   45 1
  49   29   46 1

#	End of record

