#	Name: ASD01410052
#	Creating user name:	WinNT
#	Creation time:	15. 06. 2019 19:16

#	Modifying user name:	WinNT
#	Modification time:	15. 06. 2019 19:16

#	Program:	/corina/corina34_cracker 3.40 0067  02.08.2006

@<TRIPOS>MOLECULE
ASD01410052
  39   40    0    0    0
SMALL
NO_CHARGES


@<TRIPOS>ATOM
   1 C1             0.4038     1.0908    -0.0903 C.ar    
   2 C2             0.1451    -0.2612    -0.0389 C.ar    
   3 C3            -1.1792    -0.7177    -0.0015 C.ar    
   4 C4            -2.2344     0.2122    -0.0168 C.ar    
   5 C5            -1.9524     1.5711    -0.0688 C.ar    
   6 C6            -0.6424     2.0058    -0.0999 C.ar    
   7 N7            -3.5510    -0.2261     0.0193 N.pl3   
   8 C8            -4.6437     0.7445     0.1210 C.3     
   9 C9            -5.9626     0.0158     0.1417 C.2     
  10 N10           -7.1145     0.7097     0.2312 N.am    
  11 C11           -8.3357     0.0479     0.1308 C.ar    
  12 C12           -8.4226    -1.1554    -0.5558 C.ar    
  13 C13           -9.6343    -1.8098    -0.6542 C.ar    
  14 C14          -10.7706    -1.2734    -0.0710 C.ar    
  15 C15          -10.7038    -0.0797     0.6147 C.ar    
  16 C16           -9.4837     0.5913     0.7283 C.ar    
  17 C17           -9.4049     1.8679     1.4605 C.2     
  18 O18          -10.4880     2.3417     2.1072 O.3     
  19 O19           -8.3632     2.4932     1.4812 O.2     
  20 O20           -5.9875    -1.1950     0.0778 O.2     
  21 C21           -1.4630    -2.1548     0.0527 C.2     
  22 F22            1.6810     1.5298    -0.1258 F       
  23 C23           -0.3366    -3.1500    -0.0561 C.3     
  24 O24           -2.6048    -2.5431     0.1852 O.2     
  25 Br25          -0.2692     3.8583    -0.1707 Br      
  26 H26            0.9615    -0.9682    -0.0278 H       
  27 H27           -2.7591     2.2890    -0.0811 H       
  28 H28           -3.7476    -1.1750    -0.0227 H       
  29 H29           -4.5329     1.3214     1.0392 H       
  30 H30           -4.6134     1.4168    -0.7364 H       
  31 H31           -7.0930     1.6701     0.3656 H       
  32 H32           -7.5415    -1.5799    -1.0138 H       
  33 H33           -9.6967    -2.7458    -1.1894 H       
  34 H34          -11.7137    -1.7930    -0.1544 H       
  35 H35          -11.5928     0.3343     1.0672 H       
  36 H36          -10.3879     3.1829     2.5734 H       
  37 H37            0.6083    -2.6183    -0.1691 H       
  38 H38           -0.3037    -3.7616     0.8455 H       
  39 H39           -0.4994    -3.7897    -0.9234 H       
@<TRIPOS>BOND
   1    1    2 ar
   2    1   22 1
   3    1    6 ar
   4    2    3 ar
   5    2   26 1
   6    3    4 ar
   7    3   21 1
   8    4    5 ar
   9    4    7 1
  10    5    6 ar
  11    5   27 1
  12    6   25 1
  13    7    8 1
  14    7   28 1
  15    8    9 1
  16    8   29 1
  17    8   30 1
  18    9   10 am
  19    9   20 2
  20   10   11 1
  21   10   31 1
  22   11   12 ar
  23   11   16 ar
  24   12   13 ar
  25   12   32 1
  26   13   14 ar
  27   13   33 1
  28   14   15 ar
  29   14   34 1
  30   15   16 ar
  31   15   35 1
  32   16   17 1
  33   17   18 1
  34   17   19 2
  35   18   36 1
  36   21   23 1
  37   21   24 2
  38   23   37 1
  39   23   38 1
  40   23   39 1

#	End of record

