#	Name: ASD01901571
#	Creating user name:	WinNT
#	Creation time:	15. 06. 2019 19:54

#	Modifying user name:	WinNT
#	Modification time:	15. 06. 2019 19:54

#	Program:	/corina/corina34_cracker 3.40 0067  02.08.2006

@<TRIPOS>MOLECULE
ASD01901571
  56   60    0    0    0
SMALL
NO_CHARGES


@<TRIPOS>ATOM
   1 C1            -0.0178     1.4608     0.0101 C.3     
   2 N2             0.0021    -0.0041     0.0020 N.am    
   3 C3             0.0055    -0.6596    -1.1700 C.2     
   4 O4             0.0972    -0.0266    -2.2034 O.2     
   5 N5            -0.0896    -1.9984    -1.2276 N.am    
   6 C6            -0.4309    -2.7160    -0.1417 C.2     
   7 O7            -0.4334    -3.9274    -0.1914 O.2     
   8 C8            -0.8098    -2.0128     1.1374 C.3     
   9 C9             0.0240    -0.7326     1.2718 C.3     
  10 C10           -0.5678     0.1474     2.3747 C.3     
  11 C11            1.4459    -1.0881     1.6222 C.2     
  12 C12            1.8585    -2.2094     2.3494 C.2     
  13 N13            3.1627    -2.1750     2.4487 N.2     
  14 N14            3.6219    -1.0289     1.7869 N.pl3   
  15 C15            2.5496    -0.3821     1.2839 C.2     
  16 C16            5.0197    -0.6097     1.6585 C.3     
  17 C17            5.2877     0.8386     1.2444 C.3     
  18 C18            5.5537     0.3927     2.6836 C.3     
  19 C19            0.1702    -2.6580    -2.4377 C.ar    
  20 C20           -0.8636    -2.8836    -3.3409 C.ar    
  21 F21           -2.1156    -2.4669    -3.0513 F       
  22 C22           -0.6115    -3.5323    -4.5326 C.ar    
  23 C23            0.6843    -3.9628    -4.8316 C.ar    
  24 C24            1.7205    -3.7343    -3.9217 C.ar    
  25 C25            1.4623    -3.0800    -2.7345 C.ar    
  26 F26            2.4642    -2.8539    -1.8569 F       
  27 C27            0.9495    -4.6366    -6.0670 C.1     
  28 C28            1.1670    -5.1890    -7.0799 C.1     
  29 C29            1.4322    -5.8629    -8.3152 C.ar    
  30 C30            0.3986    -6.0875    -9.2285 C.ar    
  31 C31            0.6616    -6.7372   -10.4163 C.ar    
  32 C32            1.9452    -7.1663   -10.7047 C.ar    
  33 C33            2.9737    -6.9478    -9.8050 C.ar    
  34 C34            2.7271    -6.2940    -8.6160 C.ar    
  35 H35            1.0048     1.8381     0.0023 H       
  36 H36           -0.5450     1.8219    -0.8730 H       
  37 H37           -0.5280     1.8123     0.9069 H       
  38 H38           -1.8698    -1.7598     1.1137 H       
  39 H39           -0.6095    -2.6670     1.9859 H       
  40 H40           -1.5962     0.4050     2.1213 H       
  41 H41           -0.5516    -0.3949     3.3201 H       
  42 H42            0.0226     1.0588     2.4684 H       
  43 H43            1.2122    -2.9720     2.7583 H       
  44 H44            2.5687     0.5361     0.7155 H       
  45 H45            5.7079    -1.3729     1.2951 H       
  46 H46            6.1523     1.0285     0.6084 H       
  47 H47            4.4240     1.4796     1.0676 H       
  48 H48            4.8649     0.7403     3.4536 H       
  49 H49            6.5933     0.2892     2.9945 H       
  50 H50           -1.4146    -3.7074    -5.2332 H       
  51 H51            2.7229    -4.0658    -4.1494 H       
  52 H52           -0.6037    -5.7535    -9.0046 H       
  53 H53           -0.1362    -6.9119   -11.1229 H       
  54 H54            2.1453    -7.6746   -11.6364 H       
  55 H55            3.9730    -7.2858   -10.0367 H       
  56 H56            3.5317    -6.1196    -7.9170 H       
@<TRIPOS>BOND
   1    1    2 1
   2    1   35 1
   3    1   36 1
   4    1   37 1
   5    2    9 1
   6    2    3 am
   7    3    4 2
   8    3    5 am
   9    5    6 am
  10    5   19 1
  11    6    7 2
  12    6    8 1
  13    8    9 1
  14    8   38 1
  15    8   39 1
  16    9   10 1
  17    9   11 1
  18   10   40 1
  19   10   41 1
  20   10   42 1
  21   11   15 2
  22   11   12 1
  23   12   13 2
  24   12   43 1
  25   13   14 1
  26   14   15 1
  27   14   16 1
  28   15   44 1
  29   16   18 1
  30   16   17 1
  31   16   45 1
  32   17   18 1
  33   17   46 1
  34   17   47 1
  35   18   48 1
  36   18   49 1
  37   19   25 ar
  38   19   20 ar
  39   20   21 1
  40   20   22 ar
  41   22   23 ar
  42   22   50 1
  43   23   24 ar
  44   23   27 1
  45   24   25 ar
  46   24   51 1
  47   25   26 1
  48   27   28 3
  49   28   29 1
  50   29   34 ar
  51   29   30 ar
  52   30   31 ar
  53   30   52 1
  54   31   32 ar
  55   31   53 1
  56   32   33 ar
  57   32   54 1
  58   33   34 ar
  59   33   55 1
  60   34   56 1

#	End of record

