#	Name: ASD09740047
#	Creating user name:	WinNT
#	Creation time:	15. 06. 2019 21:22

#	Modifying user name:	WinNT
#	Modification time:	15. 06. 2019 21:22

#	Program:	/corina/corina34_cracker 3.40 0067  02.08.2006

@<TRIPOS>MOLECULE
ASD09740047
  70   73    0    0    0
SMALL
NO_CHARGES


@<TRIPOS>ATOM
   1 N1            -0.4564     0.5023     0.8047 N.2     
   2 O2            -0.5178    -0.6976     0.9694 O.3     
   3 C3             0.7915     0.8859     0.7135 C.2     
   4 N4             1.5616    -0.2151     0.8388 N.2     
   5 C5             0.7189    -1.2186     1.0013 C.2     
   6 C6             1.0698    -2.6416     1.1834 C.ar    
   7 C7             1.2712     2.2753     0.5095 C.ar    
   8 C8             2.4090    -3.0359     1.1949 C.ar    
   9 C9             0.0624    -3.5951     1.3503 C.ar    
  10 C10            0.3958    -4.9250     1.5207 C.ar    
  11 C11            1.7347    -5.3127     1.5259 C.ar    
  12 C12            2.7350    -4.3649     1.3655 C.ar    
  13 O13            2.0610    -6.6209     1.6936 O.3     
  14 O14           -0.5823    -5.8557     1.6839 O.3     
  15 C15            2.6434     2.5358     0.4307 C.ar    
  16 C16            3.1014     3.8076     0.2438 C.ar    
  17 C17            2.2036     4.8657     0.1290 C.ar    
  18 C18            0.8205     4.6155     0.2063 C.ar    
  19 C19            0.3575     3.3133     0.3916 C.ar    
  20 C20            3.4519    -6.9484     1.6887 C.3     
  21 C21            3.6217    -8.4556     1.8893 C.3     
  22 C22           -1.9324    -5.3876     1.6685 C.3     
  23 C23           -2.8842    -6.5692     1.8651 C.3     
  24 N24            2.3601     6.2200    -0.0584 N.pl3   
  25 C25            1.1358     6.8294    -0.1019 C.2     
  26 C26            0.1641     5.9164     0.0517 C.2     
  27 C27           -1.3198     6.1791     0.0627 C.3     
  28 N28           -1.8011     6.2116     1.4502 N.3     
  29 C29           -3.2470     6.4661     1.5001 C.3     
  30 C30           -3.7102     6.4927     2.9580 C.3     
  31 N31           -5.1562     6.7473     3.0079 N.3     
  32 C32           -5.6796     6.5463     4.3657 C.3     
  33 C33           -5.4706     8.0955     2.5166 C.3     
  34 C34           -6.9665     8.1904     2.2096 C.3     
  35 C35           -5.7839     5.0476     4.6554 C.3     
  36 H36            3.1896    -2.3002     1.0699 H       
  37 H37           -0.9745    -3.2933     1.3464 H       
  38 H38            3.7713    -4.6691     1.3701 H       
  39 H39            3.3477     1.7218     0.5190 H       
  40 H40            4.1636     3.9940     0.1852 H       
  41 H41           -0.7026     3.1154     0.4517 H       
  42 H42            3.8904    -6.6572     0.7342 H       
  43 H43            3.9535    -6.4155     2.4965 H       
  44 H44            3.1833    -8.7468     2.8439 H       
  45 H45            3.1201    -8.9885     1.0815 H       
  46 H46            4.6827    -8.7054     1.8856 H       
  47 H47           -2.0763    -4.6672     2.4737 H       
  48 H48           -2.1401    -4.9091     0.7114 H       
  49 H49           -3.9140    -6.2122     1.8534 H       
  50 H50           -2.7402    -7.2896     1.0599 H       
  51 H51           -2.6764    -7.0478     2.8222 H       
  52 H52            3.2122     6.6752    -0.1463 H       
  53 H53            0.9750     7.8885    -0.2398 H       
  54 H54           -1.5226     7.1378    -0.4148 H       
  55 H55           -1.8332     5.3864    -0.4815 H       
  56 H56           -1.5674     5.3576     1.9341 H       
  57 H57           -3.4632     7.4268     1.0326 H       
  58 H58           -3.7738     5.6754     0.9659 H       
  59 H59           -3.4941     5.5321     3.4255 H       
  60 H60           -3.1835     7.2835     3.4922 H       
  61 H61           -5.0064     7.0098     5.0869 H       
  62 H62           -6.6668     7.0015     4.4456 H       
  63 H63           -5.2087     8.8300     3.2782 H       
  64 H64           -4.9002     8.2938     1.6092 H       
  65 H65           -7.5345     8.0848     3.1339 H       
  66 H66           -7.1840     9.1584     1.7581 H       
  67 H67           -7.2466     7.3958     1.5181 H       
  68 H68           -6.5219     4.5995     3.9901 H       
  69 H69           -4.8142     4.5775     4.4918 H       
  70 H70           -6.0901     4.8982     5.6908 H       
@<TRIPOS>BOND
   1    1    2 1
   2    1    3 2
   3    2    5 1
   4    3    4 1
   5    3    7 1
   6    4    5 2
   7    5    6 1
   8    6    8 ar
   9    6    9 ar
  10    7   15 ar
  11    7   19 ar
  12    8   12 ar
  13    8   36 1
  14    9   10 ar
  15    9   37 1
  16   10   11 ar
  17   10   14 1
  18   11   12 ar
  19   11   13 1
  20   12   38 1
  21   13   20 1
  22   14   22 1
  23   15   16 ar
  24   15   39 1
  25   16   17 ar
  26   16   40 1
  27   17   18 ar
  28   17   24 1
  29   18   19 ar
  30   18   26 1
  31   19   41 1
  32   20   21 1
  33   20   42 1
  34   20   43 1
  35   21   44 1
  36   21   45 1
  37   21   46 1
  38   22   23 1
  39   22   47 1
  40   22   48 1
  41   23   49 1
  42   23   50 1
  43   23   51 1
  44   24   25 1
  45   24   52 1
  46   25   26 2
  47   25   53 1
  48   26   27 1
  49   27   28 1
  50   27   54 1
  51   27   55 1
  52   28   29 1
  53   28   56 1
  54   29   30 1
  55   29   57 1
  56   29   58 1
  57   30   31 1
  58   30   59 1
  59   30   60 1
  60   31   32 1
  61   31   33 1
  62   32   35 1
  63   32   61 1
  64   32   62 1
  65   33   34 1
  66   33   63 1
  67   33   64 1
  68   34   65 1
  69   34   66 1
  70   34   67 1
  71   35   68 1
  72   35   69 1
  73   35   70 1

#	End of record

