#	Name: ASD05940127
#	Creating user name:	WinNT
#	Creation time:	15. 06. 2019 21:04

#	Modifying user name:	WinNT
#	Modification time:	15. 06. 2019 21:04

#	Program:	/corina/corina34_cracker 3.40 0067  02.08.2006

@<TRIPOS>MOLECULE
ASD05940127
  67   69    0    0    0
SMALL
NO_CHARGES


@<TRIPOS>ATOM
   1 O1            -1.2785    -2.1515    -1.1652 O.3     
   2 C2             0.1322    -1.9795    -1.0155 C.3     
   3 C3             0.4845    -0.4985    -1.1679 C.3     
   4 N4             0.1055    -0.0407    -2.5113 N.3     
   5 C5             0.0740     1.4264    -2.5782 C.3     
   6 C6             1.0071    -0.5949    -3.5301 C.3     
   7 C7             0.4508    -0.3104    -4.9015 C.2     
   8 C8             0.7163     0.8219    -5.6786 C.2     
   9 C9             1.6105     1.9708    -5.2895 C.3     
  10 C10           -0.3893    -1.1078    -5.6011 C.2     
  11 N11           -0.6508    -0.4990    -6.7766 N.pl3   
  12 N12            0.0548     0.7109    -6.8020 N.2     
  13 C13           -0.9343    -2.4380    -5.1488 C.3     
  14 C14            0.5611    -2.4658     0.3703 C.3     
  15 O15            0.3391    -3.8739     0.4709 O.3     
  16 C16            0.6697    -4.4681     1.6475 C.ar    
  17 C17            0.4806    -5.8324     1.8141 C.ar    
  18 C18            0.8174    -6.4341     3.0111 C.ar    
  19 C19            1.3427    -5.6778     4.0426 C.ar    
  20 C20            1.5317    -4.3179     3.8792 C.ar    
  21 C21            1.2022    -3.7126     2.6820 C.ar    
  22 C22           -1.5165    -1.0143    -7.8403 C.3     
  23 C23            1.7093    -6.3368     5.3474 C.3     
  24 C24            3.1647    -6.8052     5.2909 C.3     
  25 O25            3.5123    -7.4301     6.5282 O.3     
  26 C26            4.8586    -7.9064     6.5807 C.3     
  27 C27           -2.9272    -0.5337    -7.6167 C.ar    
  28 C28           -3.3465     0.6609    -8.1716 C.ar    
  29 C29           -4.6406     1.1018    -7.9665 C.ar    
  30 C30           -5.5154     0.3477    -7.2070 C.ar    
  31 C31           -5.0964    -0.8474    -6.6529 C.ar    
  32 C32           -3.8037    -1.2904    -6.8616 C.ar    
  33 H33           -1.8051    -1.6648    -0.5165 H       
  34 H34            0.6518    -2.5571    -1.7801 H       
  35 H35           -0.0558     0.0823    -0.4203 H       
  36 H36            1.5569    -0.3637    -1.0272 H       
  37 H37            1.0810     1.8184    -2.4354 H       
  38 H38           -0.3023     1.7377    -3.5527 H       
  39 H39           -0.5801     1.8118    -1.7961 H       
  40 H40            1.9904    -0.1345    -3.4342 H       
  41 H41            1.0951    -1.6723    -3.3901 H       
  42 H42            2.6286     1.7674    -5.6215 H       
  43 H43            1.2512     2.8862    -5.7596 H       
  44 H44            1.5986     2.0898    -4.2061 H       
  45 H45           -1.8714    -2.2837    -4.6138 H       
  46 H46           -1.1120    -3.0722    -6.0173 H       
  47 H47           -0.2139    -2.9202    -4.4881 H       
  48 H48            1.6199    -2.2534     0.5184 H       
  49 H49           -0.0230    -1.9506     1.1329 H       
  50 H50            0.0700    -6.4234     1.0088 H       
  51 H51            0.6701    -7.4960     3.1415 H       
  52 H52            1.9415    -3.7293     4.6867 H       
  53 H53            1.3501    -2.6503     2.5548 H       
  54 H54           -1.1591    -0.6555    -8.8055 H       
  55 H55           -1.4977    -2.1041    -7.8281 H       
  56 H56            1.5889    -5.6223     6.1617 H       
  57 H57            1.0580    -7.1942     5.5170 H       
  58 H58            3.2851    -7.5197     4.4766 H       
  59 H59            3.8160    -5.9478     5.1213 H       
  60 H60            5.0142    -8.6437     5.7931 H       
  61 H61            5.5451    -7.0718     6.4378 H       
  62 H62            5.0435    -8.3669     7.5512 H       
  63 H63           -2.6630     1.2501    -8.7650 H       
  64 H64           -4.9679     2.0355    -8.3994 H       
  65 H65           -6.5262     0.6925    -7.0462 H       
  66 H66           -5.7798    -1.4364    -6.0592 H       
  67 H67           -3.4763    -2.2241    -6.4287 H       
@<TRIPOS>BOND
   1    1    2 1
   2    1   33 1
   3    2    3 1
   4    2   14 1
   5    2   34 1
   6    3    4 1
   7    3   35 1
   8    3   36 1
   9    4    5 1
  10    4    6 1
  11    5   37 1
  12    5   38 1
  13    5   39 1
  14    6    7 1
  15    6   40 1
  16    6   41 1
  17    7    8 1
  18    7   10 2
  19    8    9 1
  20    8   12 2
  21    9   42 1
  22    9   43 1
  23    9   44 1
  24   10   11 1
  25   10   13 1
  26   11   12 1
  27   11   22 1
  28   13   45 1
  29   13   46 1
  30   13   47 1
  31   14   15 1
  32   14   48 1
  33   14   49 1
  34   15   16 1
  35   16   17 ar
  36   16   21 ar
  37   17   18 ar
  38   17   50 1
  39   18   19 ar
  40   18   51 1
  41   19   20 ar
  42   19   23 1
  43   20   21 ar
  44   20   52 1
  45   21   53 1
  46   22   27 1
  47   22   54 1
  48   22   55 1
  49   23   24 1
  50   23   56 1
  51   23   57 1
  52   24   25 1
  53   24   58 1
  54   24   59 1
  55   25   26 1
  56   26   60 1
  57   26   61 1
  58   26   62 1
  59   27   28 ar
  60   27   32 ar
  61   28   29 ar
  62   28   63 1
  63   29   30 ar
  64   29   64 1
  65   30   31 ar
  66   30   65 1
  67   31   32 ar
  68   31   66 1
  69   32   67 1

#	End of record

