#	Name: ASD01120103
#	Creating user name:	WinNT
#	Creation time:	15. 06. 2019 18:59

#	Modifying user name:	WinNT
#	Modification time:	15. 06. 2019 18:59

#	Program:	/corina/corina34_cracker 3.40 0067  02.08.2006

@<TRIPOS>MOLECULE
ASD01120103
  36   38    0    0    0
SMALL
NO_CHARGES


@<TRIPOS>ATOM
   1 C1            -0.0125     1.2590     0.7147 C.ar    
   2 C2            -1.1216     1.5451     1.4896 C.ar    
   3 C3            -2.3119     0.8816     1.2660 C.ar    
   4 C4            -2.3945    -0.0740     0.2611 C.ar    
   5 C5            -1.2786    -0.3586    -0.5158 C.ar    
   6 C6            -0.0927     0.3122    -0.2900 C.ar    
   7 N7            -3.5974    -0.7477     0.0324 N.pl3   
   8 C8            -4.8030    -0.0740     0.1526 C.2     
   9 N9            -5.9778    -0.6198     0.0793 N.2     
  10 C10           -7.0239     0.1837     0.2183 C.2     
  11 C11           -6.7322     1.4802     0.4204 C.2     
  12 S12           -4.9789     1.6552     0.4363 S.3     
  13 C13           -8.4197    -0.3142     0.1545 C.ar    
  14 C14           -8.6690    -1.6692    -0.0573 C.ar    
  15 C15           -9.9681    -2.1291    -0.1156 C.ar    
  16 C16          -11.0266    -1.2441     0.0359 C.ar    
  17 C17          -10.7818     0.1059     0.2466 C.ar    
  18 C18           -9.4849     0.5711     0.3121 C.ar    
  19 S19            1.5042     2.1081     1.0033 S.o2    
  20 N20            2.3571     1.2241     2.1140 N.am    
  21 O21            2.2385     2.0420    -0.2114 O.2     
  22 O22            1.1640     3.3319     1.6403 O.2     
  23 O23          -12.3056    -1.7003    -0.0225 O.3     
  24 H24           -1.0567     2.2881     2.2707 H       
  25 H25           -3.1775     1.1050     1.8720 H       
  26 H26           -1.3394    -1.1009    -1.2979 H       
  27 H27            0.7752     0.0914    -0.8936 H       
  28 H28           -3.5887    -1.6868    -0.2104 H       
  29 H29           -7.4491     2.2768     0.5541 H       
  30 H30           -7.8458    -2.3582    -0.1760 H       
  31 H31          -10.1618    -3.1788    -0.2797 H       
  32 H32          -11.6075     0.7920     0.3638 H       
  33 H33           -9.2951     1.6216     0.4759 H       
  34 H34            1.9839     0.4025     2.4698 H       
  35 H35            3.2298     1.5280     2.4088 H       
  36 H36          -12.6663    -1.9704     0.8331 H       
@<TRIPOS>BOND
   1    1    2 ar
   2    1   19 1
   3    1    6 ar
   4    2    3 ar
   5    2   24 1
   6    3    4 ar
   7    3   25 1
   8    4    5 ar
   9    4    7 1
  10    5    6 ar
  11    5   26 1
  12    6   27 1
  13    7    8 1
  14    7   28 1
  15    8    9 2
  16    8   12 1
  17    9   10 1
  18   10   11 2
  19   10   13 1
  20   11   12 1
  21   11   29 1
  22   13   14 ar
  23   13   18 ar
  24   14   15 ar
  25   14   30 1
  26   15   16 ar
  27   15   31 1
  28   16   17 ar
  29   16   23 1
  30   17   18 ar
  31   17   32 1
  32   18   33 1
  33   19   20 am
  34   19   21 2
  35   19   22 2
  36   20   34 1
  37   20   35 1
  38   23   36 1

#	End of record

