#	Name: ASD00069257
#	Creating user name:	WinNT
#	Creation time:	15. 06. 2019 18:29

#	Modifying user name:	WinNT
#	Modification time:	15. 06. 2019 18:29

#	Program:	/corina/corina34_cracker 3.40 0067  02.08.2006

@<TRIPOS>MOLECULE
ASD00069257
  92   95    0    0    0
SMALL
NO_CHARGES


@<TRIPOS>ATOM
   1 C1             0.8051     0.5283    -3.9549 C.2     
   2 N2             0.6850    -0.6734    -3.3566 N.am    
   3 O3             1.8730     1.1079    -3.9452 O.2     
   4 O4            -0.2569     1.0841    -4.5680 O.3     
   5 C5            -0.6025    -1.3721    -3.3683 C.3     
   6 N6             2.9737    -3.4762    -1.1983 N.3     
   7 C7             2.7161    -2.1893    -0.5395 C.3     
   8 C8             1.5273    -1.4993    -1.2122 C.3     
   9 C9             1.8422    -1.2809    -2.6947 C.3     
  10 C10            2.1540    -2.6310    -3.3463 C.3     
  11 C11            3.3246    -3.2883    -2.6118 C.3     
  12 C12            3.9688    -4.1934    -0.5257 C.ar    
  13 C13            3.6859    -5.4518     0.0066 C.ar    
  14 C14            4.6770    -6.1574     0.6716 C.ar    
  15 C15            5.9413    -5.6139     0.8056 C.ar    
  16 C16            6.2216    -4.3669     0.2786 C.ar    
  17 C17            5.2411    -3.6584    -0.3911 C.ar    
  18 C18            2.2534    -7.3313    -0.2766 C.2     
  19 O19            3.2312    -8.0452    -0.3936 O.2     
  20 N20            2.4046    -6.0001    -0.1299 N.am    
  21 C21            0.9029    -7.9222    -0.2951 C.2     
  22 N22           -0.2264    -7.2596    -0.1789 N.2     
  23 C23           -1.2475    -8.1235    -0.2404 C.2     
  24 C24           -0.7302    -9.3788    -0.4020 C.2     
  25 N25            0.6147    -9.2509    -0.4420 N.pl3   
  26 C26            1.5849   -10.3359    -0.6086 C.3     
  27 O27            0.8922   -11.5799    -0.7298 O.3     
  28 C28            1.7512   -12.7096    -0.8974 C.3     
  29 C29            0.9062   -13.9796    -1.0158 C.3     
  30 Si30           2.0261   -15.4524    -1.2342 Si      
  31 C31            3.1587   -15.5951     0.2380 C.3     
  32 C32            0.9972   -16.9988    -1.3784 C.3     
  33 C33            3.0420   -15.2360    -2.7807 C.3     
  34 C34           -4.4487    -6.1776     0.0976 C.ar    
  35 C35           -3.0994    -6.4538     0.0170 C.ar    
  36 C36           -2.6873    -7.7792    -0.1488 C.ar    
  37 C37           -3.6694    -8.7714    -0.2263 C.ar    
  38 C38           -4.9967    -8.4075    -0.1370 C.ar    
  39 N39           -5.3436    -7.1440     0.0198 N.ar    
  40 C40           -4.9063    -4.7538     0.2826 C.3     
  41 C41           -0.0547     2.3799    -5.1911 C.3     
  42 C42            1.0274     2.2653    -6.2667 C.3     
  43 C43           -1.3631     2.8475    -5.8319 C.3     
  44 C44            0.3846     3.3924    -4.1315 C.3     
  45 H45           -0.6622    -2.0092    -4.2507 H       
  46 H46           -0.6916    -1.9848    -2.4711 H       
  47 H47           -1.4118    -0.6423    -3.3916 H       
  48 H48            2.4895    -2.3591     0.5131 H       
  49 H49            3.5989    -1.5555    -0.6230 H       
  50 H50            0.6409    -2.1264    -1.1169 H       
  51 H51            1.3463    -0.5371    -0.7331 H       
  52 H52            2.7046    -0.6213    -2.7906 H       
  53 H53            1.2775    -3.2760    -3.2847 H       
  54 H54            2.4207    -2.4774    -4.3920 H       
  55 H55            4.2046    -2.6492    -2.6856 H       
  56 H56            3.5399    -4.2562    -3.0643 H       
  57 H57            4.4614    -7.1315     1.0852 H       
  58 H58            6.7121    -6.1649     1.3239 H       
  59 H59            7.2107    -3.9468     0.3864 H       
  60 H60            5.4649    -2.6867    -0.8058 H       
  61 H61            1.6259    -5.4219    -0.1189 H       
  62 H62           -1.2906   -10.2982    -0.4860 H       
  63 H63            2.1759   -10.1601    -1.5074 H       
  64 H64            2.2442   -10.3702     0.2588 H       
  65 H65            2.3456   -12.5830    -1.8022 H       
  66 H66            2.4139   -12.7931    -0.0360 H       
  67 H67            0.3118   -14.1062    -0.1109 H       
  68 H68            0.2435   -13.8961    -1.8771 H       
  69 H69            2.5643   -15.7217     1.1428 H       
  70 H70            3.8139   -16.4567     0.1102 H       
  71 H71            3.7607   -14.6903     0.3224 H       
  72 H72            0.3345   -16.9153    -2.2398 H       
  73 H73            1.6524   -17.8605    -1.5062 H       
  74 H74            0.4028   -17.1254    -0.4736 H       
  75 H75            3.6440   -14.3312    -2.6964 H       
  76 H76            3.6972   -16.0977    -2.9086 H       
  77 H77            2.3793   -15.1525    -3.6421 H       
  78 H78           -2.3724    -5.6578     0.0810 H       
  79 H79           -3.3926    -9.8074    -0.3546 H       
  80 H80           -5.7624    -9.1669    -0.1958 H       
  81 H81           -5.0528    -4.2896    -0.6927 H       
  82 H82           -5.8460    -4.7430     0.8349 H       
  83 H83           -4.1512    -4.1989     0.8393 H       
  84 H84            0.7144     1.5440    -7.0216 H       
  85 H85            1.1792     3.2380    -6.7345 H       
  86 H86            1.9595     1.9322    -5.8102 H       
  87 H87           -2.1340     2.9291    -5.0656 H       
  88 H88           -1.2113     3.8202    -6.2996 H       
  89 H89           -1.6761     2.1261    -6.5867 H       
  90 H90            1.3167     3.0593    -3.6751 H       
  91 H91            0.5364     4.3651    -4.5993 H       
  92 H92           -0.3863     3.4741    -3.3653 H       
@<TRIPOS>BOND
   1    1    2 am
   2    1    3 2
   3    1    4 1
   4    2    5 1
   5    2    9 1
   6    4   41 1
   7    5   45 1
   8    5   46 1
   9    5   47 1
  10    6    7 1
  11    6   11 1
  12    6   12 1
  13    7    8 1
  14    7   48 1
  15    7   49 1
  16    8    9 1
  17    8   50 1
  18    8   51 1
  19    9   10 1
  20    9   52 1
  21   10   11 1
  22   10   53 1
  23   10   54 1
  24   11   55 1
  25   11   56 1
  26   12   13 ar
  27   12   17 ar
  28   13   14 ar
  29   13   20 1
  30   14   15 ar
  31   14   57 1
  32   15   16 ar
  33   15   58 1
  34   16   17 ar
  35   16   59 1
  36   17   60 1
  37   18   19 2
  38   18   20 am
  39   18   21 1
  40   20   61 1
  41   21   22 2
  42   21   25 1
  43   22   23 1
  44   23   24 2
  45   23   36 1
  46   24   25 1
  47   24   62 1
  48   25   26 1
  49   26   27 1
  50   26   63 1
  51   26   64 1
  52   27   28 1
  53   28   29 1
  54   28   65 1
  55   28   66 1
  56   29   30 1
  57   29   67 1
  58   29   68 1
  59   30   31 1
  60   30   32 1
  61   30   33 1
  62   31   69 1
  63   31   70 1
  64   31   71 1
  65   32   72 1
  66   32   73 1
  67   32   74 1
  68   33   75 1
  69   33   76 1
  70   33   77 1
  71   34   35 ar
  72   34   39 ar
  73   34   40 1
  74   35   36 ar
  75   35   78 1
  76   36   37 ar
  77   37   38 ar
  78   37   79 1
  79   38   39 ar
  80   38   80 1
  81   40   81 1
  82   40   82 1
  83   40   83 1
  84   41   42 1
  85   41   44 1
  86   41   43 1
  87   42   84 1
  88   42   85 1
  89   42   86 1
  90   43   87 1
  91   43   88 1
  92   43   89 1
  93   44   90 1
  94   44   91 1
  95   44   92 1

#	End of record

