#	Name: ASD03092036
#	Creating user name:	WinNT
#	Creation time:	15. 06. 2019 20:31

#	Modifying user name:	WinNT
#	Modification time:	15. 06. 2019 20:31

#	Program:	/corina/corina34_cracker 3.40 0067  02.08.2006

@<TRIPOS>MOLECULE
ASD03092036
  44   46    0    0    0
SMALL
NO_CHARGES


@<TRIPOS>ATOM
   1 N1             0.1397     1.5193     0.0343 N.am    
   2 C2             0.1276     0.1507    -0.0407 C.2     
   3 C3            -1.1769    -0.2426    -0.0874 C.2     
   4 C4            -1.9757     0.9112    -0.0399 C.2     
   5 N5            -1.1901     1.9593     0.0382 N.2     
   6 C6             1.2353     2.3016     0.0986 C.2     
   7 N7             1.1092     3.6428     0.0552 N.am    
   8 N8            -3.3727     0.9384    -0.0658 N.pl3   
   9 C9            -4.0507     2.1504     0.0864 C.ar    
  10 C10           -3.5052     3.3207    -0.4233 C.ar    
  11 C11           -4.1810     4.5212    -0.2701 C.ar    
  12 C12           -5.4004     4.5507     0.3918 C.ar    
  13 C13           -5.9422     3.3845     0.8988 C.ar    
  14 C14           -5.2750     2.1853     0.7434 C.ar    
  15 C15            1.3111    -0.7356    -0.0666 C.ar    
  16 C16            1.3032    -1.9656     0.6009 C.ar    
  17 C17            2.4290    -2.7612     0.5500 C.ar    
  18 N18            3.5012    -2.3763    -0.1154 N.ar    
  19 C19            3.5506    -1.2248    -0.7582 C.ar    
  20 C20            2.4684    -0.3702    -0.7644 C.ar    
  21 C21            2.3001     4.4931     0.1251 C.3     
  22 C22            4.8049    -0.8411    -1.5001 C.3     
  23 O23            2.3368     1.7978     0.1958 O.2     
  24 O24           -3.6496     5.6688    -0.7676 O.3     
  25 C25           -4.4005     6.8690    -0.5733 C.3     
  26 F26           -4.5703     7.0962     0.7966 F       
  27 F27           -3.7135     7.9463    -1.1431 F       
  28 F28           -5.6528     6.7394    -1.1832 F       
  29 H29           -1.5326    -1.2605    -0.1502 H       
  30 H30            0.2299     4.0450    -0.0224 H       
  31 H31           -3.8716     0.1158    -0.1895 H       
  32 H32           -2.5560     3.2960    -0.9378 H       
  33 H33           -5.9266     5.4862     0.5113 H       
  34 H34           -6.8913     3.4104     1.4135 H       
  35 H35           -5.7005     1.2755     1.1405 H       
  36 H36            0.4292    -2.2870     1.1478 H       
  37 H37            2.4329    -3.7121     1.0622 H       
  38 H38            2.5157     0.5705    -1.2929 H       
  39 H39            2.8241     4.3081     1.0628 H       
  40 H40            2.9602     4.2635    -0.7113 H       
  41 H41            2.0021     5.5404     0.0759 H       
  42 H42            4.7465    -1.2057    -2.5256 H       
  43 H43            4.9062     0.2442    -1.5056 H       
  44 H44            5.6695    -1.2841    -1.0057 H       
@<TRIPOS>BOND
   1    1    2 1
   2    1    6 am
   3    1    5 1
   4    2    3 2
   5    2   15 1
   6    3    4 1
   7    3   29 1
   8    4    5 2
   9    4    8 1
  10    6    7 am
  11    6   23 2
  12    7   21 1
  13    7   30 1
  14    8    9 1
  15    8   31 1
  16    9   10 ar
  17    9   14 ar
  18   10   11 ar
  19   10   32 1
  20   11   12 ar
  21   11   24 1
  22   12   13 ar
  23   12   33 1
  24   13   14 ar
  25   13   34 1
  26   14   35 1
  27   15   16 ar
  28   15   20 ar
  29   16   17 ar
  30   16   36 1
  31   17   18 ar
  32   17   37 1
  33   18   19 ar
  34   19   20 ar
  35   19   22 1
  36   20   38 1
  37   21   39 1
  38   21   40 1
  39   21   41 1
  40   22   42 1
  41   22   43 1
  42   22   44 1
  43   24   25 1
  44   25   26 1
  45   25   27 1
  46   25   28 1

#	End of record

