#	Name: ASD01914971
#	Creating user name:	WinNT
#	Creation time:	15. 06. 2019 20:04

#	Modifying user name:	WinNT
#	Modification time:	15. 06. 2019 20:04

#	Program:	/corina/corina34_cracker 3.40 0067  02.08.2006

@<TRIPOS>MOLECULE
ASD01914971
  58   61    0    0    0
SMALL
NO_CHARGES


@<TRIPOS>ATOM
   1 C1            -0.0158     1.3120     0.0093 C.2     
   2 N2             0.0021    -0.0041     0.0020 N.2     
   3 C3             1.3183     1.7637    -0.0011 C.2     
   4 C4             2.1227     0.6785    -0.0146 C.2     
   5 N5             1.3391    -0.4213    -0.0130 N.pl3   
   6 C6            -1.2277     2.1688     0.0199 C.ar    
   7 C7            -1.1060     3.5534    -0.0787 C.ar    
   8 C8            -2.2361     4.3453    -0.0683 C.ar    
   9 C9            -3.4881     3.7669     0.0399 C.ar    
  10 C10           -3.6147     2.3932     0.1381 C.ar    
  11 C11           -2.4912     1.5913     0.1229 C.ar    
  12 C12            3.6295     0.6928    -0.0298 C.3     
  13 C13            1.8064    -1.8097    -0.0242 C.3     
  14 C14            1.9794    -2.2929     1.3927 C.2     
  15 N15            2.4043    -3.5500     1.6289 N.am    
  16 O16            1.7364    -1.5506     2.3205 O.2     
  17 C17            2.7072    -4.4742     0.5268 C.3     
  18 C18            2.1389    -5.8284     0.8482 C.2     
  19 C19            1.6704    -6.1535     2.0296 C.2     
  20 C20            1.6203    -5.2242     3.2058 C.3     
  21 C21            2.5895    -4.0508     3.0018 C.3     
  22 C22            4.1530     0.8157     1.4026 C.3     
  23 C23            1.1574    -7.5263     2.2137 C.ar    
  24 N24            1.1884    -8.3712     1.1904 N.ar    
  25 C25            0.7380    -9.6064     1.3194 C.ar    
  26 C26            0.2268   -10.0168     2.5476 C.ar    
  27 C27            0.2102    -9.1036     3.5983 C.ar    
  28 N28            0.6820    -7.8857     3.3997 N.ar    
  29 C29           -4.9818     1.7704     0.2562 C.3     
  30 O30           -0.2456   -11.2799     2.7168 O.3     
  31 C31           -0.7517   -11.6153     4.0104 C.3     
  32 H32            1.6407     2.7944     0.0011 H       
  33 H33           -0.1290     4.0060    -0.1629 H       
  34 H34           -2.1429     5.4186    -0.1443 H       
  35 H35           -4.3700     4.3904     0.0481 H       
  36 H36           -2.5911     0.5186     0.1996 H       
  37 H37            3.9972    -0.2327    -0.4729 H       
  38 H38            3.9789     1.5412    -0.6184 H       
  39 H39            1.0741    -2.4354    -0.5345 H       
  40 H40            2.7611    -1.8676    -0.5470 H       
  41 H41            2.2605    -4.1010    -0.3948 H       
  42 H42            3.7874    -4.5524     0.4034 H       
  43 H43            2.1155    -6.5726     0.0658 H       
  44 H44            0.6062    -4.8411     3.3197 H       
  45 H45            1.9004    -5.7686     4.1076 H       
  46 H46            3.6155    -4.3920     3.1393 H       
  47 H47            2.3649    -3.2587     3.7161 H       
  48 H48            5.2428     0.8260     1.3915 H       
  49 H49            3.7853     1.7413     1.8456 H       
  50 H50            3.8036    -0.0326     1.9911 H       
  51 H51            0.7657   -10.2889     0.4828 H       
  52 H52           -0.1797    -9.3884     4.5644 H       
  53 H53           -5.3689     1.5523    -0.7392 H       
  54 H54           -4.9116     0.8459     0.8293 H       
  55 H55           -5.6538     2.4624     0.7638 H       
  56 H56            0.0384   -11.4963     4.7518 H       
  57 H57           -1.5838   -10.9559     4.2572 H       
  58 H58           -1.0958   -12.6495     4.0089 H       
@<TRIPOS>BOND
   1    1    2 2
   2    1    3 1
   3    1    6 1
   4    2    5 1
   5    3    4 2
   6    3   32 1
   7    4    5 1
   8    4   12 1
   9    5   13 1
  10    6    7 ar
  11    6   11 ar
  12    7    8 ar
  13    7   33 1
  14    8    9 ar
  15    8   34 1
  16    9   10 ar
  17    9   35 1
  18   10   11 ar
  19   10   29 1
  20   11   36 1
  21   12   22 1
  22   12   37 1
  23   12   38 1
  24   13   14 1
  25   13   39 1
  26   13   40 1
  27   14   15 am
  28   14   16 2
  29   15   17 1
  30   15   21 1
  31   17   18 1
  32   17   41 1
  33   17   42 1
  34   18   19 2
  35   18   43 1
  36   19   20 1
  37   19   23 1
  38   20   21 1
  39   20   44 1
  40   20   45 1
  41   21   46 1
  42   21   47 1
  43   22   48 1
  44   22   49 1
  45   22   50 1
  46   23   24 ar
  47   23   28 ar
  48   24   25 ar
  49   25   26 ar
  50   25   51 1
  51   26   27 ar
  52   26   30 1
  53   27   28 ar
  54   27   52 1
  55   29   53 1
  56   29   54 1
  57   29   55 1
  58   30   31 1
  59   31   56 1
  60   31   57 1
  61   31   58 1

#	End of record

