#	Name: ASD00170516
#	Creating user name:	WinNT
#	Creation time:	15. 06. 2019 18:32

#	Modifying user name:	WinNT
#	Modification time:	15. 06. 2019 18:32

#	Program:	/corina/corina34_cracker 3.40 0067  02.08.2006

@<TRIPOS>MOLECULE
ASD00170516
  50   53    0    0    0
SMALL
NO_CHARGES


@<TRIPOS>ATOM
   1 C1             2.2869    -6.0685   -10.2715 C.3     
   2 O2             2.5285    -4.6717   -10.0903 O.3     
   3 C3             2.5417    -4.2086    -8.8127 C.ar    
   4 C4             2.3324    -5.0815    -7.7550 C.ar    
   5 C5             2.3468    -4.6083    -6.4572 C.ar    
   6 C6             2.5693    -3.2659    -6.2120 C.ar    
   7 C7             2.5840    -2.7523    -4.7953 C.3     
   8 C8             3.9602    -2.9351    -4.2090 C.2     
   9 C9             4.9561    -2.0554    -4.3729 C.2     
  10 S10            6.4072    -2.5984    -3.5498 S.3     
  11 C11            5.6512    -4.0184    -2.9877 C.2     
  12 N12            6.2665    -4.9787    -2.2139 N.pl3   
  13 C13            4.3399    -4.0738    -3.4072 C.2     
  14 C14            3.4300    -5.1719    -3.0780 C.2     
  15 O15            3.4259    -6.1833    -3.7562 O.2     
  16 C16            2.5159    -5.0533    -1.9219 C.ar    
  17 C17            2.5916    -3.9422    -1.0797 C.ar    
  18 C18            1.7365    -3.8372    -0.0031 C.ar    
  19 C19            0.8038    -4.8310     0.2437 C.ar    
  20 Cl20          -0.2694    -4.6918     1.6011 Cl      
  21 C21            0.7237    -5.9354    -0.5885 C.ar    
  22 C22            1.5699    -6.0490    -1.6714 C.ar    
  23 C23            4.8477    -0.7983    -5.1422 C.ar    
  24 C24            3.8100     0.0976    -4.8789 C.ar    
  25 C25            3.7146     1.2693    -5.6008 C.ar    
  26 C26            4.6447     1.5574    -6.5839 C.ar    
  27 C27            5.6757     0.6738    -6.8499 C.ar    
  28 C28            5.7860    -0.4987    -6.1316 C.ar    
  29 C29            2.7787    -2.3939    -7.2644 C.ar    
  30 C30            2.7704    -2.8631    -8.5637 C.ar    
  31 H31            3.0614    -6.6405    -9.7607 H       
  32 H32            1.3122    -6.3254    -9.8567 H       
  33 H33            2.3027    -6.3049   -11.3355 H       
  34 H34            2.1579    -6.1301    -7.9460 H       
  35 H35            2.1839    -5.2875    -5.6334 H       
  36 H36            2.3244    -1.6937    -4.7898 H       
  37 H37            1.8589    -3.3073    -4.2001 H       
  38 H38            7.1704    -4.8363    -1.8920 H       
  39 H39            5.7956    -5.7970    -1.9912 H       
  40 H40            3.3187    -3.1669    -1.2710 H       
  41 H41            1.7943    -2.9784     0.6493 H       
  42 H42           -0.0058    -6.7070    -0.3914 H       
  43 H43            1.5035    -6.9084    -2.3222 H       
  44 H44            3.0832    -0.1263    -4.1120 H       
  45 H45            2.9121     1.9631    -5.3984 H       
  46 H46            4.5653     2.4759    -7.1464 H       
  47 H47            6.3981     0.9046    -7.6189 H       
  48 H48            6.5940    -1.1853    -6.3369 H       
  49 H49            2.9525    -1.3458    -7.0703 H       
  50 H50            2.9377    -2.1823    -9.3853 H       
@<TRIPOS>BOND
   1    1    2 1
   2    1   31 1
   3    1   32 1
   4    1   33 1
   5    2    3 1
   6    3   30 ar
   7    3    4 ar
   8    4    5 ar
   9    4   34 1
  10    5    6 ar
  11    5   35 1
  12    6    7 1
  13    6   29 ar
  14    7    8 1
  15    7   36 1
  16    7   37 1
  17    8   13 1
  18    8    9 2
  19    9   10 1
  20    9   23 1
  21   10   11 1
  22   11   12 1
  23   11   13 2
  24   12   38 1
  25   12   39 1
  26   13   14 1
  27   14   15 2
  28   14   16 1
  29   16   22 ar
  30   16   17 ar
  31   17   18 ar
  32   17   40 1
  33   18   19 ar
  34   18   41 1
  35   19   20 1
  36   19   21 ar
  37   21   22 ar
  38   21   42 1
  39   22   43 1
  40   23   28 ar
  41   23   24 ar
  42   24   25 ar
  43   24   44 1
  44   25   26 ar
  45   25   45 1
  46   26   27 ar
  47   26   46 1
  48   27   28 ar
  49   27   47 1
  50   28   48 1
  51   29   30 ar
  52   29   49 1
  53   30   50 1

#	End of record

