#	Name: ASD02440029
#	Creating user name:	WinNT
#	Creation time:	15. 06. 2019 20:21

#	Modifying user name:	WinNT
#	Modification time:	15. 06. 2019 20:21

#	Program:	/corina/corina34_cracker 3.40 0067  02.08.2006

@<TRIPOS>MOLECULE
ASD02440029
 102  107    0    0    0
SMALL
NO_CHARGES


@<TRIPOS>ATOM
   1 C1            -0.8579     3.1019    -1.5428 C.3     
   2 C2            -0.7975     1.6037    -1.2463 C.3     
   3 C3             0.0746     0.9144    -2.2996 C.3     
   4 C4             1.4760     1.5065    -2.3188 C.3     
   5 C5             1.4340     3.0115    -2.5819 C.3     
   6 C6             0.5411     3.7072    -1.5556 C.3     
   7 C7             2.3237     0.8482    -3.3958 C.2     
   8 C8             2.1391     1.2131    -4.8386 C.3     
   9 C9             1.9184     2.7081    -5.0258 C.3     
  10 C10            0.9289     3.2641    -3.9977 C.3     
  11 C11            3.1824    -0.0452    -2.9818 C.2     
  12 C12            4.1358    -0.7794    -3.8810 C.3     
  13 C13            3.6209    -0.7281    -5.3204 C.3     
  14 C14            3.3115     0.7142    -5.6968 C.3     
  15 C15            4.5870    -1.4500    -6.2648 C.3     
  16 C16            4.0834    -1.2759    -7.6932 C.3     
  17 C17            4.0661     0.2097    -8.0478 C.3     
  18 C18            2.9849     0.8717    -7.1772 C.3     
  19 C19            4.5500    -2.9480    -5.9097 C.3     
  20 C20            5.4041    -3.7332    -6.9020 C.3     
  21 C21            4.8236    -3.5952    -8.3057 C.3     
  22 C22            4.7709    -2.1259    -8.7398 C.3     
  23 C23           -0.2496     1.3518     0.1552 C.3     
  24 C24           -2.2182     1.0267    -1.3351 C.3     
  25 C25            3.9152    -2.0898   -10.0301 C.3     
  26 C26            6.1647    -1.6308    -9.1088 C.3     
  27 H27            1.9651     1.3327    -1.3489 H       
  28 C28            2.8295     3.5724    -2.4286 C.2     
  29 C29            4.5167     1.6137    -5.3732 C.3     
  30 C30            6.0179    -0.9619    -6.0793 C.3     
  31 O31            5.6342    -4.3265    -9.2308 O.3     
  32 C32            5.2314    -5.6860    -9.4081 C.3     
  33 O33            5.4097    -6.3996    -8.1829 O.3     
  34 C34            5.0108    -7.7705    -8.2428 C.3     
  35 C35            5.8551    -8.5009    -9.2904 C.3     
  36 C36            5.6880    -7.8053   -10.6449 C.3     
  37 C37            6.0845    -6.3326   -10.5025 C.3     
  38 C38            5.2191    -8.4228    -6.8746 C.3     
  39 O39            6.5293    -8.4355   -11.6129 O.3     
  40 O40            5.4193    -9.8579    -9.3934 O.3     
  41 O41            5.8637    -5.6567   -11.7420 O.3     
  42 O42            4.3457    -7.8163    -5.9199 O.3     
  43 O43            3.7467     2.8403    -2.1410 O.2     
  44 O44            3.0497     4.8838    -2.6121 O.3     
  45 C45            0.8742     0.4960    -5.3338 C.3     
  46 H46            2.6771    -1.3087    -5.3485 H       
  47 H47            3.0125    -1.5985    -7.6791 H       
  48 H48           -1.3352     3.2609    -2.5119 H       
  49 H49           -1.4593     3.5956    -0.7744 H       
  50 H50            0.1257    -0.1530    -2.0770 H       
  51 H51           -0.4142     1.0534    -3.2654 H       
  52 H52            0.4679     4.7686    -1.8192 H       
  53 H53            0.9964     3.6347    -0.5688 H       
  54 H54            2.8271     3.2931    -4.9962 H       
  55 H55            1.4742     2.8643    -6.0263 H       
  56 H56           -0.0485     2.8070    -4.1340 H       
  57 H57            0.8319     4.3441    -4.1529 H       
  58 H58            3.2053    -0.2688    -1.9239 H       
  59 H59            5.1249    -0.3493    -3.7760 H       
  60 H60            4.1769    -1.8265    -3.5557 H       
  61 H61            5.0242     0.6793    -7.8771 H       
  62 H62            3.7823     0.3478    -9.0939 H       
  63 H63            2.0391     0.4094    -7.4475 H       
  64 H64            2.9446     1.9348    -7.4305 H       
  65 H65            4.9433    -3.0827    -4.9028 H       
  66 H66            3.5196    -3.2973    -5.9525 H       
  67 H67            6.4380    -3.4059    -6.8802 H       
  68 H68            5.3833    -4.7944    -6.6170 H       
  69 H69            3.8112    -4.0062    -8.3215 H       
  70 H70           -0.8975     1.8300     0.8899 H       
  71 H71           -0.2155     0.2789     0.3446 H       
  72 H72            0.7554     1.7665     0.2325 H       
  73 H73           -2.6148     1.1902    -2.3371 H       
  74 H74           -2.1898    -0.0426    -1.1256 H       
  75 H75           -2.8582     1.5231    -0.6055 H       
  76 H76            2.9174    -2.4721    -9.8152 H       
  77 H77            3.8416    -1.0631   -10.3887 H       
  78 H78            4.3846    -2.7089   -10.7947 H       
  79 H79            6.5091    -2.1488   -10.0038 H       
  80 H80            6.1304    -0.5583    -9.3001 H       
  81 H81            6.8511    -1.8313    -8.2861 H       
  82 H82            4.7318     1.5630    -4.3059 H       
  83 H83            5.3859     1.2728    -5.9357 H       
  84 H84            4.2863     2.6428    -5.6489 H       
  85 H85            6.2463    -0.9021    -5.0152 H       
  86 H86            6.7047    -1.6587    -6.5597 H       
  87 H87            6.1267     0.0245    -6.5302 H       
  88 H88            4.1813    -5.7191    -9.6985 H       
  89 H89            3.9579    -7.8310    -8.5180 H       
  90 H90            6.9040    -8.4757    -8.9949 H       
  91 H91            4.6480    -7.8737   -10.9640 H       
  92 H92            7.1380    -6.2636   -10.2316 H       
  93 H93            4.9994    -9.4882    -6.9427 H       
  94 H94            6.2535    -8.2845    -6.5598 H       
  95 H95            6.4740    -8.0450   -12.4958 H       
  96 H96            5.9117   -10.3811   -10.0406 H       
  97 H97            6.0940    -4.7177   -11.7244 H       
  98 H98            4.4237    -8.1814    -5.0278 H       
  99 H99            3.9585     5.1958    -2.5033 H       
 100 H100           0.0007     0.9113    -4.8311 H       
 101 H101           0.7748     0.6364    -6.4102 H       
 102 H102           0.9494    -0.5684    -5.1117 H       
@<TRIPOS>BOND
   1    1    2 1
   2    1    6 1
   3    1   48 1
   4    1   49 1
   5    2    3 1
   6    2   23 1
   7    2   24 1
   8    3    4 1
   9    3   50 1
  10    3   51 1
  11    4    5 1
  12    4    7 1
  13    4   27 1
  14    5    6 1
  15    5   10 1
  16    5   28 1
  17    6   52 1
  18    6   53 1
  19    7    8 1
  20    7   11 2
  21    8    9 1
  22    8   14 1
  23    8   45 1
  24    9   10 1
  25    9   54 1
  26    9   55 1
  27   10   56 1
  28   10   57 1
  29   11   12 1
  30   11   58 1
  31   12   13 1
  32   12   59 1
  33   12   60 1
  34   13   15 1
  35   13   46 1
  36   13   14 1
  37   14   18 1
  38   14   29 1
  39   15   19 1
  40   15   16 1
  41   15   30 1
  42   16   17 1
  43   16   47 1
  44   16   22 1
  45   17   18 1
  46   17   61 1
  47   17   62 1
  48   18   63 1
  49   18   64 1
  50   19   20 1
  51   19   65 1
  52   19   66 1
  53   20   21 1
  54   20   67 1
  55   20   68 1
  56   21   22 1
  57   21   31 1
  58   21   69 1
  59   22   25 1
  60   22   26 1
  61   23   70 1
  62   23   71 1
  63   23   72 1
  64   24   73 1
  65   24   74 1
  66   24   75 1
  67   25   76 1
  68   25   77 1
  69   25   78 1
  70   26   79 1
  71   26   80 1
  72   26   81 1
  73   28   43 2
  74   28   44 1
  75   29   82 1
  76   29   83 1
  77   29   84 1
  78   30   85 1
  79   30   86 1
  80   30   87 1
  81   31   32 1
  82   32   33 1
  83   32   37 1
  84   32   88 1
  85   33   34 1
  86   34   35 1
  87   34   38 1
  88   34   89 1
  89   35   36 1
  90   35   40 1
  91   35   90 1
  92   36   37 1
  93   36   39 1
  94   36   91 1
  95   37   41 1
  96   37   92 1
  97   38   42 1
  98   38   93 1
  99   38   94 1
 100   39   95 1
 101   40   96 1
 102   41   97 1
 103   42   98 1
 104   44   99 1
 105   45  100 1
 106   45  101 1
 107   45  102 1

#	End of record

