#	Name: ASD04590178
#	Creating user name:	WinNT
#	Creation time:	15. 06. 2019 20:50

#	Modifying user name:	WinNT
#	Modification time:	15. 06. 2019 20:50

#	Program:	/corina/corina34_cracker 3.40 0067  02.08.2006

@<TRIPOS>MOLECULE
ASD04590178
  20   20    0    0    0
SMALL
NO_CHARGES


@<TRIPOS>ATOM
   1 N1            -0.0153     1.2803     0.0091 N.pl3   
   2 N2             0.0021    -0.0041     0.0020 N.2     
   3 C3             1.2467    -0.4440    -0.0122 C.2     
   4 C4             2.0913     0.6966    -0.0142 C.2     
   5 C5             1.2533     1.7670    -0.0004 C.2     
   6 C6             1.6776    -1.8527    -0.0235 C.2     
   7 O7             2.8616    -2.1259    -0.0358 O.2     
   8 N8             3.4933     0.7154    -0.0270 N.pl3   
   9 O9             0.7586    -2.8384    -0.0200 O.3     
  10 C10            0.0745    -5.1755    -0.0258 C.3     
  11 C11            1.2554    -4.2028    -0.0317 C.3     
  12 H12           -0.8184     1.8243     0.0160 H       
  13 H13            1.5415     2.8078     0.0024 H       
  14 H14            3.9895    -0.1180    -0.0359 H       
  15 H15            3.9670     1.5619    -0.0271 H       
  16 H16            0.4474    -6.1997    -0.0345 H       
  17 H17           -0.5244    -5.0145     0.8707 H       
  18 H18           -0.5409    -5.0054    -0.9092 H       
  19 H19            1.8542    -4.3638    -0.9281 H       
  20 H20            1.8707    -4.3729     0.8518 H       
@<TRIPOS>BOND
   1    1    2 1
   2    1    5 1
   3    1   12 1
   4    2    3 2
   5    3    4 1
   6    3    6 1
   7    4    5 2
   8    4    8 1
   9    5   13 1
  10    6    7 2
  11    6    9 1
  12    8   14 1
  13    8   15 1
  14    9   11 1
  15   10   11 1
  16   10   16 1
  17   10   17 1
  18   10   18 1
  19   11   19 1
  20   11   20 1

#	End of record

