#	Name: ASD07301084
#	Creating user name:	WinNT
#	Creation time:	15. 06. 2019 21:10

#	Modifying user name:	WinNT
#	Modification time:	15. 06. 2019 21:10

#	Program:	/corina/corina34_cracker 3.40 0067  02.08.2006

@<TRIPOS>MOLECULE
ASD07301084
  40   41    0    0    0
SMALL
NO_CHARGES


@<TRIPOS>ATOM
   1 C1            -0.5382     0.5496     1.2999 C.3     
   2 C2             0.0024    -0.0038     0.0067 C.2     
   3 C3             1.3288    -0.6207    -0.0274 C.2     
   4 C4             1.4653    -2.0705     0.1150 C.2     
   5 C5             2.8314    -2.7058     0.0800 C.3     
   6 O6            -0.6623     0.0621    -1.0066 O.2     
   7 O7             0.4783    -2.7615     0.2613 O.2     
   8 N8             2.4059     0.1333    -0.1871 N.2     
   9 N9             2.2807     1.3967    -0.4156 N.pl3   
  10 C10            3.4084     2.1713    -0.6886 C.ar    
  11 C11            3.2737     3.5332    -0.9350 C.ar    
  12 C12            4.3890     4.2987    -1.2050 C.ar    
  13 C13            5.6473     3.7090    -1.2308 C.ar    
  14 C14            5.7823     2.3478    -0.9850 C.ar    
  15 C15            4.6681     1.5827    -0.7089 C.ar    
  16 N16            6.7764     4.4846    -1.5042 N.3     
  17 C17            7.9966     3.6649    -1.4817 C.3     
  18 C18            9.1995     4.5399    -1.8442 C.3     
  19 O19            9.2712     5.6427    -0.9363 O.3     
  20 C20            8.0995     6.4627    -0.9329 C.3     
  21 C21            6.8855     5.6072    -0.5612 C.3     
  22 H22            0.1544     0.3222     2.1102 H       
  23 H23           -0.6534     1.6300     1.2128 H       
  24 H24           -1.5068     0.0969     1.5121 H       
  25 H25            3.5879    -1.9333    -0.0578 H       
  26 H26            3.0130    -3.2290     1.0188 H       
  27 H27            2.8813    -3.4147    -0.7465 H       
  28 H28            1.4025     1.8082    -0.3976 H       
  29 H29            2.2959     3.9914    -0.9153 H       
  30 H30            4.2844     5.3564    -1.3967 H       
  31 H31            6.7601     1.8898    -1.0059 H       
  32 H32            4.7736     0.5258    -0.5132 H       
  33 H33            8.1369     3.2484    -0.4843 H       
  34 H34            7.9045     2.8551    -2.2054 H       
  35 H35           10.1133     3.9500    -1.7731 H       
  36 H36            9.0846     4.9132    -2.8618 H       
  37 H37            8.2178     7.2634    -0.2028 H       
  38 H38            7.9526     6.8918    -1.9240 H       
  39 H39            5.9822     6.2151    -0.6130 H       
  40 H40            7.0081     5.2217     0.4510 H       
@<TRIPOS>BOND
   1    1    2 1
   2    1   22 1
   3    1   23 1
   4    1   24 1
   5    2    3 1
   6    2    6 2
   7    3    4 1
   8    3    8 2
   9    4    5 1
  10    4    7 2
  11    5   25 1
  12    5   26 1
  13    5   27 1
  14    8    9 1
  15    9   10 1
  16    9   28 1
  17   10   11 ar
  18   10   15 ar
  19   11   12 ar
  20   11   29 1
  21   12   13 ar
  22   12   30 1
  23   13   14 ar
  24   13   16 1
  25   14   15 ar
  26   14   31 1
  27   15   32 1
  28   16   17 1
  29   16   21 1
  30   17   18 1
  31   17   33 1
  32   17   34 1
  33   18   19 1
  34   18   35 1
  35   18   36 1
  36   19   20 1
  37   20   21 1
  38   20   37 1
  39   20   38 1
  40   21   39 1
  41   21   40 1

#	End of record

