#	Name: ASD03091879
#	Creating user name:	WinNT
#	Creation time:	15. 06. 2019 20:31

#	Modifying user name:	WinNT
#	Modification time:	15. 06. 2019 20:31

#	Program:	/corina/corina34_cracker 3.40 0067  02.08.2006

@<TRIPOS>MOLECULE
ASD03091879
  32   33    0    0    0
SMALL
NO_CHARGES


@<TRIPOS>ATOM
   1 C1             0.1477     1.3822     0.6346 C.ar    
   2 C2             0.1636    -0.0030     0.6225 C.ar    
   3 C3             1.1992    -0.6776     0.0029 C.ar    
   4 C4             2.2218     0.0275    -0.6069 C.ar    
   5 C5             2.2127     1.4105    -0.5988 C.ar    
   6 C6             1.1764     2.0930     0.0212 C.ar    
   7 N7             1.1646     3.4944     0.0304 N.am    
   8 C8             2.3238     4.1776     0.1087 C.2     
   9 N9             2.3219     5.5217     0.0092 N.am    
  10 C10            3.5062     6.2402     0.2113 C.ar    
  11 O11            3.3713     3.5813     0.2691 O.2     
  12 C12            3.6636     7.4982    -0.3585 C.ar    
  13 C13            4.5238     5.7004     0.9858 C.ar    
  14 C14            5.6915     6.4118     1.1834 C.ar    
  15 C15            5.8478     7.6605     0.6109 C.ar    
  16 C16            4.8341     8.2044    -0.1568 C.ar    
  17 C17            6.7962     5.8262     2.0246 C.3     
  18 Cl18           2.3916     8.1810    -1.3226 Cl      
  19 Cl19           3.5193    -0.8256    -1.3831 Cl      
  20 O20           -0.8733     2.0466     1.2394 O.3     
  21 H21           -0.6331    -0.5562     1.0976 H       
  22 H22            1.2102    -1.7575    -0.0049 H       
  23 H23            3.0122     1.9588    -1.0747 H       
  24 H24            0.3222     3.9727    -0.0197 H       
  25 H25            1.4999     5.9912    -0.2024 H       
  26 H26            4.4026     4.7252     1.4338 H       
  27 H27            6.7617     8.2143     0.7671 H       
  28 H28            4.9574     9.1820    -0.5991 H       
  29 H29            7.4695     5.2498     1.3901 H       
  30 H30            7.3514     6.6309     2.5067 H       
  31 H31            6.3669     5.1744     2.7855 H       
  32 H32           -0.7191     2.2373     2.1748 H       
@<TRIPOS>BOND
   1    1    2 ar
   2    1    6 ar
   3    1   20 1
   4    2    3 ar
   5    2   21 1
   6    3    4 ar
   7    3   22 1
   8    4    5 ar
   9    4   19 1
  10    5    6 ar
  11    5   23 1
  12    6    7 1
  13    7    8 am
  14    7   24 1
  15    8    9 am
  16    8   11 2
  17    9   10 1
  18    9   25 1
  19   10   13 ar
  20   10   12 ar
  21   12   16 ar
  22   12   18 1
  23   13   14 ar
  24   13   26 1
  25   14   15 ar
  26   14   17 1
  27   15   16 ar
  28   15   27 1
  29   16   28 1
  30   17   29 1
  31   17   30 1
  32   17   31 1
  33   20   32 1

#	End of record

