#	Name: ASD04940008
#	Creating user name:	WinNT
#	Creation time:	15. 06. 2019 20:56

#	Modifying user name:	WinNT
#	Modification time:	15. 06. 2019 20:56

#	Program:	/corina/corina34_cracker 3.40 0067  02.08.2006

@<TRIPOS>MOLECULE
ASD04940008
  54   57    0    0    0
SMALL
NO_CHARGES


@<TRIPOS>ATOM
   1 C1            -0.0166     1.3737     0.0096 C.ar    
   2 C2             0.0021    -0.0041     0.0020 C.ar    
   3 C3             1.2095    -0.6867    -0.0127 C.ar    
   4 C4             2.4043    -0.0002    -0.0200 C.ar    
   5 C5             2.4069     1.3913    -0.0130 C.ar    
   6 C6             1.1840     2.0802     0.0019 C.ar    
   7 N7             3.4238     2.3261    -0.0166 N.pl3   
   8 C8             2.9123     3.5883    -0.0052 C.2     
   9 C9             1.5205     3.5164     0.0069 C.2     
  10 C10            3.7045     4.8322    -0.0049 C.ar    
  11 C11            4.7948     4.9698    -0.8685 C.ar    
  12 C12            5.5311     6.1349    -0.8640 C.ar    
  13 C13            5.1921     7.1692    -0.0050 C.ar    
  14 C14            4.1116     7.0386     0.8540 C.ar    
  15 C15            3.3645     5.8803     0.8549 C.ar    
  16 C16            0.6150     4.5999     0.0215 C.2     
  17 O17            1.0328     5.7405     0.0236 O.2     
  18 C18           -0.8695     4.3412     0.0345 C.3     
  19 N19           -1.5896     5.6215     0.0484 N.3     
  20 C20           -3.0271     5.4195    -0.1769 C.3     
  21 C21           -3.6928     6.7528    -0.4006 C.2     
  22 N22           -5.0196     6.8137    -0.6293 N.am    
  23 C23           -1.3502     6.3466     1.3034 C.3     
  24 C24           -5.6918     8.1039    -0.8505 C.3     
  25 C25           -6.5343     7.9976    -2.1267 C.3     
  26 O26           -7.3799     6.8482    -2.0381 O.3     
  27 C27           -6.6743     5.6079    -1.9509 C.3     
  28 C28           -5.8379     5.5914    -0.6712 C.3     
  29 O29           -3.0345     7.7712    -0.3749 O.2     
  30 F30            5.9179     8.3088    -0.0047 F       
  31 H31           -0.9577     1.9034     0.0169 H       
  32 H32           -0.9270    -0.5546     0.0079 H       
  33 H33            1.2132    -1.7667    -0.0182 H       
  34 H34            3.3385    -0.5421    -0.0307 H       
  35 H35            4.3701     2.1132    -0.0258 H       
  36 H36            5.0600     4.1647    -1.5378 H       
  37 H37            6.3740     6.2424    -1.5306 H       
  38 H38            3.8526     7.8474     1.5211 H       
  39 H39            2.5204     5.7814     1.5213 H       
  40 H40           -1.1479     3.7774    -0.8559 H       
  41 H41           -1.1306     3.7678     0.9240 H       
  42 H42           -3.1723     4.7891    -1.0542 H       
  43 H43           -3.4671     4.9355     0.6950 H       
  44 H44           -0.2837     6.5442     1.4110 H       
  45 H45           -1.8949     7.2906     1.2871 H       
  46 H46           -1.6945     5.7429     2.1431 H       
  47 H47           -6.3373     8.3317    -0.0023 H       
  48 H48           -4.9466     8.8908    -0.9671 H       
  49 H49           -7.1469     8.8928    -2.2342 H       
  50 H50           -5.8764     7.8999    -2.9903 H       
  51 H51           -7.3875     4.7839    -1.9318 H       
  52 H52           -6.0169     5.5016    -2.8138 H       
  53 H53           -5.1895     4.7153    -0.6691 H       
  54 H54           -6.4984     5.5619     0.1953 H       
@<TRIPOS>BOND
   1    1    2 ar
   2    1    6 ar
   3    1   31 1
   4    2    3 ar
   5    2   32 1
   6    3    4 ar
   7    3   33 1
   8    4    5 ar
   9    4   34 1
  10    5    7 1
  11    5    6 ar
  12    6    9 1
  13    7    8 1
  14    7   35 1
  15    8    9 2
  16    8   10 1
  17    9   16 1
  18   10   11 ar
  19   10   15 ar
  20   11   12 ar
  21   11   36 1
  22   12   13 ar
  23   12   37 1
  24   13   14 ar
  25   13   30 1
  26   14   15 ar
  27   14   38 1
  28   15   39 1
  29   16   17 2
  30   16   18 1
  31   18   19 1
  32   18   40 1
  33   18   41 1
  34   19   20 1
  35   19   23 1
  36   20   21 1
  37   20   42 1
  38   20   43 1
  39   21   22 am
  40   21   29 2
  41   22   24 1
  42   22   28 1
  43   23   44 1
  44   23   45 1
  45   23   46 1
  46   24   25 1
  47   24   47 1
  48   24   48 1
  49   25   26 1
  50   25   49 1
  51   25   50 1
  52   26   27 1
  53   27   28 1
  54   27   51 1
  55   27   52 1
  56   28   53 1
  57   28   54 1

#	End of record

