#	Name: ASD03490125
#	Creating user name:	WinNT
#	Creation time:	15. 06. 2019 20:42

#	Modifying user name:	WinNT
#	Modification time:	15. 06. 2019 20:42

#	Program:	/corina/corina34_cracker 3.40 0067  02.08.2006

@<TRIPOS>MOLECULE
ASD03490125
  54   56    0    0    0
SMALL
NO_CHARGES


@<TRIPOS>ATOM
   1 Cl1           -4.2896    -3.7302    -3.2749 Cl      
   2 Cl2           -7.1138    -4.4510    -4.3876 Cl      
   3 C3            -0.0016     1.4069    -0.0312 C.ar    
   4 C4             0.0348     0.0193    -0.0533 C.ar    
   5 C5             1.2492    -0.6377    -0.0948 C.ar    
   6 C6             2.4276     0.0851    -0.1140 C.ar    
   7 C7             2.3946     1.4676    -0.0916 C.ar    
   8 C8             1.1837     2.1302    -0.0510 C.ar    
   9 C9             3.6814     2.2517    -0.1116 C.3     
  10 C10            4.0748     2.5352    -1.5384 C.2     
  11 N11            5.2000     3.2285    -1.8021 N.am    
  12 O12            3.3788     2.1395    -2.4494 O.2     
  13 N13           -1.2323     2.0765     0.0052 N.pl3   
  14 N14           -1.5003     3.2755     0.6782 N.2     
  15 C15           -2.7557     3.5884     0.4815 C.2     
  16 C16           -3.3370     2.6040    -0.3228 C.2     
  17 C17           -2.3790     1.6812    -0.6119 C.2     
  18 C18           -3.4566     4.8044     1.0302 C.3     
  19 C19           -4.3673     4.3893     2.1874 C.3     
  20 C20           -2.4174     5.8081     1.5338 C.3     
  21 C21           -4.2965     5.4503    -0.0735 C.3     
  22 N22           -2.5434     0.5384    -1.3941 N.am    
  23 C23           -3.7419     0.2676    -1.9481 C.2     
  24 N24           -3.9008    -0.8369    -2.7040 N.am    
  25 C25           -5.1646    -1.1629    -3.2099 C.ar    
  26 O26           -4.6797     1.0197    -1.7659 O.2     
  27 C27           -6.1113    -0.1676    -3.4110 C.ar    
  28 C28           -7.3580    -0.4918    -3.9105 C.ar    
  29 C29           -7.6647    -1.8060    -4.2099 C.ar    
  30 C30           -6.7243    -2.8018    -4.0107 C.ar    
  31 C31           -5.4723    -2.4828    -3.5173 C.ar    
  32 H32           -0.8853    -0.5459    -0.0376 H       
  33 H33            1.2782    -1.7172    -0.1121 H       
  34 H34            3.3759    -0.4308    -0.1461 H       
  35 H35            1.1585     3.2098    -0.0342 H       
  36 H36            3.5418     3.1926     0.4207 H       
  37 H37            4.4672     1.6729     0.3738 H       
  38 H38            5.7567     3.5450    -1.0735 H       
  39 H39            5.4533     3.4110    -2.7206 H       
  40 H40           -4.3632     2.5816    -0.6586 H       
  41 H41           -3.7689     3.9291     2.9737 H       
  42 H42           -4.8743     5.2688     2.5843 H       
  43 H43           -5.1076     3.6742     1.8287 H       
  44 H44           -1.7686     6.1039     0.7094 H       
  45 H45           -2.9244     6.6876     1.9307 H       
  46 H46           -1.8190     5.3479     2.3201 H       
  47 H47           -5.0368     4.7352    -0.4322 H       
  48 H48           -4.8035     6.3298     0.3234 H       
  49 H49           -3.6477     5.7460    -0.8979 H       
  50 H50           -1.7953    -0.0617    -1.5394 H       
  51 H51           -3.1393    -1.4059    -2.8974 H       
  52 H52           -5.8734     0.8595    -3.1769 H       
  53 H53           -8.0943     0.2828    -4.0668 H       
  54 H54           -8.6403    -2.0563    -4.5999 H       
@<TRIPOS>BOND
   1    1   31 1
   2    2   30 1
   3    3    4 ar
   4    3    8 ar
   5    3   13 1
   6    4    5 ar
   7    4   32 1
   8    5    6 ar
   9    5   33 1
  10    6    7 ar
  11    6   34 1
  12    7    8 ar
  13    7    9 1
  14    8   35 1
  15    9   10 1
  16    9   36 1
  17    9   37 1
  18   10   11 am
  19   10   12 2
  20   11   38 1
  21   11   39 1
  22   13   14 1
  23   13   17 1
  24   14   15 2
  25   15   16 1
  26   15   18 1
  27   16   17 2
  28   16   40 1
  29   17   22 1
  30   18   19 1
  31   18   20 1
  32   18   21 1
  33   19   41 1
  34   19   42 1
  35   19   43 1
  36   20   44 1
  37   20   45 1
  38   20   46 1
  39   21   47 1
  40   21   48 1
  41   21   49 1
  42   22   23 am
  43   22   50 1
  44   23   24 am
  45   23   26 2
  46   24   25 1
  47   24   51 1
  48   25   27 ar
  49   25   31 ar
  50   27   28 ar
  51   27   52 1
  52   28   29 ar
  53   28   53 1
  54   29   30 ar
  55   29   54 1
  56   30   31 ar

#	End of record

