#	Name: ASD02690047
#	Creating user name:	WinNT
#	Creation time:	15. 06. 2019 20:26

#	Modifying user name:	WinNT
#	Modification time:	15. 06. 2019 20:26

#	Program:	/corina/corina34_cracker 3.40 0067  02.08.2006

@<TRIPOS>MOLECULE
ASD02690047
  61   64    0    0    0
SMALL
NO_CHARGES


@<TRIPOS>ATOM
   1 C1            -0.0144     1.2087     0.0087 C.2     
   2 O2             0.0021    -0.0041     0.0020 O.2     
   3 C3             1.2473     1.9603     0.0007 C.ar    
   4 C4             2.4708     1.2791    -0.0147 C.ar    
   5 C5             3.6460     1.9855    -0.0220 C.ar    
   6 C6             3.6243     3.3761    -0.0143 C.ar    
   7 C7             2.4119     4.0575     0.0009 C.ar    
   8 C8             1.2311     3.3606     0.0026 C.ar    
   9 O9             4.7898     4.0703    -0.0212 O.3     
  10 C10            4.6957     5.4962    -0.0127 C.3     
  11 N11           -4.0827     2.0913     0.8777 N.3     
  12 C12           -3.7618     1.7844    -0.5220 C.3     
  13 C13           -2.4176     1.0561    -0.5907 C.3     
  14 C14           -1.3296     1.9444     0.0189 C.3     
  15 C15           -1.7118     2.2892     1.4610 C.3     
  16 C16           -3.0765     2.9818     1.4702 C.3     
  17 N17           -7.8077     2.2340     0.6001 N.3     
  18 C18           -6.4597     1.6678     0.4636 C.3     
  19 C19           -5.4292     2.6666     0.9951 C.3     
  20 C20           -5.7297     2.9685     2.4659 C.3     
  21 C21           -7.1563     3.5114     2.5862 C.3     
  22 C22           -8.1368     2.4881     2.0085 C.3     
  23 C23           -8.8108     1.3622    -0.0258 C.3     
  24 C24          -12.1197     3.1849    -0.0769 C.ar    
  25 C25          -10.8542     2.7696    -0.4457 C.ar    
  26 C26          -10.1917     1.8405     0.3420 C.ar    
  27 C27          -10.8302     1.3617     1.4757 C.ar    
  28 C28          -12.0967     1.8231     1.7810 C.ar    
  29 N29          -12.6966     2.7078     1.0087 N.ar    
  30 O30           -5.6086     1.7695     3.2339 O.3     
  31 H31            2.4887     0.1993    -0.0203 H       
  32 H32            4.5901     1.4611    -0.0335 H       
  33 H33            2.4006     5.1374     0.0072 H       
  34 H34            0.2901     3.8906     0.0099 H       
  35 H35            5.6971     5.9265    -0.0195 H       
  36 H36            4.1509     5.8297    -0.8959 H       
  37 H37            4.1672     5.8201     0.8840 H       
  38 H38           -4.5411     1.1487    -0.9423 H       
  39 H39           -3.7023     2.7111    -1.0926 H       
  40 H40           -2.4806     0.1224    -0.0317 H       
  41 H41           -2.1722     0.8422    -1.6310 H       
  42 H42           -1.2388     2.8610    -0.5639 H       
  43 H43           -1.7637     1.3750     2.0522 H       
  44 H44           -0.9622     2.9565     1.8865 H       
  45 H45           -3.0202     3.9030     0.8902 H       
  46 H46           -3.3581     3.2158     2.4968 H       
  47 H47           -6.3954     0.7413     1.0342 H       
  48 H48           -6.2571     1.4617    -0.5874 H       
  49 H49           -5.4830     3.5882     0.4155 H       
  50 H50           -5.0244     3.7123     2.8365 H       
  51 H51           -7.3912     3.6880     3.6359 H       
  52 H52           -7.2378     4.4465     2.0321 H       
  53 H53           -9.1523     2.8777     2.0797 H       
  54 H54           -8.0646     1.5578     2.5719 H       
  55 H55           -8.6925     1.3916    -1.1090 H       
  56 H56           -8.6745     0.3399     0.3269 H       
  57 H57          -12.6406     3.9117    -0.6826 H       
  58 H58          -10.3871     3.1638    -1.3361 H       
  59 H59          -10.3441     0.6371     2.1121 H       
  60 H60          -12.6008     1.4550     2.6624 H       
  61 H61           -5.7858     1.8871     4.1772 H       
@<TRIPOS>BOND
   1    1    2 2
   2    1    3 1
   3    1   14 1
   4    3    4 ar
   5    3    8 ar
   6    4    5 ar
   7    4   31 1
   8    5    6 ar
   9    5   32 1
  10    6    7 ar
  11    6    9 1
  12    7    8 ar
  13    7   33 1
  14    8   34 1
  15    9   10 1
  16   10   35 1
  17   10   36 1
  18   10   37 1
  19   11   12 1
  20   11   16 1
  21   11   19 1
  22   12   13 1
  23   12   38 1
  24   12   39 1
  25   13   14 1
  26   13   40 1
  27   13   41 1
  28   14   15 1
  29   14   42 1
  30   15   16 1
  31   15   43 1
  32   15   44 1
  33   16   45 1
  34   16   46 1
  35   17   18 1
  36   17   22 1
  37   17   23 1
  38   18   19 1
  39   18   47 1
  40   18   48 1
  41   19   20 1
  42   19   49 1
  43   20   21 1
  44   20   30 1
  45   20   50 1
  46   21   22 1
  47   21   51 1
  48   21   52 1
  49   22   53 1
  50   22   54 1
  51   23   26 1
  52   23   55 1
  53   23   56 1
  54   24   25 ar
  55   24   29 ar
  56   24   57 1
  57   25   26 ar
  58   25   58 1
  59   26   27 ar
  60   27   28 ar
  61   27   59 1
  62   28   29 ar
  63   28   60 1
  64   30   61 1

#	End of record

