#	Name: ASD01200512
#	Creating user name:	WinNT
#	Creation time:	15. 06. 2019 19:09

#	Modifying user name:	WinNT
#	Modification time:	15. 06. 2019 19:09

#	Program:	/corina/corina34_cracker 3.40 0067  02.08.2006

@<TRIPOS>MOLECULE
ASD01200512
  25   26    0    0    0
SMALL
NO_CHARGES


@<TRIPOS>ATOM
   1 N1            -0.0032     1.2903    -0.2824 N.ar    
   2 C2             0.0063    -0.0184    -0.1279 C.ar    
   3 C3             1.1886    -0.7375    -0.2492 C.ar    
   4 C4             2.3677    -0.0550    -0.5377 C.ar    
   5 C5             2.3109     1.3206    -0.6923 C.ar    
   6 C6             1.0960     1.9658    -0.5560 C.ar    
   7 N7             1.1948    -2.1263    -0.0837 N.am    
   8 C8             0.0855    -2.7584     0.3479 C.2     
   9 C9             2.4071    -2.8938    -0.3795 C.3     
  10 O10           -0.9159    -2.1188     0.6112 O.2     
  11 C11            0.0852    -4.2160     0.5003 C.2     
  12 C12           -1.0151    -4.9866     0.7520 C.2     
  13 C13           -0.7300    -6.3284     0.8420 C.2     
  14 C14            0.5581    -6.6478     0.6704 C.2     
  15 S15            1.4992    -5.2543     0.3812 S.3     
  16 H16           -0.9143    -0.5371     0.0956 H       
  17 H17            3.3034    -0.5849    -0.6380 H       
  18 H18            3.2057     1.8825    -0.9161 H       
  19 H19            1.0461     3.0380    -0.6759 H       
  20 H20            2.9610    -3.0680     0.5430 H       
  21 H21            2.1322    -3.8501    -0.8243 H       
  22 H22            3.0302    -2.3343    -1.0772 H       
  23 H23           -2.0095    -4.5817     0.8685 H       
  24 H24           -1.4900    -7.0704     1.0373 H       
  25 H25            0.9498    -7.6535     0.7102 H       
@<TRIPOS>BOND
   1    1    2 ar
   2    1    6 ar
   3    2    3 ar
   4    2   16 1
   5    3    4 ar
   6    3    7 1
   7    4    5 ar
   8    4   17 1
   9    5    6 ar
  10    5   18 1
  11    6   19 1
  12    7    8 am
  13    7    9 1
  14    8   10 2
  15    8   11 1
  16    9   20 1
  17    9   21 1
  18    9   22 1
  19   11   12 2
  20   11   15 1
  21   12   13 1
  22   12   23 1
  23   13   14 2
  24   13   24 1
  25   14   15 1
  26   14   25 1

#	End of record

