#	Name: ASD01880842
#	Creating user name:	WinNT
#	Creation time:	15. 06. 2019 19:41

#	Modifying user name:	WinNT
#	Modification time:	15. 06. 2019 19:41

#	Program:	/corina/corina34_cracker 3.40 0067  02.08.2006

@<TRIPOS>MOLECULE
ASD01880842
  66   69    0    0    0
SMALL
NO_CHARGES


@<TRIPOS>ATOM
   1 N1            -0.0158     1.3136     0.0093 N.ar    
   2 C2             0.0021    -0.0041     0.0020 C.ar    
   3 N3             1.1321    -0.6824    -0.0120 N.ar    
   4 C4             2.2981    -0.0570    -0.0197 C.ar    
   5 C5             2.3199     1.3290    -0.0130 C.ar    
   6 C6             1.1114     2.0071     0.0022 C.ar    
   7 C7             3.6262     2.0803    -0.0209 C.3     
   8 O8             4.0270     2.3245    -1.3706 O.3     
   9 C9             5.1917     2.9962    -1.5555 C.ar    
  10 C10            5.6406     3.2675    -2.8444 C.ar    
  11 C11            6.8186     3.9473    -3.0300 C.ar    
  12 C12            7.5727     4.3703    -1.9303 C.ar    
  13 C13            7.1171     4.0955    -0.6379 C.ar    
  14 C14            5.9321     3.4174    -0.4574 C.ar    
  15 C15            7.5713     4.3929    -4.2590 C.3     
  16 N16            8.7743     5.0803    -3.7758 N.am    
  17 C17            8.7710     5.0650    -2.4319 C.2     
  18 O18            9.6342     5.5552    -1.7298 O.2     
  19 C19            1.0812     3.5137     0.0096 C.3     
  20 C20            1.0571     4.0227    -1.4086 C.ar    
  21 C21           -0.1509     4.2320    -2.0473 C.ar    
  22 C22           -0.1730     4.6988    -3.3483 C.ar    
  23 C23            1.0127     4.9567    -4.0104 C.ar    
  24 C24            2.2206     4.7482    -3.3714 C.ar    
  25 C25            2.2427     4.2855    -2.0689 C.ar    
  26 C26            7.5607     5.9926     0.8962 C.3     
  27 C27            7.9191     4.5445     0.5563 C.3     
  28 C28            9.4496     7.1440    -4.9012 C.3     
  29 C29            9.8088     5.6837    -4.6195 C.3     
  30 C30           -1.7602    -1.0018    -1.4291 C.3     
  31 C31           -1.3043    -0.7553     0.0105 C.3     
  32 C32            4.0074    -1.0994    -1.4829 C.3     
  33 C33            3.5851    -0.8409    -0.0352 C.3     
  34 H34            3.5022     3.0303     0.4989 H       
  35 H35            4.3894     1.4874     0.4831 H       
  36 H36            5.0631     2.9433    -3.6975 H       
  37 H37            5.5804     3.2058     0.5416 H       
  38 H38            7.8503     3.5284    -4.8614 H       
  39 H39            6.9588     5.0773    -4.8459 H       
  40 H40            0.1893     3.8567     0.5340 H       
  41 H41            1.9688     3.8925     0.5165 H       
  42 H42           -1.0773     4.0305    -1.5301 H       
  43 H43           -1.1168     4.8617    -3.8476 H       
  44 H44            0.9954     5.3207    -5.0271 H       
  45 H45            3.1471     4.9493    -3.8888 H       
  46 H46            3.1864     4.1226    -1.5696 H       
  47 H47            8.1408     6.3173     1.7600 H       
  48 H48            7.7884     6.6329     0.0440 H       
  49 H49            6.4974     6.0591     1.1268 H       
  50 H50            7.6914     3.9042     1.4085 H       
  51 H51            8.9824     4.4779     0.3257 H       
  52 H52           10.2194     7.5930    -5.5289 H       
  53 H53            8.4895     7.1894    -5.4152 H       
  54 H54            9.3841     7.6901    -3.9601 H       
  55 H55           10.7690     5.6384    -4.1055 H       
  56 H56            9.8743     5.1377    -5.5606 H       
  57 H57           -1.0065    -1.5894    -1.9533 H       
  58 H58           -2.7050    -1.5452    -1.4230 H       
  59 H59           -1.8937    -0.0465    -1.9366 H       
  60 H60           -1.1707    -1.7107     0.5179 H       
  61 H61           -2.0580    -0.1677     0.5347 H       
  62 H62            3.2295    -1.6681    -1.9923 H       
  63 H63            4.1554    -0.1479    -1.9937 H       
  64 H64            4.9383    -1.6664    -1.4941 H       
  65 H65            4.3631    -0.2722     0.4741 H       
  66 H66            3.4372    -1.7924     0.4755 H       
@<TRIPOS>BOND
   1    1    2 ar
   2    1    6 ar
   3    2    3 ar
   4    2   31 1
   5    3    4 ar
   6    4    5 ar
   7    4   33 1
   8    5    6 ar
   9    5    7 1
  10    6   19 1
  11    7    8 1
  12    7   34 1
  13    7   35 1
  14    8    9 1
  15    9   10 ar
  16    9   14 ar
  17   10   11 ar
  18   10   36 1
  19   11   12 ar
  20   11   15 1
  21   12   13 ar
  22   12   17 1
  23   13   14 ar
  24   13   27 1
  25   14   37 1
  26   15   16 1
  27   15   38 1
  28   15   39 1
  29   16   17 am
  30   16   29 1
  31   17   18 2
  32   19   20 1
  33   19   40 1
  34   19   41 1
  35   20   21 ar
  36   20   25 ar
  37   21   22 ar
  38   21   42 1
  39   22   23 ar
  40   22   43 1
  41   23   24 ar
  42   23   44 1
  43   24   25 ar
  44   24   45 1
  45   25   46 1
  46   26   27 1
  47   26   47 1
  48   26   48 1
  49   26   49 1
  50   27   50 1
  51   27   51 1
  52   28   29 1
  53   28   52 1
  54   28   53 1
  55   28   54 1
  56   29   55 1
  57   29   56 1
  58   30   31 1
  59   30   57 1
  60   30   58 1
  61   30   59 1
  62   31   60 1
  63   31   61 1
  64   32   33 1
  65   32   62 1
  66   32   63 1
  67   32   64 1
  68   33   65 1
  69   33   66 1

#	End of record

