#	Name: ASD01870279
#	Creating user name:	WinNT
#	Creation time:	15. 06. 2019 19:38

#	Modifying user name:	WinNT
#	Modification time:	15. 06. 2019 19:38

#	Program:	/corina/corina34_cracker 3.40 0067  02.08.2006

@<TRIPOS>MOLECULE
ASD01870279
  54   58    0    0    0
SMALL
NO_CHARGES


@<TRIPOS>ATOM
   1 C1            -0.0162     1.3398     0.0094 C.2     
   2 N2             0.0021    -0.0041     0.0020 N.am    
   3 C3             1.3998    -0.4509    -0.0137 C.3     
   4 C4             2.2410     0.8006    -0.0150 C.ar    
   5 C5             3.6215     1.0281    -0.0270 C.ar    
   6 C6             4.1060     2.3623    -0.0245 C.ar    
   7 C7             3.1922     3.4320    -0.0100 C.ar    
   8 C8             1.8575     3.1896     0.0014 C.ar    
   9 C9             1.3610     1.8712    -0.0009 C.ar    
  10 C10            5.4912     2.5907    -0.0360 C.ar    
  11 C11            6.3499     1.5338    -0.0494 C.ar    
  12 C12            5.8752     0.2240    -0.0524 C.ar    
  13 C13            4.5394    -0.0370    -0.0410 C.ar    
  14 O14           -1.0232     2.0206     0.0181 O.2     
  15 C15            3.6978     4.8516    -0.0068 C.3     
  16 C16            2.9768     5.8936    -2.1691 C.ar    
  17 C17            3.9699     5.2912    -1.4223 C.ar    
  18 C18            5.2215     5.0954    -1.9893 C.ar    
  19 C19            5.4289     5.5145    -3.2921 C.ar    
  20 C20            4.3840     6.1131    -3.9838 C.ar    
  21 N21            3.2046     6.2821    -3.4092 N.ar    
  22 O22            4.5746     6.5283    -5.2614 O.3     
  23 C23            3.4611     7.1365    -5.9189 C.3     
  24 C24           -2.0040    -0.6070     1.2673 C.3     
  25 C25           -1.1752    -0.8760     0.0086 C.3     
  26 C26           -2.0318    -0.5888    -1.2284 C.3     
  27 C27           -3.2973    -1.4499    -1.1707 C.3     
  28 C28           -4.0442    -1.1588     0.1336 C.3     
  29 O29           -3.1812    -1.4169     1.2430 O.3     
  30 O30           -1.2903    -0.9072    -2.4078 O.3     
  31 H31            1.6133    -1.0452     0.8748 H       
  32 H32            1.5963    -1.0356    -0.9125 H       
  33 H33            1.1659     4.0190     0.0128 H       
  34 H34            5.8742     3.6005    -0.0346 H       
  35 H35            7.4148     1.7137    -0.0583 H       
  36 H36            6.5775    -0.5964    -0.0638 H       
  37 H37            4.1860    -1.0576    -0.0434 H       
  38 H38            2.9464     5.5039     0.4382 H       
  39 H39            4.6182     4.9082     0.5745 H       
  40 H40            1.9998     6.0442    -1.7342 H       
  41 H41            6.0155     4.6271    -1.4267 H       
  42 H42            6.3906     5.3781    -3.7643 H       
  43 H43            3.1527     8.0235    -5.3656 H       
  44 H44            3.7480     7.4212    -6.9311 H       
  45 H45            2.6333     6.4287    -5.9613 H       
  46 H46           -1.4134    -0.8506     2.1504 H       
  47 H47           -2.2872     0.4451     1.2981 H       
  48 H48           -0.8575    -1.9186    -0.0024 H       
  49 H49           -2.3084     0.4654    -1.2436 H       
  50 H50           -3.9390    -1.2116    -2.0189 H       
  51 H51           -3.0224    -2.5041    -1.2055 H       
  52 H52           -4.3541    -0.1139     0.1496 H       
  53 H53           -4.9232    -1.7998     0.2000 H       
  54 H54           -1.7731    -0.7492    -3.2306 H       
@<TRIPOS>BOND
   1    1    2 am
   2    1    9 1
   3    1   14 2
   4    2    3 1
   5    2   25 1
   6    3    4 1
   7    3   31 1
   8    3   32 1
   9    4    5 ar
  10    4    9 ar
  11    5    6 ar
  12    5   13 ar
  13    6    7 ar
  14    6   10 ar
  15    7    8 ar
  16    7   15 1
  17    8    9 ar
  18    8   33 1
  19   10   11 ar
  20   10   34 1
  21   11   12 ar
  22   11   35 1
  23   12   13 ar
  24   12   36 1
  25   13   37 1
  26   15   17 1
  27   15   38 1
  28   15   39 1
  29   16   17 ar
  30   16   21 ar
  31   16   40 1
  32   17   18 ar
  33   18   19 ar
  34   18   41 1
  35   19   20 ar
  36   19   42 1
  37   20   21 ar
  38   20   22 1
  39   22   23 1
  40   23   43 1
  41   23   44 1
  42   23   45 1
  43   24   29 1
  44   24   25 1
  45   24   46 1
  46   24   47 1
  47   25   26 1
  48   25   48 1
  49   26   27 1
  50   26   30 1
  51   26   49 1
  52   27   28 1
  53   27   50 1
  54   27   51 1
  55   28   29 1
  56   28   52 1
  57   28   53 1
  58   30   54 1

#	End of record

