#	Name: ASD00461017
#	Creating user name:	WinNT
#	Creation time:	15. 06. 2019 18:36

#	Modifying user name:	WinNT
#	Modification time:	15. 06. 2019 18:36

#	Program:	/corina/corina34_cracker 3.40 0067  02.08.2006

@<TRIPOS>MOLECULE
ASD00461017
  34   36    0    0    0
SMALL
NO_CHARGES


@<TRIPOS>ATOM
   1 C1            -0.0152     1.3552     0.1126 C.ar    
   2 C2             0.0071    -0.0058     0.1517 C.ar    
   3 C3             1.1588     2.0808    -0.0342 C.ar    
   4 C4             1.2273    -0.7033     0.0433 C.ar    
   5 C5             2.3650     1.4265    -0.1428 C.ar    
   6 N6             1.4646    -2.0287     0.0584 N.2     
   7 C7             2.4071     0.0343    -0.1045 C.ar    
   8 C8             2.6769    -2.4202    -0.0584 C.2     
   9 S9             3.7486    -1.1011    -0.2124 S.3     
  10 C10            3.1051    -3.8650    -0.0589 C.3     
  11 O11            2.4969    -4.5417    -1.1608 O.3     
  12 C12            4.6275    -3.9458    -0.1883 C.3     
  13 C13            2.6752    -4.5168     1.2301 C.ar    
  14 C14            1.8171    -5.5998     1.2040 C.ar    
  15 C15            1.4223    -6.1982     2.3860 C.ar    
  16 C16            1.8858    -5.7129     3.5958 C.ar    
  17 C17            2.7449    -4.6287     3.6225 C.ar    
  18 C18            3.1443    -4.0343     2.4393 C.ar    
  19 C19            5.0723    -5.4052    -0.0742 C.3     
  20 Cl20           1.3890    -6.4637     5.0801 Cl      
  21 Cl21           4.2227    -2.6743     2.4717 Cl      
  22 H22           -0.9579     1.8760     0.1924 H       
  23 H23           -0.9161    -0.5544     0.2668 H       
  24 H24            1.1259     3.1599    -0.0635 H       
  25 H25            3.2780     1.9918    -0.2578 H       
  26 H26            1.5301    -4.5306    -1.1440 H       
  27 H27            4.9315    -3.5479    -1.1564 H       
  28 H28            5.0912    -3.3615     0.6065 H       
  29 H29            1.4545    -5.9785     0.2599 H       
  30 H30            0.7517    -7.0444     2.3651 H       
  31 H31            3.1069    -4.2495     4.5667 H       
  32 H32            4.8554    -5.7739     0.9283 H       
  33 H33            4.5349    -6.0072    -0.8070 H       
  34 H34            6.1437    -5.4743    -0.2628 H       
@<TRIPOS>BOND
   1    1    2 ar
   2    1    3 ar
   3    1   22 1
   4    2    4 ar
   5    2   23 1
   6    3    5 ar
   7    3   24 1
   8    4    6 1
   9    4    7 ar
  10    5    7 ar
  11    5   25 1
  12    6    8 2
  13    7    9 1
  14    8   10 1
  15    8    9 1
  16   10   11 1
  17   10   12 1
  18   10   13 1
  19   11   26 1
  20   12   19 1
  21   12   27 1
  22   12   28 1
  23   13   14 ar
  24   13   18 ar
  25   14   15 ar
  26   14   29 1
  27   15   16 ar
  28   15   30 1
  29   16   17 ar
  30   16   20 1
  31   17   18 ar
  32   17   31 1
  33   18   21 1
  34   19   32 1
  35   19   33 1
  36   19   34 1

#	End of record

