#	Name: ASD01351013
#	Creating user name:	WinNT
#	Creation time:	15. 06. 2019 19:16

#	Modifying user name:	WinNT
#	Modification time:	15. 06. 2019 19:16

#	Program:	/corina/corina34_cracker 3.40 0067  02.08.2006

@<TRIPOS>MOLECULE
ASD01351013
  43   45    0    0    0
SMALL
NO_CHARGES


@<TRIPOS>ATOM
   1 C1            -0.0167     1.3781     0.0096 C.ar    
   2 C2            -1.3319     2.1138     0.0199 C.3     
   3 C3             0.0021    -0.0041     0.0020 C.ar    
   4 C4             1.1709     2.0855     0.0021 C.ar    
   5 C5            -1.6518     2.5796    -1.3763 C.ar    
   6 N6            -1.2400     3.2566     0.9340 N.3     
   7 C7             1.2084    -0.6789    -0.0132 C.ar    
   8 C8             2.3773     1.4107    -0.0131 C.ar    
   9 C9            -2.1620     3.8356    -1.6253 C.ar    
  10 C10           -1.4216     1.7081    -2.4333 C.ar    
  11 C11           -2.4488     4.0896     0.8314 C.3     
  12 C12            2.3960     0.0285    -0.0212 C.ar    
  13 C13           -2.4230     4.8182    -0.5127 C.3     
  14 C14           -2.4457     4.2201    -2.9269 C.ar    
  15 C15           -1.7037     2.0943    -3.7307 C.ar    
  16 C16           -2.2180     3.3529    -3.9771 C.ar    
  17 H17           -1.0923     2.9491     1.8836 H       
  18 F18           -0.9192     0.4773    -2.1924 F       
  19 C19           -5.0860     1.0160     3.7585 C.3     
  20 C20           -5.0114     1.6657     2.3752 C.3     
  21 C21           -3.7674     2.5528     2.2949 C.3     
  22 C22           -3.6928     3.2025     0.9117 C.3     
  23 H23           -2.1173     1.4406     0.3633 H       
  24 H24           -0.9258    -0.5567     0.0083 H       
  25 H25            1.1563     3.1654     0.0077 H       
  26 H26            1.2231    -1.7588    -0.0184 H       
  27 H27            3.3051     1.9634    -0.0197 H       
  28 H28           -2.4635     4.8154     1.6445 H       
  29 H29            3.3385    -0.4987    -0.0327 H       
  30 H30           -1.6340     5.5702    -0.5015 H       
  31 H31           -3.3835     5.3060    -0.6785 H       
  32 H32           -2.8475     5.2037    -3.1205 H       
  33 H33           -1.5223     1.4139    -4.5496 H       
  34 H34           -2.4416     3.6577    -4.9888 H       
  35 H35           -4.1957     0.4092     3.9234 H       
  36 H36           -5.1433     1.7920     4.5217 H       
  37 H37           -5.9723     0.3840     3.8157 H       
  38 H38           -4.9541     0.8896     1.6120 H       
  39 H39           -5.9017     2.2725     2.2103 H       
  40 H40           -3.8247     3.3288     3.0582 H       
  41 H41           -2.8771     1.9460     2.4599 H       
  42 H42           -4.5831     3.8093     0.7468 H       
  43 H43           -3.6355     2.4264     0.1484 H       
@<TRIPOS>BOND
   1    1    3 ar
   2    1    4 ar
   3    1    2 1
   4    2    5 1
   5    2    6 1
   6    2   23 1
   7    3    7 ar
   8    3   24 1
   9    4    8 ar
  10    4   25 1
  11    5    9 ar
  12    5   10 ar
  13    6   11 1
  14    6   17 1
  15    7   12 ar
  16    7   26 1
  17    8   12 ar
  18    8   27 1
  19    9   13 1
  20    9   14 ar
  21   10   18 1
  22   10   15 ar
  23   11   22 1
  24   11   13 1
  25   11   28 1
  26   12   29 1
  27   13   30 1
  28   13   31 1
  29   14   16 ar
  30   14   32 1
  31   15   16 ar
  32   15   33 1
  33   16   34 1
  34   19   20 1
  35   19   35 1
  36   19   36 1
  37   19   37 1
  38   20   21 1
  39   20   38 1
  40   20   39 1
  41   21   22 1
  42   21   40 1
  43   21   41 1
  44   22   42 1
  45   22   43 1

#	End of record

