#	Name: ASD01120325
#	Creating user name:	WinNT
#	Creation time:	15. 06. 2019 18:59

#	Modifying user name:	WinNT
#	Modification time:	15. 06. 2019 18:59

#	Program:	/corina/corina34_cracker 3.40 0067  02.08.2006

@<TRIPOS>MOLECULE
ASD01120325
  31   33    0    0    0
SMALL
NO_CHARGES


@<TRIPOS>ATOM
   1 Cl1            0.0021    -0.0041     0.0020 Cl      
   2 C2            -0.0215     1.7317     0.0116 C.ar    
   3 C3             1.1685     2.4391     0.0040 C.ar    
   4 C4             1.1573     3.8224     0.0120 C.ar    
   5 C5            -0.0413     4.5056     0.0276 C.ar    
   6 C6            -1.2441     3.7990     0.0348 C.ar    
   7 C7            -1.2275     2.4049     0.0209 C.ar    
   8 C8            -2.5340     4.5272     0.0520 C.ar    
   9 C9            -2.7553     5.5355     0.9782 C.ar    
  10 C10           -3.9621     6.2177     0.9953 C.ar    
  11 C11           -4.9599     5.9092     0.0966 C.ar    
  12 C12           -4.7678     4.9019    -0.8453 C.ar    
  13 C13           -3.5456     4.2044    -0.8780 C.ar    
  14 C14           -3.6369     3.2560    -1.9204 C.2     
  15 C15           -4.8668     3.3820    -2.4890 C.2     
  16 N16           -5.5619     4.3863    -1.8428 N.pl3   
  17 C17           -5.3724     2.5823    -3.6120 C.2     
  18 O18           -4.6715     1.7230    -4.1104 O.2     
  19 O19           -6.6141     2.8011    -4.0905 O.3     
  20 N20           -6.2406     6.6507     0.1331 N.pl3   
  21 O21           -6.4109     7.5319     0.9565 O.2     
  22 O22           -7.1241     6.3796    -0.6604 O.2     
  23 H23            2.1094     1.9089    -0.0078 H       
  24 H24            2.0888     4.3689     0.0064 H       
  25 H25           -0.0484     5.5855     0.0345 H       
  26 H26           -2.1556     1.8526     0.0265 H       
  27 H27           -1.9839     5.7903     1.6898 H       
  28 H28           -4.1221     7.0004     1.7221 H       
  29 H29           -2.8683     2.5564    -2.2139 H       
  30 H30           -6.4630     4.6763    -2.0544 H       
  31 H31           -6.9028     2.2498    -4.8306 H       
@<TRIPOS>BOND
   1    1    2 1
   2    2    3 ar
   3    2    7 ar
   4    3    4 ar
   5    3   23 1
   6    4    5 ar
   7    4   24 1
   8    5    6 ar
   9    5   25 1
  10    6    7 ar
  11    6    8 1
  12    7   26 1
  13    8    9 ar
  14    8   13 ar
  15    9   10 ar
  16    9   27 1
  17   10   11 ar
  18   10   28 1
  19   11   12 ar
  20   11   20 1
  21   12   13 ar
  22   12   16 1
  23   13   14 1
  24   14   15 2
  25   14   29 1
  26   15   16 1
  27   15   17 1
  28   16   30 1
  29   17   18 2
  30   17   19 1
  31   19   31 1
  32   20   21 2
  33   20   22 2

#	End of record

