#	Name: ASD05430653
#	Creating user name:	WinNT
#	Creation time:	15. 06. 2019 21:00

#	Modifying user name:	WinNT
#	Modification time:	15. 06. 2019 21:00

#	Program:	/corina/corina34_cracker 3.40 0067  02.08.2006

@<TRIPOS>MOLECULE
ASD05430653
  37   38    0    0    0
SMALL
NO_CHARGES


@<TRIPOS>ATOM
   1 C1            -0.0360     1.3580     0.1545 C.ar    
   2 C2            -0.0378    -0.0222     0.0082 C.ar    
   3 C3            -1.2424    -0.7108    -0.0411 C.ar    
   4 C4            -2.4349    -0.0211     0.0554 C.ar    
   5 C5            -2.4301     1.3543     0.2007 C.ar    
   6 C6            -1.2320     2.0420     0.2563 C.ar    
   7 C7            -3.7331     2.1041     0.3047 C.3     
   8 N8             1.1747    -0.7198    -0.0901 N.pl3   
   9 C9             2.1306    -0.5479    -1.0398 C.2     
  10 C10            1.6220    -1.7001     0.7577 C.2     
  11 C11            2.8246    -2.0944     0.2978 C.2     
  12 N12            3.1101    -1.3760    -0.7982 N.2     
  13 C13            3.7004    -3.1564     0.9113 C.3     
  14 Si14           1.5821     2.2890     0.2213 Si      
  15 C15            2.1811     2.6182    -1.5118 C.3     
  16 C16            1.3312     3.9073     1.1095 C.3     
  17 C17            2.8476     1.2700     1.1327 C.3     
  18 H18           -1.2468    -1.7848    -0.1553 H       
  19 H19           -3.3723    -0.5562     0.0171 H       
  20 H20           -1.2312     3.1160     0.3698 H       
  21 H21           -4.0278     2.1769     1.3516 H       
  22 H22           -3.6103     3.1052    -0.1086 H       
  23 H23           -4.5038     1.5726    -0.2535 H       
  24 H24            2.0870     0.1556    -1.8580 H       
  25 H25            1.1086    -2.0823     1.6276 H       
  26 H26            3.4550    -4.1254     0.4767 H       
  27 H27            4.7467    -2.9237     0.7129 H       
  28 H28            3.5330    -3.1882     1.9879 H       
  29 H29            1.4010     3.1307    -2.0747 H       
  30 H30            3.0732     3.2435    -1.4752 H       
  31 H31            2.4197     1.6730    -1.9994 H       
  32 H32            0.9807     3.7147     2.1235 H       
  33 H33            2.2753     4.4505     1.1485 H       
  34 H34            0.5907     4.5035     0.5762 H       
  35 H35            3.0706     0.3700     0.5597 H       
  36 H36            3.7592     1.8535     1.2621 H       
  37 H37            2.4536     0.9903     2.1098 H       
@<TRIPOS>BOND
   1    1    2 ar
   2    1   14 1
   3    1    6 ar
   4    2    3 ar
   5    2    8 1
   6    3    4 ar
   7    3   18 1
   8    4    5 ar
   9    4   19 1
  10    5    6 ar
  11    5    7 1
  12    6   20 1
  13    7   21 1
  14    7   22 1
  15    7   23 1
  16    8    9 1
  17    8   10 1
  18    9   12 2
  19    9   24 1
  20   10   11 2
  21   10   25 1
  22   11   12 1
  23   11   13 1
  24   13   26 1
  25   13   27 1
  26   13   28 1
  27   14   15 1
  28   14   16 1
  29   14   17 1
  30   15   29 1
  31   15   30 1
  32   15   31 1
  33   16   32 1
  34   16   33 1
  35   16   34 1
  36   17   35 1
  37   17   36 1
  38   17   37 1

#	End of record

