#	Name: ASD03082384
#	Creating user name:	WinNT
#	Creation time:	15. 06. 2019 20:27

#	Modifying user name:	WinNT
#	Modification time:	15. 06. 2019 20:27

#	Program:	/corina/corina34_cracker 3.40 0067  02.08.2006

@<TRIPOS>MOLECULE
ASD03082384
  41   43    0    0    0
SMALL
NO_CHARGES


@<TRIPOS>ATOM
   1 C1            -0.0842    -2.7982    -0.5051 C.ar    
   2 C2            -1.1784    -2.1166     0.0129 C.ar    
   3 C3            -2.2528    -2.8255     0.5338 C.ar    
   4 C4            -2.2304    -4.2111     0.5354 C.ar    
   5 C5            -1.1350    -4.8877     0.0169 C.ar    
   6 C6            -0.0655    -4.1807    -0.5017 C.ar    
   7 Cl7            1.3028    -5.0305    -1.1494 Cl      
   8 N8            -1.1975    -0.7198     0.0101 N.pl3   
   9 C9            -2.4153    -0.0372    -0.0798 C.2     
  10 C10           -2.5890     1.3543     0.0155 C.2     
  11 N11           -3.5921    -0.5850    -0.2733 N.2     
  12 N12           -4.5508     0.4360    -0.3022 N.pl3   
  13 C13           -3.9075     1.6191    -0.1223 C.2     
  14 C14           -5.9264     0.2676    -0.4874 C.ar    
  15 C15           -6.8414     1.0912     0.1653 C.ar    
  16 C16           -6.4175    -0.7246    -1.3341 C.ar    
  17 C17           -7.7818    -0.8579    -1.4902 C.ar    
  18 N18           -8.6169    -0.0612    -0.8503 N.ar    
  19 C19           -8.1909     0.8927    -0.0445 C.ar    
  20 C20           -8.3252    -1.9266    -2.4032 C.3     
  21 H21           -8.9075     1.5235     0.4605 H       
  22 O22           -3.2804    -4.9073     1.0451 O.3     
  23 C23           -3.1896    -6.3331     1.0143 C.3     
  24 C24           -4.5488     2.9823    -0.0828 C.3     
  25 O25           -3.5431     3.9760     0.1248 O.3     
  26 H26            0.7501    -2.2480    -0.9146 H       
  27 H27           -3.1043    -2.2979     0.9373 H       
  28 H28           -1.1178    -5.9675     0.0187 H       
  29 H29           -0.3665    -0.2232     0.0704 H       
  30 H30           -1.8074     2.0831     0.1715 H       
  31 H31           -6.4994     1.8736     0.8265 H       
  32 H32           -5.7396    -1.3797    -1.8609 H       
  33 H33           -8.4819    -2.8440    -1.8359 H       
  34 H34           -9.2733    -1.5950    -2.8268 H       
  35 H35           -7.6136    -2.1137    -3.2074 H       
  36 H36           -3.0891    -6.6686    -0.0179 H       
  37 H37           -2.3197    -6.6542     1.5871 H       
  38 H38           -4.0910    -6.7640     1.4503 H       
  39 H39           -5.0574     3.1720    -1.0280 H       
  40 H40           -5.2712     3.0205     0.7326 H       
  41 H41           -3.8849     4.8799     0.1611 H       
@<TRIPOS>BOND
   1    1    2 ar
   2    1    6 ar
   3    1   26 1
   4    2    3 ar
   5    2    8 1
   6    3    4 ar
   7    3   27 1
   8    4    5 ar
   9    4   22 1
  10    5    6 ar
  11    5   28 1
  12    6    7 1
  13    8    9 1
  14    8   29 1
  15    9   10 1
  16    9   11 2
  17   10   13 2
  18   10   30 1
  19   11   12 1
  20   12   13 1
  21   12   14 1
  22   13   24 1
  23   14   15 ar
  24   14   16 ar
  25   15   19 ar
  26   15   31 1
  27   16   17 ar
  28   16   32 1
  29   17   18 ar
  30   17   20 1
  31   18   19 ar
  32   19   21 1
  33   20   33 1
  34   20   34 1
  35   20   35 1
  36   22   23 1
  37   23   36 1
  38   23   37 1
  39   23   38 1
  40   24   25 1
  41   24   39 1
  42   24   40 1
  43   25   41 1

#	End of record

