#	Name: ASD03091943
#	Creating user name:	WinNT
#	Creation time:	15. 06. 2019 20:31

#	Modifying user name:	WinNT
#	Modification time:	15. 06. 2019 20:31

#	Program:	/corina/corina34_cracker 3.40 0067  02.08.2006

@<TRIPOS>MOLECULE
ASD03091943
  60   64    0    0    0
SMALL
NO_CHARGES


@<TRIPOS>ATOM
   1 C1            -0.0170     1.3990     0.0097 C.ar    
   2 C2            -1.2302     2.0682     0.0306 C.ar    
   3 C3            -2.4113     1.3476     0.0434 C.ar    
   4 C4            -2.3921    -0.0379     0.0355 C.ar    
   5 C5            -1.1921    -0.7189     0.0148 C.ar    
   6 C6             0.0021    -0.0041     0.0020 C.ar    
   7 O7             1.1634     2.0662     0.0020 O.3     
   8 C8             2.2625     1.4579     0.6803 C.3     
   9 N9             2.4083     0.0563     0.2863 N.am    
  10 C10            1.3145    -0.6822    -0.0142 C.2     
  11 C11           -3.6890    -0.8053     0.0500 C.3     
  12 C12           -4.2048    -0.9467    -1.3589 C.ar    
  13 C13           -5.0429     0.0135    -1.8949 C.ar    
  14 C14           -3.8385    -2.0387    -2.1326 C.ar    
  15 C15           -4.3337    -2.1310    -3.4219 C.ar    
  16 C16           -5.1782    -1.1296    -3.8959 C.ar    
  17 N17           -5.5005    -0.0987    -3.1254 N.ar    
  18 O18            1.4088    -1.8632    -0.2876 O.2     
  19 C19            3.7407    -0.5489     0.2168 C.3     
  20 C20            3.8148    -1.7315     1.1848 C.3     
  21 C21           -5.7173    -1.2138    -5.2754 C.2     
  22 C22            5.2063    -2.3635     1.1122 C.3     
  23 C23            4.0046    -1.0390    -1.2083 C.3     
  24 C24            5.3961    -1.6710    -1.2808 C.3     
  25 C25            5.4702    -2.8536    -0.3129 C.3     
  26 O26            3.9354     0.0656    -2.1123 O.3     
  27 C27           -6.5729    -0.2782    -5.8895 C.2     
  28 C28           -6.8333    -0.7144    -7.1409 C.2     
  29 N29           -6.1739    -1.8790    -7.3224 N.pl3   
  30 N30           -5.4762    -2.1733    -6.1441 N.2     
  31 C31           -3.7303     2.0760     0.0668 C.3     
  32 F32           -1.2596     3.4188     0.0388 F       
  33 C33           -6.1828    -2.6909    -8.5418 C.3     
  34 H34           -1.1796    -1.7988     0.0090 H       
  35 H35            3.1777     1.9963     0.4343 H       
  36 H36            2.0941     1.5120     1.7559 H       
  37 H37           -3.5212    -1.7943     0.4764 H       
  38 H38           -4.4217    -0.2691     0.6531 H       
  39 H39           -5.3267     0.8669    -1.2968 H       
  40 H40           -3.1815    -2.7995    -1.7378 H       
  41 H41           -4.0687    -2.9674    -4.0517 H       
  42 H42            4.4912     0.1925     0.4909 H       
  43 H43            3.6268    -1.3824     2.2001 H       
  44 H44            3.0642    -2.4729     0.9107 H       
  45 H45            5.9568    -1.6221     1.3863 H       
  46 H46            5.2590    -3.2060     1.8018 H       
  47 H47            3.2541    -1.7804    -1.4824 H       
  48 H48            5.5841    -2.0201    -2.2961 H       
  49 H49            6.1466    -0.9296    -1.0067 H       
  50 H50            6.4615    -3.3038    -0.3646 H       
  51 H51            4.7196    -3.5950    -0.5870 H       
  52 H52            4.0931    -0.1720    -3.0363 H       
  53 H53           -6.9530     0.6270    -5.4396 H       
  54 H54           -7.4592    -0.2191    -7.8685 H       
  55 H55           -4.0632     2.2577    -0.9551 H       
  56 H56           -4.4712     1.4696     0.5879 H       
  57 H57           -3.6107     3.0277     0.5846 H       
  58 H58           -5.3686    -2.3754    -9.1943 H       
  59 H59           -6.0527    -3.7410    -8.2801 H       
  60 H60           -7.1337    -2.5603    -9.0584 H       
@<TRIPOS>BOND
   1    1    6 ar
   2    1    7 1
   3    1    2 ar
   4    2    3 ar
   5    2   32 1
   6    3    4 ar
   7    3   31 1
   8    4    5 ar
   9    4   11 1
  10    5    6 ar
  11    5   34 1
  12    6   10 1
  13    7    8 1
  14    8    9 1
  15    8   35 1
  16    8   36 1
  17    9   10 am
  18    9   19 1
  19   10   18 2
  20   11   12 1
  21   11   37 1
  22   11   38 1
  23   12   14 ar
  24   12   13 ar
  25   13   17 ar
  26   13   39 1
  27   14   15 ar
  28   14   40 1
  29   15   16 ar
  30   15   41 1
  31   16   17 ar
  32   16   21 1
  33   19   23 1
  34   19   20 1
  35   19   42 1
  36   20   22 1
  37   20   43 1
  38   20   44 1
  39   21   30 2
  40   21   27 1
  41   22   25 1
  42   22   45 1
  43   22   46 1
  44   23   24 1
  45   23   26 1
  46   23   47 1
  47   24   25 1
  48   24   48 1
  49   24   49 1
  50   25   50 1
  51   25   51 1
  52   26   52 1
  53   27   28 2
  54   27   53 1
  55   28   29 1
  56   28   54 1
  57   29   30 1
  58   29   33 1
  59   31   55 1
  60   31   56 1
  61   31   57 1
  62   33   58 1
  63   33   59 1
  64   33   60 1

#	End of record

