#	Name: ASD03092963
#	Creating user name:	WinNT
#	Creation time:	15. 06. 2019 20:33

#	Modifying user name:	WinNT
#	Modification time:	15. 06. 2019 20:33

#	Program:	/corina/corina34_cracker 3.40 0067  02.08.2006

@<TRIPOS>MOLECULE
ASD03092963
  43   45    0    0    0
SMALL
NO_CHARGES


@<TRIPOS>ATOM
   1 F1             0.0907    -0.0080     0.0148 F       
   2 C2             0.0632     1.3427     0.0203 C.ar    
   3 C3            -1.1494     2.0108     0.0371 C.ar    
   4 C4            -1.1764     3.3925     0.0426 C.ar    
   5 C5             0.0067     4.1076     0.0314 C.ar    
   6 C6            -0.0240     5.6142     0.0380 C.3     
   7 N7            -0.0175     6.0968     1.4212 N.pl3   
   8 C8            -0.0422     7.4549     1.6798 C.ar    
   9 N9             0.0360     8.3174     0.6784 N.ar    
  10 C10            0.0155     9.6204     0.8809 C.ar    
  11 C11           -0.0891    10.1463     2.1561 C.ar    
  12 C12           -0.1740     9.2916     3.2410 C.ar    
  13 C13           -0.1560     7.9125     3.0040 C.ar    
  14 C14           -0.2490     6.9574     4.1229 C.2     
  15 O15           -0.3401     5.7654     3.8989 O.2     
  16 N16           -0.2332     7.4049     5.3941 N.am    
  17 C17           -0.4163     6.5083     6.4546 C.ar    
  18 C18            0.0877     5.2114     6.3773 C.ar    
  19 C19           -0.1171     4.3603     7.4488 C.ar    
  20 C20           -0.8130     4.8230     8.5578 C.ar    
  21 O21           -1.0184     3.9953     9.6140 O.3     
  22 C22           -1.7410     4.5288    10.7255 C.3     
  23 F23           -3.0151     4.9261    10.3060 F       
  24 F24           -1.8609     3.5494    11.7172 F       
  25 F25           -1.0543     5.6332    11.2413 F       
  26 N26           -1.2776     6.0604     8.5975 N.ar    
  27 C27           -1.0967     6.9016     7.5976 C.ar    
  28 C28            1.2180     3.4415     0.0146 C.ar    
  29 C29            1.2475     2.0598     0.0148 C.ar    
  30 H30           -2.0738     1.4524     0.0455 H       
  31 H31           -2.1221     3.9139     0.0554 H       
  32 H32            0.8521     5.9978    -0.4848 H       
  33 H33           -0.9273     5.9614    -0.4636 H       
  34 H34            0.0042     5.4635     2.1557 H       
  35 H35            0.0820    10.2893     0.0356 H       
  36 H36           -0.1041    11.2161     2.3038 H       
  37 H37           -0.2560     9.6794     4.2457 H       
  38 H38           -0.0950     8.3479     5.5746 H       
  39 H39            0.6251     4.8784     5.5017 H       
  40 H40            0.2594     3.3484     7.4228 H       
  41 H41           -1.4864     7.9064     7.6679 H       
  42 H42            2.1417     4.0012     0.0055 H       
  43 H43            2.1940     1.5397     0.0062 H       
@<TRIPOS>BOND
   1    1    2 1
   2    2   29 ar
   3    2    3 ar
   4    3    4 ar
   5    3   30 1
   6    4    5 ar
   7    4   31 1
   8    5    6 1
   9    5   28 ar
  10    6    7 1
  11    6   32 1
  12    6   33 1
  13    7    8 1
  14    7   34 1
  15    8   13 ar
  16    8    9 ar
  17    9   10 ar
  18   10   11 ar
  19   10   35 1
  20   11   12 ar
  21   11   36 1
  22   12   13 ar
  23   12   37 1
  24   13   14 1
  25   14   15 2
  26   14   16 am
  27   16   17 1
  28   16   38 1
  29   17   27 ar
  30   17   18 ar
  31   18   19 ar
  32   18   39 1
  33   19   20 ar
  34   19   40 1
  35   20   21 1
  36   20   26 ar
  37   21   22 1
  38   22   23 1
  39   22   24 1
  40   22   25 1
  41   26   27 ar
  42   27   41 1
  43   28   29 ar
  44   28   42 1
  45   29   43 1

#	End of record

