#	Name: ASD01910155
#	Creating user name:	WinNT
#	Creation time:	15. 06. 2019 19:55

#	Modifying user name:	WinNT
#	Modification time:	15. 06. 2019 19:55

#	Program:	/corina/corina34_cracker 3.40 0067  02.08.2006

@<TRIPOS>MOLECULE
ASD01910155
  44   46    0    0    0
SMALL
NO_CHARGES


@<TRIPOS>ATOM
   1 C1            -0.0795     1.2914    -0.1197 C.ar    
   2 C2             0.9936     1.7333     0.6354 C.ar    
   3 C3             0.8681     2.8553     1.4368 C.ar    
   4 C4            -0.3295     3.5409     1.4871 C.ar    
   5 C5            -1.4148     3.1005     0.7279 C.ar    
   6 C6            -1.2805     1.9718    -0.0822 C.ar    
   7 C7            -2.6996     3.8299     0.7772 C.2     
   8 N8            -3.7458     3.4024     0.0430 N.am    
   9 C9            -4.9879     4.0340     0.1616 C.ar    
  10 C10           -5.0532     5.4046     0.3665 C.ar    
  11 C11           -6.2878     6.0276     0.4832 C.ar    
  12 C12           -7.4538     5.2776     0.3945 C.ar    
  13 C13           -7.3853     3.9127     0.1905 C.ar    
  14 C14           -6.1581     3.2903     0.0686 C.ar    
  15 N15           -6.3581     7.4089     0.6902 N.am    
  16 C16           -7.3530     8.1246     0.1295 C.2     
  17 C17           -7.3704     9.5936     0.2625 C.ar    
  18 C18           -6.3578    10.2470     0.9688 C.ar    
  19 C19           -6.3796    11.6198     1.0890 C.ar    
  20 C20           -7.4019    12.3557     0.5129 C.ar    
  21 C21           -8.4093    11.7224    -0.1880 C.ar    
  22 C22           -8.4002    10.3425    -0.3240 C.ar    
  23 O23           -9.3888     9.7191    -1.0127 O.3     
  24 C24          -10.4103    10.5465    -1.5732 C.3     
  25 O25           -2.8125     4.8153     1.4801 O.2     
  26 O26           -8.2363     7.5594    -0.4861 O.2     
  27 Cl27           2.2189     3.4010     2.3808 Cl      
  28 Cl28           0.0874    -0.1168    -1.1211 Cl      
  29 H29            1.9323     1.2004     0.5993 H       
  30 H30           -0.4263     4.4157     2.1129 H       
  31 H31           -2.1166     1.6266    -0.6721 H       
  32 H32           -3.6373     2.6566    -0.5677 H       
  33 H33           -4.1453     5.9854     0.4353 H       
  34 H34           -8.4149     5.7618     0.4856 H       
  35 H35           -8.2932     3.3318     0.1219 H       
  36 H36           -6.1079     2.2233    -0.0912 H       
  37 H37           -5.6908     7.8519     1.2373 H       
  38 H38           -5.5591     9.6772     1.4202 H       
  39 H39           -5.5962    12.1241     1.6353 H       
  40 H40           -7.4115    13.4310     0.6128 H       
  41 H41           -9.2032    12.3030    -0.6341 H       
  42 H42           -9.9632    11.2504    -2.2751 H       
  43 H43          -11.1362     9.9237    -2.0958 H       
  44 H44          -10.9105    11.0964    -0.7760 H       
@<TRIPOS>BOND
   1    1    2 ar
   2    1   28 1
   3    1    6 ar
   4    2    3 ar
   5    2   29 1
   6    3    4 ar
   7    3   27 1
   8    4    5 ar
   9    4   30 1
  10    5    6 ar
  11    5    7 1
  12    6   31 1
  13    7    8 am
  14    7   25 2
  15    8    9 1
  16    8   32 1
  17    9   10 ar
  18    9   14 ar
  19   10   11 ar
  20   10   33 1
  21   11   12 ar
  22   11   15 1
  23   12   13 ar
  24   12   34 1
  25   13   14 ar
  26   13   35 1
  27   14   36 1
  28   15   16 am
  29   15   37 1
  30   16   17 1
  31   16   26 2
  32   17   18 ar
  33   17   22 ar
  34   18   19 ar
  35   18   38 1
  36   19   20 ar
  37   19   39 1
  38   20   21 ar
  39   20   40 1
  40   21   22 ar
  41   21   41 1
  42   22   23 1
  43   23   24 1
  44   24   42 1
  45   24   43 1
  46   24   44 1

#	End of record

