#	Name: ASD01209172
#	Creating user name:	WinNT
#	Creation time:	15. 06. 2019 19:11

#	Modifying user name:	WinNT
#	Modification time:	15. 06. 2019 19:11

#	Program:	/corina/corina34_cracker 3.40 0067  02.08.2006

@<TRIPOS>MOLECULE
ASD01209172
  68   70    0    0    0
SMALL
NO_CHARGES


@<TRIPOS>ATOM
   1 O1             2.2017     0.6130    -0.5019 O.3     
   2 O2             3.7141     1.9491     1.1832 O.3     
   3 C3             3.1968     7.0301    -8.3512 C.ar    
   4 C4             2.4942     6.9642    -9.5455 C.ar    
   5 C5             1.3326     6.2102    -9.6310 C.ar    
   6 C6             0.8702     5.5190    -8.5237 C.ar    
   7 C7             1.5739     5.5824    -7.3202 C.ar    
   8 C8             2.7443     6.3377    -7.2400 C.ar    
   9 O9             0.6476     6.1498   -10.8033 O.3     
  10 C10            1.0836     4.8472    -6.1352 C.2     
  11 N11            1.7647     4.9098    -4.9739 N.am    
  12 O12            0.0661     4.1861    -6.2082 O.2     
  13 C13            1.3040     4.2190    -3.8605 C.2     
  14 P14            3.0153     1.9823    -0.2668 P.3     
  15 O15            4.0537     2.1247    -1.3118 O.2     
  16 C16            1.8662     3.3947    -0.3555 C.3     
  17 N17            1.8813     4.2118    -2.6997 N.2     
  18 S18           -0.1109     3.2601    -3.8192 S.3     
  19 C19            0.1864     2.8756    -2.1259 C.2     
  20 C20            1.3049     3.4989    -1.7502 C.2     
  21 C21            2.8370    -0.6636    -0.5951 C.3     
  22 C22            1.7781    -1.7452    -0.8184 C.3     
  23 C23            4.7441     1.0212     1.5298 C.3     
  24 C24            5.1831     1.2629     2.9754 C.3     
  25 O25            4.3337     7.7705    -8.2728 O.3     
  26 C26            4.9415     7.8916    -6.9851 C.3     
  27 C27            5.7868     9.1661    -6.9380 C.3     
  28 C28            5.8352     6.6770    -6.7267 C.3     
  29 O29            6.8730     9.0516    -7.8594 O.3     
  30 C30            1.2281     6.8119   -11.9288 C.3     
  31 C31            0.8289     8.3029   -11.9552 C.3     
  32 C32            7.7289    10.1954    -7.8939 C.3     
  33 O33            0.5573     8.6542   -13.3170 O.3     
  34 C34            0.7880     7.5225   -14.1710 C.3     
  35 C35            0.6182     6.2838   -13.2558 C.3     
  36 H36            2.8522     7.5018   -10.4111 H       
  37 H37           -0.0342     4.9325    -8.5910 H       
  38 H38            3.2919     6.3895    -6.3106 H       
  39 H39            2.5766     5.4374    -4.9156 H       
  40 H40            1.0520     3.2457     0.3537 H       
  41 H41            2.3994     4.3129    -0.1089 H       
  42 H42           -0.4309     2.2481    -1.5001 H       
  43 H43            3.5361    -0.6614    -1.4314 H       
  44 H44            3.3770    -0.8691     0.3292 H       
  45 H45            1.0791    -1.7474     0.0179 H       
  46 H46            1.2382    -1.5397    -1.7427 H       
  47 H47            2.2628    -2.7189    -0.8895 H       
  48 H48            4.3653     0.0040     1.4303 H       
  49 H49            5.5959     1.1584     0.8636 H       
  50 H50            5.9687     0.5551     3.2397 H       
  51 H51            5.5619     2.2801     3.0748 H       
  52 H52            4.3313     1.1257     3.6415 H       
  53 H53            4.1661     7.9414    -6.2206 H       
  54 H54            5.1689    10.0221    -7.2092 H       
  55 H55            6.1783     9.3053    -5.9303 H       
  56 H56            5.2331     5.7691    -6.7603 H       
  57 H57            6.6106     6.6272    -7.4912 H       
  58 H58            6.2988     6.7694    -5.7446 H       
  59 H59            2.3124     6.7006   -11.9253 H       
  60 H60           -0.0634     8.4576   -11.3485 H       
  61 H61            1.6479     8.9119   -11.5725 H       
  62 H62            8.5276    10.0298    -8.6170 H       
  63 H63            7.1514    11.0727    -8.1850 H       
  64 H64            8.1607    10.3559    -6.9061 H       
  65 H65            0.0544     7.5009   -14.9769 H       
  66 H66            1.7983     7.5560   -14.5788 H       
  67 H67            1.1835     5.4333   -13.6370 H       
  68 H68           -0.4342     6.0292   -13.1306 H       
@<TRIPOS>BOND
   1    1   21 1
   2    1   14 1
   3    2   23 1
   4    2   14 1
   5    3    4 ar
   6    3   25 1
   7    3    8 ar
   8    4    5 ar
   9    4   36 1
  10    5    6 ar
  11    5    9 1
  12    6    7 ar
  13    6   37 1
  14    7    8 ar
  15    7   10 1
  16    8   38 1
  17    9   30 1
  18   10   11 am
  19   10   12 2
  20   11   13 1
  21   11   39 1
  22   13   17 2
  23   13   18 1
  24   14   15 2
  25   14   16 1
  26   16   20 1
  27   16   40 1
  28   16   41 1
  29   17   20 1
  30   18   19 1
  31   19   20 2
  32   19   42 1
  33   21   22 1
  34   21   43 1
  35   21   44 1
  36   22   45 1
  37   22   46 1
  38   22   47 1
  39   23   24 1
  40   23   48 1
  41   23   49 1
  42   24   50 1
  43   24   51 1
  44   24   52 1
  45   25   26 1
  46   26   27 1
  47   26   28 1
  48   26   53 1
  49   27   29 1
  50   27   54 1
  51   27   55 1
  52   28   56 1
  53   28   57 1
  54   28   58 1
  55   29   32 1
  56   30   31 1
  57   30   35 1
  58   30   59 1
  59   31   33 1
  60   31   60 1
  61   31   61 1
  62   32   62 1
  63   32   63 1
  64   32   64 1
  65   33   34 1
  66   34   35 1
  67   34   65 1
  68   34   66 1
  69   35   67 1
  70   35   68 1

#	End of record

