#	Name: ASD09610065
#	Creating user name:	WinNT
#	Creation time:	15. 06. 2019 21:22

#	Modifying user name:	WinNT
#	Modification time:	15. 06. 2019 21:22

#	Program:	/corina/corina34_cracker 3.40 0067  02.08.2006

@<TRIPOS>MOLECULE
ASD09610065
  39   40    0    0    0
SMALL
NO_CHARGES


@<TRIPOS>ATOM
   1 N1            -0.0194     1.4423    -0.1906 N.pl3   
   2 N2            -0.0092     0.2230    -0.8773 N.2     
   3 C3             1.2277    -0.1250    -1.1023 C.2     
   4 C4             2.0682     0.8732    -0.5602 C.2     
   5 C5             1.2506     1.8342     0.0000 C.2     
   6 C6             3.5420     0.8855    -0.5872 C.2     
   7 O7             4.1483    -0.0274    -1.1146 O.2     
   8 N8             4.2177     1.9085    -0.0273 N.am    
   9 C9            -1.2143     2.1713     0.2416 C.3     
  10 C10            5.6165     1.8642     0.0528 C.ar    
  11 C11            6.3596     3.0378    -0.0573 C.ar    
  12 C12            7.7413     2.9892     0.0229 C.ar    
  13 C13            8.3815     1.7759     0.2123 C.ar    
  14 C14            7.6430     0.6102     0.3218 C.ar    
  15 C15            6.2632     0.6531     0.2477 C.ar    
  16 O16            5.7294     4.2282    -0.2437 O.3     
  17 C17            6.5549     5.3899    -0.3480 C.3     
  18 C18            5.6746     6.6243    -0.5535 C.3     
  19 C19            6.5585     7.8682    -0.6651 C.3     
  20 F20            7.4261     7.7276    -1.7535 F       
  21 F21            5.7536     8.9969    -0.8530 F       
  22 F22            7.3041     8.0174     0.5093 F       
  23 F23            4.9291     6.4751    -1.7278 F       
  24 F24            7.3005     5.5391     0.8264 F       
  25 F25            7.4225     5.2494    -1.4364 F       
  26 F26            9.7295     1.7298     0.2900 F       
  27 C27            1.6809    -1.3730    -1.8150 C.3     
  28 F28            0.7186    -1.7462    -2.7595 F       
  29 F29            2.8969    -1.1257    -2.4610 F       
  30 H30            1.5733     2.7356     0.4998 H       
  31 H31            3.7360     2.6755     0.3201 H       
  32 H32           -1.4940     1.8484     1.2444 H       
  33 H33           -1.0042     3.2409     0.2497 H       
  34 H34           -2.0336     1.9672    -0.4476 H       
  35 H35            8.3196     3.8974    -0.0625 H       
  36 H36            8.1456    -0.3343     0.4694 H       
  37 H37            5.6890    -0.2572     0.3378 H       
  38 H38            4.9987     6.7338     0.2946 H       
  39 H39            1.8109    -2.1777    -1.0914 H       
@<TRIPOS>BOND
   1    1    2 1
   2    1    5 1
   3    1    9 1
   4    2    3 2
   5    3    4 1
   6    3   27 1
   7    4    5 2
   8    4    6 1
   9    5   30 1
  10    6    7 2
  11    6    8 am
  12    8   10 1
  13    8   31 1
  14    9   32 1
  15    9   33 1
  16    9   34 1
  17   10   11 ar
  18   10   15 ar
  19   11   12 ar
  20   11   16 1
  21   12   13 ar
  22   12   35 1
  23   13   14 ar
  24   13   26 1
  25   14   15 ar
  26   14   36 1
  27   15   37 1
  28   16   17 1
  29   17   18 1
  30   17   24 1
  31   17   25 1
  32   18   19 1
  33   18   23 1
  34   18   38 1
  35   19   20 1
  36   19   21 1
  37   19   22 1
  38   27   28 1
  39   27   29 1
  40   27   39 1

#	End of record

