#	Name: ASD01811219
#	Creating user name:	WinNT
#	Creation time:	15. 06. 2019 19:26

#	Modifying user name:	WinNT
#	Modification time:	15. 06. 2019 19:26

#	Program:	/corina/corina34_cracker 3.40 0067  02.08.2006

@<TRIPOS>MOLECULE
ASD01811219
  65   68    0    0    0
SMALL
NO_CHARGES


@<TRIPOS>ATOM
   1 C1            -0.0996     1.2856    -0.1540 C.ar    
   2 C2            -0.0127    -0.1048    -0.0622 C.ar    
   3 C3             1.3095    -0.7616     0.0197 C.2     
   4 N4             1.6432    -1.7178    -0.8696 N.am    
   5 O5             2.0955    -0.4391     0.8890 O.2     
   6 C6             2.9857    -2.3146    -0.8586 C.3     
   7 C7            -1.1771    -0.8720    -0.0474 C.ar    
   8 C8            -2.4132    -0.2491    -0.1241 C.ar    
   9 C9            -2.4890     1.1353    -0.2157 C.ar    
  10 C10           -1.3348     1.8964    -0.2246 C.ar    
  11 N11           -3.5850    -1.0147    -0.1096 N.am    
  12 C12            3.5889    -2.1973    -2.2619 C.3     
  13 C13            2.6312    -2.8231    -3.2784 C.3     
  14 C14            1.3003    -2.0677    -3.2600 C.3     
  15 C15            0.6694    -2.1875    -1.8644 C.3     
  16 C16            3.2366    -2.7400    -4.6559 C.ar    
  17 C17            2.7145    -3.5037    -5.6848 C.ar    
  18 C18            3.2636    -3.4322    -6.9483 C.ar    
  19 C19            4.3487    -2.5867    -7.1876 C.ar    
  20 C20            4.8706    -1.8188    -6.1446 C.ar    
  21 C21            4.3084    -1.8962    -4.8873 C.ar    
  22 C22           -3.6450    -2.1410     0.6282 C.2     
  23 C23            4.9241    -2.5078    -8.4965 C.1     
  24 N24            5.3805    -2.4452    -9.5349 N.1     
  25 O25           -4.7306    -2.9344     0.5585 O.3     
  26 O26           -2.7193    -2.4404     1.3562 O.2     
  27 C27           -4.7264    -4.1311     1.3809 C.3     
  28 C28           -6.1677    -4.5212     1.8026 C.3     
  29 F29            2.4105    -4.1642    -2.9466 F       
  30 C30            1.1555     2.1197    -0.1699 C.3     
  31 C31           -4.2975    -5.3702     0.5560 C.3     
  32 N32           -4.9000    -6.5180     1.2581 N.am    
  33 C33           -6.0626    -6.0449     2.0237 C.3     
  34 C34           -4.4585    -7.7903     1.2063 C.2     
  35 O35           -3.4849    -8.0676     0.5383 O.2     
  36 C36           -5.1746    -8.8684     1.9782 C.3     
  37 H37            3.6157    -1.7840    -0.1446 H       
  38 H38            2.9162    -3.3654    -0.5774 H       
  39 H39           -1.1161    -1.9480     0.0231 H       
  40 H40           -3.4529     1.6186    -0.2757 H       
  41 H41           -1.4000     2.9721    -0.2957 H       
  42 H42           -4.3537    -0.7347    -0.6307 H       
  43 H43            3.7418    -1.1460    -2.5055 H       
  44 H44            4.5444    -2.7210    -2.2921 H       
  45 H45            1.4748    -1.0176    -3.4942 H       
  46 H46            0.6269    -2.4991    -4.0006 H       
  47 H47            0.4115    -3.2282    -1.6681 H       
  48 H48           -0.2280    -1.5708    -1.8150 H       
  49 H49            1.8754    -4.1576    -5.4982 H       
  50 H50            2.8553    -4.0291    -7.7504 H       
  51 H51            5.7100    -1.1631    -6.3228 H       
  52 H52            4.7111    -1.3028    -4.0797 H       
  53 H53           -4.0858    -4.0009     2.2531 H       
  54 H54           -6.4493    -4.0160     2.7264 H       
  55 H55           -6.8770    -4.2951     1.0064 H       
  56 H56            1.5396     2.1789    -1.1882 H       
  57 H57            0.9297     3.1227     0.1921 H       
  58 H58            1.9049     1.6608     0.4750 H       
  59 H59           -4.6847    -5.3016    -0.4606 H       
  60 H60           -3.2113    -5.4605     0.5439 H       
  61 H61           -5.9199    -6.2568     3.0833 H       
  62 H62           -6.9675    -6.5349     1.6642 H       
  63 H63           -6.0179    -8.4325     2.5140 H       
  64 H64           -5.5372    -9.6299     1.2877 H       
  65 H65           -4.4867    -9.3226     2.6914 H       
@<TRIPOS>BOND
   1    1    2 ar
   2    1   30 1
   3    1   10 ar
   4    2    3 1
   5    2    7 ar
   6    3    4 am
   7    3    5 2
   8    4    6 1
   9    4   15 1
  10    6   12 1
  11    6   37 1
  12    6   38 1
  13    7    8 ar
  14    7   39 1
  15    8    9 ar
  16    8   11 1
  17    9   10 ar
  18    9   40 1
  19   10   41 1
  20   11   22 am
  21   11   42 1
  22   12   13 1
  23   12   43 1
  24   12   44 1
  25   13   14 1
  26   13   16 1
  27   13   29 1
  28   14   15 1
  29   14   45 1
  30   14   46 1
  31   15   47 1
  32   15   48 1
  33   16   17 ar
  34   16   21 ar
  35   17   18 ar
  36   17   49 1
  37   18   19 ar
  38   18   50 1
  39   19   20 ar
  40   19   23 1
  41   20   21 ar
  42   20   51 1
  43   21   52 1
  44   22   25 1
  45   22   26 2
  46   23   24 3
  47   25   27 1
  48   27   28 1
  49   27   31 1
  50   27   53 1
  51   28   33 1
  52   28   54 1
  53   28   55 1
  54   30   56 1
  55   30   57 1
  56   30   58 1
  57   31   32 1
  58   31   59 1
  59   31   60 1
  60   32   33 1
  61   32   34 am
  62   33   61 1
  63   33   62 1
  64   34   35 2
  65   34   36 1
  66   36   63 1
  67   36   64 1
  68   36   65 1

#	End of record

