#	Name: ASD01920088
#	Creating user name:	WinNT
#	Creation time:	15. 06. 2019 20:11

#	Modifying user name:	WinNT
#	Modification time:	15. 06. 2019 20:11

#	Program:	/corina/corina34_cracker 3.40 0067  02.08.2006

@<TRIPOS>MOLECULE
ASD01920088
  48   51    0    0    0
SMALL
NO_CHARGES


@<TRIPOS>ATOM
   1 C1             0.0105     0.8340     0.0506 C.3     
   2 O2            -0.3092    -0.5585     0.0820 O.3     
   3 C3            -1.6283    -0.8894     0.0762 C.ar    
   4 C4            -2.5888     0.1021     0.0354 C.ar    
   5 C5            -3.9437    -0.2416     0.0296 C.ar    
   6 C6            -4.3201    -1.5862     0.0650 C.ar    
   7 C7            -3.3565    -2.5708     0.1056 C.ar    
   8 C8            -2.0110    -2.2299     0.1056 C.ar    
   9 O9            -1.0653    -3.2039     0.1400 O.3     
  10 C10           -1.5237    -4.5480     0.2990 C.3     
  11 C11           -0.8878    -5.6208    -0.5874 C.3     
  12 C12           -0.5485    -5.5602     0.9033 C.3     
  13 C13           -4.9742     0.8139    -0.0134 C.2     
  14 O14           -4.6450     1.9841    -0.0438 O.2     
  15 N15           -6.2802     0.4809    -0.0189 N.am    
  16 C16           -7.2569     1.4791     0.0615 C.ar    
  17 C17           -6.9580     2.6977     0.6517 C.ar    
  18 C18           -7.9281     3.6854     0.7295 C.ar    
  19 O19           -7.6354     4.8804     1.3076 O.3     
  20 C20           -8.6818     5.8523     1.3539 C.3     
  21 F21           -9.7632     5.3392     2.0783 F       
  22 F22           -8.2124     7.0137     1.9768 F       
  23 F23           -9.0945     6.1556     0.0520 F       
  24 C24           -9.1973     3.4558     0.2177 C.ar    
  25 C25           -9.4990     2.2428    -0.3711 C.ar    
  26 C26           -8.5319     1.2528    -0.4570 C.ar    
  27 N27           -8.8372     0.0227    -1.0599 N.pl3   
  28 C28           -9.9819    -0.3064    -1.6883 C.2     
  29 N29           -9.8722    -1.5405    -2.1104 N.2     
  30 C30           -8.6798    -2.0296    -1.7729 C.2     
  31 N31           -8.0073    -1.1080    -1.1333 N.2     
  32 H32            1.0933     0.9584     0.0591 H       
  33 H33           -0.3995     1.2806    -0.8552 H       
  34 H34           -0.4185     1.3250     0.9241 H       
  35 H35           -2.2938     1.1407     0.0085 H       
  36 H36           -5.3663    -1.8544     0.0610 H       
  37 H37           -3.6489    -3.6101     0.1333 H       
  38 H38           -2.5800    -4.6585     0.5443 H       
  39 H39           -1.5258    -6.4373    -0.9255 H       
  40 H40           -0.1198    -5.3013    -1.2917 H       
  41 H41            0.4428    -5.2009     1.1796 H       
  42 H42           -0.9632    -6.3369     1.5459 H       
  43 H43           -6.5428    -0.4510    -0.0787 H       
  44 H44           -5.9706     2.8773     1.0507 H       
  45 H45           -9.9510     4.2267     0.2800 H       
  46 H46          -10.4877     2.0671    -0.7686 H       
  47 H47          -10.8404     0.3353    -1.8203 H       
  48 H48           -8.3240    -3.0247    -1.9958 H       
@<TRIPOS>BOND
   1    1    2 1
   2    1   32 1
   3    1   33 1
   4    1   34 1
   5    2    3 1
   6    3    8 ar
   7    3    4 ar
   8    4    5 ar
   9    4   35 1
  10    5    6 ar
  11    5   13 1
  12    6    7 ar
  13    6   36 1
  14    7    8 ar
  15    7   37 1
  16    8    9 1
  17    9   10 1
  18   10   12 1
  19   10   11 1
  20   10   38 1
  21   11   12 1
  22   11   39 1
  23   11   40 1
  24   12   41 1
  25   12   42 1
  26   13   14 2
  27   13   15 am
  28   15   16 1
  29   15   43 1
  30   16   26 ar
  31   16   17 ar
  32   17   18 ar
  33   17   44 1
  34   18   19 1
  35   18   24 ar
  36   19   20 1
  37   20   21 1
  38   20   22 1
  39   20   23 1
  40   24   25 ar
  41   24   45 1
  42   25   26 ar
  43   25   46 1
  44   26   27 1
  45   27   31 1
  46   27   28 1
  47   28   29 2
  48   28   47 1
  49   29   30 1
  50   30   31 2
  51   30   48 1

#	End of record

