#	Name: ASD02198296
#	Creating user name:	WinNT
#	Creation time:	15. 06. 2019 20:19

#	Modifying user name:	WinNT
#	Modification time:	15. 06. 2019 20:19

#	Program:	/corina/corina34_cracker 3.40 0067  02.08.2006

@<TRIPOS>MOLECULE
ASD02198296
  37   39    0    0    0
SMALL
NO_CHARGES


@<TRIPOS>ATOM
   1 C1             0.4705     1.5476     0.0848 C.2     
   2 C2             0.6300     0.1751     0.1487 C.2     
   3 S3             2.0545     2.2820     0.3199 S.3     
   4 C4             2.7661     0.7366     0.4776 C.2     
   5 N5             1.8697    -0.2004     0.3591 N.2     
   6 N6            -0.4193    -0.7182     0.0050 N.pl3   
   7 C7            -0.7384     2.2336    -0.1345 C.2     
   8 C8            -0.7798     3.7100    -0.0373 C.ar    
   9 O9            -1.7520     1.6118    -0.4047 O.2     
  10 N10            4.1066     0.5124     0.6994 N.pl3   
  11 C11            4.5690    -0.7867     0.9322 C.ar    
  12 C12            5.8735    -1.1305     0.6016 C.ar    
  13 C13           -1.7120     4.4351    -0.7799 C.ar    
  14 C14            0.1099     4.3821     0.8019 C.ar    
  15 C15            0.0663     5.7581     0.8881 C.ar    
  16 C16           -0.8573     6.4719     0.1449 C.ar    
  17 C17           -1.7454     5.8112    -0.6849 C.ar    
  18 C18           -2.7479     6.5965    -1.4907 C.3     
  19 F19           -2.5862     7.9621    -1.2333 F       
  20 F20           -2.5455     6.3517    -2.8532 F       
  21 F21           -4.0426     6.2048    -1.1338 F       
  22 C22            6.3276    -2.4141     0.8326 C.ar    
  23 C23            5.4842    -3.3575     1.3929 C.ar    
  24 C24            4.1840    -3.0176     1.7233 C.ar    
  25 C25            3.7264    -1.7339     1.4998 C.ar    
  26 Cl26           6.0581    -4.9702     1.6814 Cl      
  27 H27           -1.3187    -0.3892    -0.1486 H       
  28 H28           -0.2544    -1.6726     0.0581 H       
  29 H29            4.7300     1.2555     0.6940 H       
  30 H30            6.5320    -0.3948     0.1639 H       
  31 H31           -2.4059     3.9204    -1.4281 H       
  32 H32            0.8307     3.8260     1.3830 H       
  33 H33            0.7543     6.2795     1.5372 H       
  34 H34           -0.8876     7.5492     0.2160 H       
  35 H35            7.3417    -2.6821     0.5753 H       
  36 H36            3.5278    -3.7558     2.1602 H       
  37 H37            2.7118    -1.4691     1.7582 H       
@<TRIPOS>BOND
   1    1    2 2
   2    1    3 1
   3    1    7 1
   4    2    6 1
   5    2    5 1
   6    3    4 1
   7    4    5 2
   8    4   10 1
   9    6   27 1
  10    6   28 1
  11    7    8 1
  12    7    9 2
  13    8   13 ar
  14    8   14 ar
  15   10   11 1
  16   10   29 1
  17   11   12 ar
  18   11   25 ar
  19   12   22 ar
  20   12   30 1
  21   13   17 ar
  22   13   31 1
  23   14   15 ar
  24   14   32 1
  25   15   16 ar
  26   15   33 1
  27   16   17 ar
  28   16   34 1
  29   17   18 1
  30   18   19 1
  31   18   20 1
  32   18   21 1
  33   22   23 ar
  34   22   35 1
  35   23   24 ar
  36   23   26 1
  37   24   25 ar
  38   24   36 1
  39   25   37 1

#	End of record

