#	Name: ASD07300253
#	Creating user name:	WinNT
#	Creation time:	15. 06. 2019 21:09

#	Modifying user name:	WinNT
#	Modification time:	15. 06. 2019 21:09

#	Program:	/corina/corina34_cracker 3.40 0067  02.08.2006

@<TRIPOS>MOLECULE
ASD07300253
  65   67    0    0    0
SMALL
NO_CHARGES


@<TRIPOS>ATOM
   1 C1             1.5571     2.8340    -0.3918 C.ar    
   2 C2             2.2321     1.6397    -0.1206 C.ar    
   3 C3             3.5406     1.4850    -0.5532 C.ar    
   4 C4             4.1314     2.5329    -1.2444 C.ar    
   5 C5             3.4050     3.6854    -1.4774 C.ar    
   6 N6             2.1616     3.8064    -1.0543 N.ar    
   7 C7             0.1905     1.4942     0.7355 C.2     
   8 N8             0.2865     2.7061     0.1576 N.am    
   9 N9             1.3483     0.8242     0.5798 N.am    
  10 O10           -0.7946     1.0672     1.3081 O.2     
  11 C11           -0.7255     3.6769     0.1167 C.ar    
  12 C12           -1.9560     3.4226     0.7069 C.ar    
  13 C13           -2.9515     4.3787     0.6667 C.ar    
  14 C14           -2.7222     5.5931     0.0367 C.ar    
  15 C15           -1.4930     5.8476    -0.5538 C.ar    
  16 C16           -0.4948     4.8944    -0.5092 C.ar    
  17 O17           -3.7028     6.5341    -0.0026 O.3     
  18 Si18          -3.6840     7.5650     1.2611 Si      
  19 C19           -3.9023     6.6094     2.8454 C.3     
  20 C20           -3.6012     7.5211     4.0366 C.3     
  21 C21           -5.3432     6.1038     2.9416 C.3     
  22 C22           -2.0556     8.4693     1.3007 C.3     
  23 C23           -1.7952     9.1108    -0.0637 C.3     
  24 C24           -2.1024     9.5573     2.3753 C.3     
  25 C25           -5.0725     8.7940     1.0808 C.3     
  26 C26           -4.7100     9.8186     0.0040 C.3     
  27 C27           -6.3532     8.0608     0.6767 C.3     
  28 C28            4.3006     0.2128    -0.2794 C.3     
  29 C29            1.6315    -0.5268     1.0706 C.3     
  30 C30            2.2067    -0.4450     2.4860 C.3     
  31 H31            5.1490     2.4490    -1.5966 H       
  32 H32            3.8640     4.5020    -2.0151 H       
  33 H33           -2.1347     2.4770     1.1972 H       
  34 H34           -3.9090     4.1808     1.1256 H       
  35 H35           -1.3152     6.7929    -1.0448 H       
  36 H36            0.4638     5.0945    -0.9647 H       
  37 H37           -3.2181     5.7609     2.8551 H       
  38 H38           -3.9667     7.0557     4.9519 H       
  39 H39           -2.5249     7.6761     4.1125 H       
  40 H40           -4.0973     8.4811     3.8939 H       
  41 H41           -5.5496     5.4339     2.1069 H       
  42 H42           -5.4779     5.5667     3.8804 H       
  43 H43           -6.0285     6.9506     2.9059 H       
  44 H44           -1.2550     7.7661     1.5303 H       
  45 H45           -2.5813     9.8340    -0.2810 H       
  46 H46           -0.8299     9.6168    -0.0489 H       
  47 H47           -1.7890     8.3387    -0.8330 H       
  48 H48           -2.9794    10.1854     2.2185 H       
  49 H49           -2.1594     9.0933     3.3600 H       
  50 H50           -1.2020    10.1684     2.3132 H       
  51 H51           -5.2308     9.3053     2.0303 H       
  52 H52           -4.4252     9.2990    -0.9109 H       
  53 H53           -5.5707    10.4575    -0.1940 H       
  54 H54           -3.8760    10.4294     0.3497 H       
  55 H55           -7.1928     8.7554     0.7019 H       
  56 H56           -6.2411     7.6627    -0.3318 H       
  57 H57           -6.5380     7.2421     1.3721 H       
  58 H58            4.1442    -0.4875    -1.0998 H       
  59 H59            5.3637     0.4367    -0.1904 H       
  60 H60            3.9437    -0.2308     0.6500 H       
  61 H61            0.7097    -1.1084     1.0861 H       
  62 H62            2.3541    -1.0086     0.4120 H       
  63 H63            3.1285     0.1366     2.4705 H       
  64 H64            1.4841     0.0369     3.1446 H       
  65 H65            2.4175    -1.4501     2.8512 H       
@<TRIPOS>BOND
   1    1    2 ar
   2    1    6 ar
   3    1    8 1
   4    2    3 ar
   5    2    9 1
   6    3    4 ar
   7    3   28 1
   8    4    5 ar
   9    4   31 1
  10    5    6 ar
  11    5   32 1
  12    7    8 am
  13    7    9 am
  14    7   10 2
  15    8   11 1
  16    9   29 1
  17   11   12 ar
  18   11   16 ar
  19   12   13 ar
  20   12   33 1
  21   13   14 ar
  22   13   34 1
  23   14   15 ar
  24   14   17 1
  25   15   16 ar
  26   15   35 1
  27   16   36 1
  28   17   18 1
  29   18   19 1
  30   18   22 1
  31   18   25 1
  32   19   20 1
  33   19   21 1
  34   19   37 1
  35   20   38 1
  36   20   39 1
  37   20   40 1
  38   21   41 1
  39   21   42 1
  40   21   43 1
  41   22   23 1
  42   22   24 1
  43   22   44 1
  44   23   45 1
  45   23   46 1
  46   23   47 1
  47   24   48 1
  48   24   49 1
  49   24   50 1
  50   25   26 1
  51   25   27 1
  52   25   51 1
  53   26   52 1
  54   26   53 1
  55   26   54 1
  56   27   55 1
  57   27   56 1
  58   27   57 1
  59   28   58 1
  60   28   59 1
  61   28   60 1
  62   29   30 1
  63   29   61 1
  64   29   62 1
  65   30   63 1
  66   30   64 1
  67   30   65 1

#	End of record

