#	Name: ASD05143021
#	Creating user name:	WinNT
#	Creation time:	15. 06. 2019 20:57

#	Modifying user name:	WinNT
#	Modification time:	15. 06. 2019 20:57

#	Program:	/corina/corina34_cracker 3.40 0067  02.08.2006

@<TRIPOS>MOLECULE
ASD05143021
 145  148    0    0    0
SMALL
NO_CHARGES


@<TRIPOS>ATOM
   1 C1            -2.0234     2.7529     5.0242 C.2     
   2 C2            -1.5112     1.6442     5.9071 C.3     
   3 N3            -1.1604     3.4840     4.2914 N.am    
   4 O4            -3.2128     2.9839     4.9693 O.2     
   5 C5            -1.6583     4.5618     3.4331 C.3     
   6 C6            -2.6251     3.9837     2.3976 C.3     
   7 C7            -2.3769     5.5837     4.2758 C.2     
   8 C8            -1.8665     3.0396     1.4628 C.3     
   9 C9            -2.8333     2.4615     0.4274 C.3     
  10 N10           -2.1070     1.5575    -0.4678 N.pl3   
  11 C11           -2.7729     0.9159    -1.4852 C.2     
  12 N12           -2.0912     0.0675    -2.3253 N.pl3   
  13 N13           -4.0504     1.1121    -1.6534 N.2     
  14 O14           -2.7848     5.2825     5.3776 O.2     
  15 N15           -2.5664     6.8323     3.8052 N.am    
  16 C16           -3.2649     7.8258     4.6245 C.3     
  17 C17           -2.2469     8.7930     5.2317 C.3     
  18 C18           -1.0813     8.0005     5.8267 C.3     
  19 C19           -0.0391     7.7650     4.7641 C.2     
  20 O20           -0.3603     7.3897     3.6564 O.2     
  21 N21            1.2743     7.9824     5.0713 N.am    
  22 C22            2.2338     7.7214     3.9742 C.3     
  23 C23            2.3911     8.9986     3.1466 C.3     
  24 C24            2.9175     8.6423     1.7549 C.3     
  25 C25            3.9064     9.7146     1.2930 C.3     
  26 N26            3.7426     9.9195    -0.1602 N.am    
  27 C27            5.3142     9.2622     1.5837 C.2     
  28 N28            5.8176     9.3836     2.8280 N.am    
  29 O29            5.9941     8.7888     0.6980 O.2     
  30 C30            2.9414    10.9512    -0.5423 C.2     
  31 O31            2.4075    11.6546     0.2890 O.2     
  32 C32            2.7265    11.2089    -2.0115 C.3     
  33 N33            1.5448    12.0879    -2.1678 N.am    
  34 C34            3.9603    11.8976    -2.5983 C.3     
  35 C35            0.4106    11.4699    -2.6131 C.2     
  36 O36            0.4100    10.2823    -2.8593 O.2     
  37 C37           -0.8400    12.2917    -2.7920 C.3     
  38 N38           -2.0149    11.4073    -2.6595 N.am    
  39 C39           -0.8950    13.3814    -1.7195 C.3     
  40 C40           -3.0311    11.8581    -1.8737 C.2     
  41 O41           -2.9484    12.9326    -1.3173 O.2     
  42 C42           -4.2605    11.0029    -1.7055 C.3     
  43 C43            3.7931    12.0430    -4.0889 C.2     
  44 C44            3.0968    13.1269    -4.7861 C.ar    
  45 C45            3.2011    12.8364    -6.1585 C.ar    
  46 N46            3.9099    11.6616    -6.2723 N.pl3   
  47 C47            4.2592    11.2068    -5.0300 C.2     
  48 C48            2.4208    14.2742    -4.3661 C.ar    
  49 C49            1.8633    15.1101    -5.2920 C.ar    
  50 C50            1.9631    14.8276    -6.6476 C.ar    
  51 C51            2.6261    13.7018    -7.0838 C.ar    
  52 N52           -4.7231    11.1076    -0.3028 N.am    
  53 C53           -3.9201     9.5462    -2.0264 C.3     
  54 C54           -5.1677     8.7062    -1.9311 C.ar    
  55 C55           -6.1658     8.8384    -2.8812 C.ar    
  56 C56           -7.3116     8.0658    -2.7924 C.ar    
  57 C57           -7.4575     7.1640    -1.7557 C.ar    
  58 C58           -6.4599     7.0328    -0.8073 C.ar    
  59 C59           -5.3133     7.7993    -0.8982 C.ar    
  60 C60           -4.2357     8.5935     3.7643 C.2     
  61 N61           -3.7522     9.3949     2.7758 N.am    
  62 O62           -5.4304     8.4983     3.9499 O.2     
  63 C63           -4.7506    10.1221     1.9667 C.3     
  64 C64           -4.8449    11.5709     2.4494 C.3     
  65 C65           -4.3178    10.0978     0.5234 C.2     
  66 C66           -5.3878    11.5976     3.8796 C.3     
  67 N67           -5.4783    12.9886     4.3431 N.3     
  68 O68           -3.6224     9.1977     0.1026 O.2     
  69 C69           -0.7685    12.7417    -0.3355 C.3     
  70 C70           -0.9499    13.8141     0.7406 C.3     
  71 N71           -0.8287    13.2015     2.0659 N.pl3   
  72 C72           -0.9564    13.9753     3.1951 C.2     
  73 N73           -0.8427    13.4004     4.4388 N.pl3   
  74 N74           -1.1853    15.2538     3.0866 N.2     
  75 F75           -6.0223     9.7208    -3.8942 F       
  76 H76           -0.4262     1.5841     5.8224 H       
  77 H77           -1.7840     1.8488     6.9424 H       
  78 H78           -1.9530     0.6978     5.5952 H       
  79 H79           -0.2095     3.2966     4.3322 H       
  80 H80           -0.8203     5.0363     2.9225 H       
  81 H81           -3.4161     3.4330     2.9067 H       
  82 H82           -3.0634     4.7954     1.8169 H       
  83 H83           -1.0756     3.5903     0.9537 H       
  84 H84           -1.4283     2.2279     2.0435 H       
  85 H85           -3.6243     1.9108     0.9365 H       
  86 H86           -3.2716     3.2732    -0.1534 H       
  87 H87           -1.1562     1.4115    -0.3426 H       
  88 H88           -1.1404    -0.0785    -2.2001 H       
  89 H89           -2.5610    -0.3851    -3.0431 H       
  90 H90           -4.5202     0.6594    -2.3713 H       
  91 H91           -2.2401     7.0732     2.9240 H       
  92 H92           -3.8079     7.3210     5.4235 H       
  93 H93           -1.8732     9.4614     4.4560 H       
  94 H94           -2.7257     9.3790     6.0163 H       
  95 H95           -0.6408     8.5644     6.6489 H       
  96 H96           -1.4453     7.0423     6.1973 H       
  97 H97            1.5585     8.2869     5.9474 H       
  98 H98            3.1989     7.4356     4.3926 H       
  99 H99            1.8554     6.9193     3.3405 H       
 100 H100           1.4240     9.4928     3.0538 H       
 101 H101           3.0952     9.6677     3.6412 H       
 102 H102           3.4210     7.6763     1.7933 H       
 103 H103           2.0846     8.5902     1.0538 H       
 104 H104           3.7048    10.6481     1.8185 H       
 105 H105           4.1829     9.3482    -0.8088 H       
 106 H106           5.2739     9.7622     3.5364 H       
 107 H107           6.7238     9.0924     3.0151 H       
 108 H108           2.5511    10.2647    -2.5270 H       
 109 H109           1.5741    13.0366    -1.9682 H       
 110 H110           4.0749    12.8835    -2.1477 H       
 111 H111           4.8456    11.2972    -2.3888 H       
 112 H112          -0.8374    12.7499    -3.7811 H       
 113 H113          -2.0602    10.5490    -3.1091 H       
 114 H114          -0.0748    14.0830    -1.8719 H       
 115 H115          -1.8446    13.9120    -1.7891 H       
 116 H116          -5.0446    11.3540    -2.3763 H       
 117 H117           4.1320    11.2236    -7.1089 H       
 118 H118           4.8199    10.3046    -4.8350 H       
 119 H119           2.3386    14.4999    -3.3132 H       
 120 H120           1.3406    15.9974    -4.9667 H       
 121 H121           1.5169    15.4978    -7.3675 H       
 122 H122           2.6985    13.4910    -8.1406 H       
 123 H123          -5.2752    11.8421     0.0079 H       
 124 H124          -3.5149     9.4817    -3.0362 H       
 125 H125          -3.1806     9.1805    -1.3141 H       
 126 H126          -8.0911     8.1684    -3.5328 H       
 127 H127          -8.3512     6.5617    -1.6859 H       
 128 H128          -6.5750     6.3280     0.0029 H       
 129 H129          -4.5347     7.6960    -0.1568 H       
 130 H130          -2.8003     9.4840     2.6116 H       
 131 H131          -5.7230     9.6398     2.0666 H       
 132 H132          -3.8547    12.0261     2.4280 H       
 133 H133          -5.5154    12.1287     1.7957 H       
 134 H134          -6.3779    11.1423     3.9009 H       
 135 H135          -4.7172    11.0397     4.5332 H       
 136 H136          -5.8346    13.0331     5.2860 H       
 137 H137          -4.5850    13.4524     4.2718 H       
 138 H138          -1.5349    11.9756    -0.2178 H       
 139 H139           0.2173    12.2879    -0.2337 H       
 140 H140          -0.1834    14.5801     0.6230 H       
 141 H141          -1.9357    14.2678     0.6388 H       
 142 H142          -0.6584    12.2500     2.1466 H       
 143 H143          -0.6724    12.4489     4.5196 H       
 144 H144          -0.9328    13.9463     5.2355 H       
 145 H145          -1.2754    15.7998     3.8833 H       
@<TRIPOS>BOND
   1    1    2 1
   2    1    3 am
   3    1    4 2
   4    2   76 1
   5    2   77 1
   6    2   78 1
   7    3    5 1
   8    3   79 1
   9    5    6 1
  10    5    7 1
  11    5   80 1
  12    6    8 1
  13    6   81 1
  14    6   82 1
  15    7   14 2
  16    7   15 am
  17    8    9 1
  18    8   83 1
  19    8   84 1
  20    9   10 1
  21    9   85 1
  22    9   86 1
  23   10   11 1
  24   10   87 1
  25   11   12 1
  26   11   13 2
  27   12   88 1
  28   12   89 1
  29   13   90 1
  30   15   16 1
  31   15   91 1
  32   16   17 1
  33   16   60 1
  34   16   92 1
  35   17   18 1
  36   17   93 1
  37   17   94 1
  38   18   19 1
  39   18   95 1
  40   18   96 1
  41   19   20 2
  42   19   21 am
  43   21   22 1
  44   21   97 1
  45   22   23 1
  46   22   98 1
  47   22   99 1
  48   23   24 1
  49   23  100 1
  50   23  101 1
  51   24   25 1
  52   24  102 1
  53   24  103 1
  54   25   26 1
  55   25   27 1
  56   25  104 1
  57   26   30 am
  58   26  105 1
  59   27   28 am
  60   27   29 2
  61   28  106 1
  62   28  107 1
  63   30   31 2
  64   30   32 1
  65   32   33 1
  66   32   34 1
  67   32  108 1
  68   33   35 am
  69   33  109 1
  70   34   43 1
  71   34  110 1
  72   34  111 1
  73   35   36 2
  74   35   37 1
  75   37   38 1
  76   37   39 1
  77   37  112 1
  78   38   40 am
  79   38  113 1
  80   39   69 1
  81   39  114 1
  82   39  115 1
  83   40   41 2
  84   40   42 1
  85   42   52 1
  86   42   53 1
  87   42  116 1
  88   43   44 1
  89   43   47 2
  90   44   45 ar
  91   44   48 ar
  92   45   46 1
  93   45   51 ar
  94   46   47 1
  95   46  117 1
  96   47  118 1
  97   48   49 ar
  98   48  119 1
  99   49   50 ar
 100   49  120 1
 101   50   51 ar
 102   50  121 1
 103   51  122 1
 104   52   65 am
 105   52  123 1
 106   53   54 1
 107   53  124 1
 108   53  125 1
 109   54   55 ar
 110   54   59 ar
 111   55   56 ar
 112   55   75 1
 113   56   57 ar
 114   56  126 1
 115   57   58 ar
 116   57  127 1
 117   58   59 ar
 118   58  128 1
 119   59  129 1
 120   60   61 am
 121   60   62 2
 122   61   63 1
 123   61  130 1
 124   63   64 1
 125   63   65 1
 126   63  131 1
 127   64   66 1
 128   64  132 1
 129   64  133 1
 130   65   68 2
 131   66   67 1
 132   66  134 1
 133   66  135 1
 134   67  136 1
 135   67  137 1
 136   69   70 1
 137   69  138 1
 138   69  139 1
 139   70   71 1
 140   70  140 1
 141   70  141 1
 142   71   72 1
 143   71  142 1
 144   72   73 1
 145   72   74 2
 146   73  143 1
 147   73  144 1
 148   74  145 1

#	End of record

