#	Name: ASD01151119
#	Creating user name:	WinNT
#	Creation time:	15. 06. 2019 19:05

#	Modifying user name:	WinNT
#	Modification time:	15. 06. 2019 19:05

#	Program:	/corina/corina34_cracker 3.40 0067  02.08.2006

@<TRIPOS>MOLECULE
ASD01151119
  60   63    0    0    0
SMALL
NO_CHARGES


@<TRIPOS>ATOM
   1 C1            -1.1549     0.5687    -0.1041 C.3     
   2 C2            -0.4228    -0.7732    -0.0399 C.3     
   3 C3            -1.4355    -1.9132    -0.1663 C.3     
   4 C4             0.5718    -0.8574    -1.1689 C.2     
   5 C5             0.1774    -0.5760    -2.4770 C.2     
   6 C6            -1.2503    -0.1867    -2.7616 C.3     
   7 N7             1.0442    -0.6481    -3.4632 N.2     
   8 C8             2.3211    -0.9922    -3.2373 C.2     
   9 C9             3.4118    -1.1388    -4.0800 C.2     
  10 C10            4.5047    -1.5171    -3.2942 C.2     
  11 N11            4.1119    -1.5998    -2.0359 N.2     
  12 N12            2.7520    -1.2776    -1.9668 N.pl3   
  13 C13            1.8719    -1.2050    -0.9196 C.2     
  14 N14            2.2882    -1.4823     0.3649 N.pl3   
  15 C15            2.7229    -2.8361     0.7351 C.3     
  16 C16            4.1163    -2.7513     1.3661 C.3     
  17 C17            4.0844    -1.7605     2.5321 C.3     
  18 C18            3.7037    -0.3719     2.0135 C.3     
  19 C19            4.7163     0.0739     0.9566 C.3     
  20 C20            2.3114    -0.4283     1.3883 C.3     
  21 C21            3.7049     0.6098     3.1569 C.2     
  22 O22            4.8300     0.8229     3.8573 O.3     
  23 O23            2.6932     1.2051     3.4431 O.2     
  24 C24            5.8779    -1.7822    -3.7915 C.ar    
  25 C25            6.1668    -1.6547    -5.1480 C.ar    
  26 C26            7.4457    -1.9019    -5.6052 C.ar    
  27 C27            8.4398    -2.2762    -4.7195 C.ar    
  28 C28            8.1595    -2.4047    -3.3711 C.ar    
  29 C29            6.8848    -2.1542    -2.9015 C.ar    
  30 Cl30           6.5355    -2.3093    -1.2081 Cl      
  31 C31            9.8335    -2.5456    -5.2254 C.3     
  32 F32           10.5771    -1.3609    -5.1967 F       
  33 F33           10.4486    -3.5022    -4.4107 F       
  34 F34            9.7686    -3.0237    -6.5386 F       
  35 H35           -0.4335     1.3808    -0.0140 H       
  36 H36           -1.6785     0.6518    -1.0565 H       
  37 H37           -1.8743     0.6296     0.7125 H       
  38 H38            0.1007    -0.8563     0.9125 H       
  39 H39           -2.0652    -1.7446    -1.0399 H       
  40 H40           -0.9056    -2.8592    -0.2775 H       
  41 H41           -2.0571    -1.9479     0.7284 H       
  42 H42           -1.3537     0.8958    -2.6861 H       
  43 H43           -1.5211    -0.5083    -3.7673 H       
  44 H44           -1.9089    -0.6660    -2.0372 H       
  45 H45            3.4165    -0.9885    -5.1495 H       
  46 H46            2.0218    -3.2614     1.4533 H       
  47 H47            2.7626    -3.4634    -0.1554 H       
  48 H48            4.4102    -3.7349     1.7324 H       
  49 H49            4.8337    -2.4113     0.6193 H       
  50 H50            3.3490    -2.0880     3.2669 H       
  51 H51            5.0687    -1.7167     2.9983 H       
  52 H52            4.7142    -0.6358     0.1293 H       
  53 H53            4.4447     1.0629     0.5876 H       
  54 H54            5.7112     0.1121     1.4001 H       
  55 H55            2.0797     0.5325     0.9286 H       
  56 H56            1.5761    -0.6529     2.1609 H       
  57 H57            4.7818     1.4617     4.5817 H       
  58 H58            5.3915    -1.3632    -5.8411 H       
  59 H59            7.6704    -1.8032    -6.6570 H       
  60 H60            8.9394    -2.6976    -2.6839 H       
@<TRIPOS>BOND
   1    1    2 1
   2    1   35 1
   3    1   36 1
   4    1   37 1
   5    2    3 1
   6    2    4 1
   7    2   38 1
   8    3   39 1
   9    3   40 1
  10    3   41 1
  11    4   13 2
  12    4    5 1
  13    5    6 1
  14    5    7 2
  15    6   42 1
  16    6   43 1
  17    6   44 1
  18    7    8 1
  19    8   12 1
  20    8    9 2
  21    9   10 1
  22    9   45 1
  23   10   11 2
  24   10   24 1
  25   11   12 1
  26   12   13 1
  27   13   14 1
  28   14   20 1
  29   14   15 1
  30   15   16 1
  31   15   46 1
  32   15   47 1
  33   16   17 1
  34   16   48 1
  35   16   49 1
  36   17   18 1
  37   17   50 1
  38   17   51 1
  39   18   19 1
  40   18   20 1
  41   18   21 1
  42   19   52 1
  43   19   53 1
  44   19   54 1
  45   20   55 1
  46   20   56 1
  47   21   22 1
  48   21   23 2
  49   22   57 1
  50   24   29 ar
  51   24   25 ar
  52   25   26 ar
  53   25   58 1
  54   26   27 ar
  55   26   59 1
  56   27   28 ar
  57   27   31 1
  58   28   29 ar
  59   28   60 1
  60   29   30 1
  61   31   32 1
  62   31   33 1
  63   31   34 1

#	End of record

