#	Name: ASD02198635
#	Creating user name:	WinNT
#	Creation time:	15. 06. 2019 20:19

#	Modifying user name:	WinNT
#	Modification time:	15. 06. 2019 20:19

#	Program:	/corina/corina34_cracker 3.40 0067  02.08.2006

@<TRIPOS>MOLECULE
ASD02198635
  41   44    0    0    0
SMALL
NO_CHARGES


@<TRIPOS>ATOM
   1 C1            -0.1013     1.0310     0.1428 C.2     
   2 C2            -0.3081    -0.3121     0.2152 C.2     
   3 N3            -1.5627    -0.8198     0.2177 N.pl3   
   4 N4            -2.6163    -0.0928     0.1539 N.2     
   5 C5            -2.5590     1.2204     0.0800 C.2     
   6 C6            -1.2421     1.8729     0.0761 C.2     
   7 C7            -1.7171    -2.2080     0.2933 C.ar    
   8 C8            -2.9780    -2.7693     0.4492 C.ar    
   9 N9            -3.1273    -4.0769     0.5208 N.ar    
  10 C10           -2.0987    -4.8989     0.4480 C.ar    
  11 C11           -0.8124    -4.4157     0.2923 C.ar    
  12 C12           -0.6090    -3.0484     0.2075 C.ar    
  13 C13           -3.7964     2.0240     0.0079 C.2     
  14 N14           -4.9248     1.7156    -0.6985 N.pl3   
  15 N15           -5.8530     2.7434    -0.4900 N.2     
  16 C16           -5.3200     3.6370     0.3046 C.2     
  17 C17           -4.0323     3.2224     0.6450 C.2     
  18 C18           -5.1181     0.5762    -1.4900 C.ar    
  19 C19           -6.3230    -0.1120    -1.4362 C.ar    
  20 C20           -6.5107    -1.2348    -2.2182 C.ar    
  21 C21           -5.5002    -1.6742    -3.0537 C.ar    
  22 C22           -4.2990    -0.9913    -3.1091 C.ar    
  23 C23           -4.1074     0.1358    -2.3342 C.ar    
  24 O24           -1.1337     3.0887     0.0091 O.2     
  25 O25            1.1561     1.5494     0.1402 O.3     
  26 C26            2.2404     0.6218     0.2166 C.3     
  27 H27            0.5384    -0.9804     0.2709 H       
  28 H28           -3.8446    -2.1280     0.5127 H       
  29 H29           -2.2632    -5.9644     0.5112 H       
  30 H30            0.0236    -5.0969     0.2336 H       
  31 H31            0.3847    -2.6433     0.0858 H       
  32 H32           -5.7993     4.5437     0.6432 H       
  33 H33           -3.3422     3.7494     1.2871 H       
  34 H34           -7.1124     0.2302    -0.7834 H       
  35 H35           -7.4476    -1.7705    -2.1769 H       
  36 H36           -5.6493    -2.5527    -3.6639 H       
  37 H37           -3.5114    -1.3373    -3.7621 H       
  38 H38           -3.1692     0.6690    -2.3782 H       
  39 H39            2.2008    -0.0546    -0.6372 H       
  40 H40            3.1851     1.1655     0.2058 H       
  41 H41            2.1625     0.0470     1.1395 H       
@<TRIPOS>BOND
   1    1    2 2
   2    1   25 1
   3    1    6 1
   4    2    3 1
   5    2   27 1
   6    3    4 1
   7    3    7 1
   8    4    5 2
   9    5    6 1
  10    5   13 1
  11    6   24 2
  12    7    8 ar
  13    7   12 ar
  14    8    9 ar
  15    8   28 1
  16    9   10 ar
  17   10   11 ar
  18   10   29 1
  19   11   12 ar
  20   11   30 1
  21   12   31 1
  22   13   14 1
  23   13   17 2
  24   14   15 1
  25   14   18 1
  26   15   16 2
  27   16   17 1
  28   16   32 1
  29   17   33 1
  30   18   19 ar
  31   18   23 ar
  32   19   20 ar
  33   19   34 1
  34   20   21 ar
  35   20   35 1
  36   21   22 ar
  37   21   36 1
  38   22   23 ar
  39   22   37 1
  40   23   38 1
  41   25   26 1
  42   26   39 1
  43   26   40 1
  44   26   41 1

#	End of record

