#	Name: ASD01940654
#	Creating user name:	WinNT
#	Creation time:	15. 06. 2019 20:12

#	Modifying user name:	WinNT
#	Modification time:	15. 06. 2019 20:12

#	Program:	/corina/corina34_cracker 3.40 0067  02.08.2006

@<TRIPOS>MOLECULE
ASD01940654
  51   52    0    0    0
SMALL
NO_CHARGES


@<TRIPOS>ATOM
   1 C1             0.4059     1.6472    -0.1573 C.3     
   2 C2             0.5178     0.1229    -0.2267 C.3     
   3 N3            -0.8240    -0.4612    -0.3547 N.3     
   4 C4            -0.7556    -1.9270    -0.4242 C.3     
   5 C5            -2.1689    -2.4978    -0.5568 C.3     
   6 N6            -2.1005    -3.9635    -0.6264 N.3     
   7 C7            -1.6128    -4.5284     0.6389 C.3     
   8 C8            -3.4042    -4.5347    -0.9900 C.3     
   9 S9             2.0628     2.3686     0.0007 S.o2    
  10 O10            2.6244     2.0549     1.2678 O.2     
  11 O11            2.8049     2.1803    -1.1964 O.2     
  12 N12            1.7980     4.0020     0.0644 N.am    
  13 C13            1.0306     4.5474     1.1023 C.ar    
  14 C14            0.1955     5.6364     0.8556 C.ar    
  15 C15           -0.5628     6.1725     1.8873 C.ar    
  16 C16           -0.4877     5.6242     3.1582 C.ar    
  17 C17            0.3423     4.5435     3.4006 C.ar    
  18 C18            1.0959     4.0017     2.3751 C.ar    
  19 N19            0.1223     6.1887    -0.4306 N.pl3   
  20 C20           -0.3906     7.4772    -0.6101 C.ar    
  21 C21            0.3597     8.5857    -0.2300 C.ar    
  22 C22           -0.1508     9.8576    -0.4097 C.ar    
  23 C23           -1.4063    10.0281    -0.9662 C.ar    
  24 C24           -2.1538     8.9278    -1.3443 C.ar    
  25 C25           -1.6471     7.6536    -1.1733 C.ar    
  26 I26           -2.1765    11.9576    -1.2361 I       
  27 F27            1.5850     8.4190     0.3141 F       
  28 F28           -1.2259     6.1460     4.1623 F       
  29 F29           -1.3731     7.2279     1.6531 F       
  30 H30           -0.0668     2.0186    -1.0666 H       
  31 H31           -0.1967     1.9284     0.7063 H       
  32 H32            1.1204    -0.1583    -1.0903 H       
  33 H33            0.9905    -0.2485     0.6826 H       
  34 H34           -1.4220    -0.1626     0.4012 H       
  35 H35           -0.1618    -2.2224    -1.2893 H       
  36 H36           -0.2917    -2.3126     0.4837 H       
  37 H37           -2.7627    -2.2024     0.3082 H       
  38 H38           -2.6328    -2.1122    -1.4647 H       
  39 H39           -2.2889    -4.2480     1.4466 H       
  40 H40           -1.5719    -5.6148     0.5600 H       
  41 H41           -0.6156    -4.1416     0.8491 H       
  42 H42           -3.7093    -4.1525    -1.9641 H       
  43 H43           -3.3253    -5.6210    -1.0344 H       
  44 H44           -4.1452    -4.2546    -0.2413 H       
  45 H45            2.1741     4.5812    -0.6167 H       
  46 H46            0.3986     4.1196     4.3924 H       
  47 H47            1.7388     3.1554     2.5670 H       
  48 H48            0.4274     5.6771    -1.1962 H       
  49 H49            0.4304    10.7189    -0.1151 H       
  50 H50           -3.1335     9.0647    -1.7777 H       
  51 H51           -2.2302     6.7955    -1.4732 H       
@<TRIPOS>BOND
   1    1    2 1
   2    1    9 1
   3    1   30 1
   4    1   31 1
   5    2    3 1
   6    2   32 1
   7    2   33 1
   8    3    4 1
   9    3   34 1
  10    4    5 1
  11    4   35 1
  12    4   36 1
  13    5    6 1
  14    5   37 1
  15    5   38 1
  16    6    7 1
  17    6    8 1
  18    7   39 1
  19    7   40 1
  20    7   41 1
  21    8   42 1
  22    8   43 1
  23    8   44 1
  24    9   10 2
  25    9   11 2
  26    9   12 am
  27   12   13 1
  28   12   45 1
  29   13   14 ar
  30   13   18 ar
  31   14   15 ar
  32   14   19 1
  33   15   16 ar
  34   15   29 1
  35   16   17 ar
  36   16   28 1
  37   17   18 ar
  38   17   46 1
  39   18   47 1
  40   19   20 1
  41   19   48 1
  42   20   21 ar
  43   20   25 ar
  44   21   22 ar
  45   21   27 1
  46   22   23 ar
  47   22   49 1
  48   23   24 ar
  49   23   26 1
  50   24   25 ar
  51   24   50 1
  52   25   51 1

#	End of record

