#	Name: ASD01140010
#	Creating user name:	WinNT
#	Creation time:	15. 06. 2019 18:59

#	Modifying user name:	WinNT
#	Modification time:	15. 06. 2019 18:59

#	Program:	/corina/corina34_cracker 3.40 0067  02.08.2006

@<TRIPOS>MOLECULE
ASD01140010
  40   41    0    0    0
SMALL
NO_CHARGES


@<TRIPOS>ATOM
   1 C1            -0.0168     1.3845     0.0097 C.ar    
   2 C2             0.0021    -0.0041     0.0020 C.ar    
   3 C3            -1.1806    -0.7118     0.0095 C.ar    
   4 C4            -2.4009    -0.0291     0.0253 C.ar    
   5 C5            -2.4142     1.3691     0.0334 C.ar    
   6 C6            -1.2258     2.0672     0.0307 C.ar    
   7 C7            -3.6689    -0.7810     0.0329 C.2     
   8 C8            -3.6746    -2.1386     0.0247 C.2     
   9 C9            -4.9041    -2.8441    -0.0026 C.2     
  10 C10           -6.0679    -2.1847    -0.2234 C.2     
  11 N11           -6.0245    -0.8120    -0.4586 N.pl3   
  12 N12           -4.9110    -0.1083     0.0548 N.pl3   
  13 O13            1.1525     2.0777     0.0022 O.3     
  14 C14            1.0612     3.5038     0.0107 C.3     
  15 C15           -7.0872    -0.1293    -1.2008 C.3     
  16 C16           -8.1682     0.3422    -0.2260 C.3     
  17 C17           -9.2780     1.0552    -1.0010 C.3     
  18 C18          -10.3427     1.5195    -0.0409 C.2     
  19 O19          -11.4209     2.1743    -0.4998 O.3     
  20 O20          -10.2258     1.3025     1.1419 O.2     
  21 N21           -7.2762    -2.8622    -0.2158 N.pl3   
  22 H22            0.9451    -0.5303    -0.0102 H       
  23 H23           -1.1649    -1.7916     0.0028 H       
  24 H24           -3.3541     1.9011     0.0452 H       
  25 H25           -1.2350     3.1472     0.0373 H       
  26 H26           -2.7413    -2.6819     0.0387 H       
  27 H27           -4.9136    -3.9128     0.1531 H       
  28 H28           -4.9958     0.7945     0.3992 H       
  29 H29            0.5338     3.8288     0.9076 H       
  30 H30            2.0635     3.9321     0.0035 H       
  31 H31            0.5168     3.8383    -0.8723 H       
  32 H32           -6.6699     0.7309    -1.7243 H       
  33 H33           -7.5252    -0.8173    -1.9239 H       
  34 H34           -8.5855    -0.5180     0.2975 H       
  35 H35           -7.7303     1.0302     0.4971 H       
  36 H36           -8.8607     1.9154    -1.5246 H       
  37 H37           -9.7160     0.3671    -1.7242 H       
  38 H38          -12.0769     2.4524     0.1541 H       
  39 H39           -7.2953    -3.8180    -0.0513 H       
  40 H40           -8.1032    -2.3809    -0.3749 H       
@<TRIPOS>BOND
   1    1    2 ar
   2    1   13 1
   3    1    6 ar
   4    2    3 ar
   5    2   22 1
   6    3    4 ar
   7    3   23 1
   8    4    5 ar
   9    4    7 1
  10    5    6 ar
  11    5   24 1
  12    6   25 1
  13    7    8 2
  14    7   12 1
  15    8    9 1
  16    8   26 1
  17    9   10 2
  18    9   27 1
  19   10   11 1
  20   10   21 1
  21   11   12 1
  22   11   15 1
  23   12   28 1
  24   13   14 1
  25   14   29 1
  26   14   30 1
  27   14   31 1
  28   15   16 1
  29   15   32 1
  30   15   33 1
  31   16   17 1
  32   16   34 1
  33   16   35 1
  34   17   18 1
  35   17   36 1
  36   17   37 1
  37   18   19 1
  38   18   20 2
  39   19   38 1
  40   21   39 1
  41   21   40 1

#	End of record

