#	Name: ASD01910573
#	Creating user name:	WinNT
#	Creation time:	15. 06. 2019 19:56

#	Modifying user name:	WinNT
#	Modification time:	15. 06. 2019 19:56

#	Program:	/corina/corina34_cracker 3.40 0067  02.08.2006

@<TRIPOS>MOLECULE
ASD01910573
  43   46    0    0    0
SMALL
NO_CHARGES


@<TRIPOS>ATOM
   1 O1             0.0873     0.2018     0.1081 O.3     
   2 C2             0.1321    -1.0084     0.6901 C.2     
   3 N3             1.4130    -1.2916     0.8745 N.2     
   4 C4             2.0867    -0.2362     0.3939 C.2     
   5 N5             1.2145     0.6206    -0.0500 N.2     
   6 C6            -1.0152    -1.8522     1.0521 C.2     
   7 C7            -2.3276    -1.5422     0.8541 C.2     
   8 C8            -3.0891    -2.6279     1.3466 C.2     
   9 C9            -2.1959    -3.5634     1.8291 C.2     
  10 N10           -0.9478    -3.0930     1.6435 N.pl3   
  11 C11            3.9745     1.1704     1.1792 C.3     
  12 C12            3.5846    -0.0722     0.3726 C.3     
  13 C13            4.0598     0.0931    -1.0728 C.3     
  14 C14            5.5841     0.2268    -1.0983 C.3     
  15 C15            5.9967     1.4728    -0.3083 C.3     
  16 N16            5.4207     1.3895     1.0408 N.am    
  17 C17            6.2042     1.5113     2.1307 C.2     
  18 C18            7.6672     1.6469     1.9772 C.ar    
  19 O19            5.7069     1.5097     3.2400 O.2     
  20 C20           -4.5170    -2.7361     1.3450 C.1     
  21 C21            8.1947     2.5981     1.1013 C.ar    
  22 C22            9.5605     2.7207     0.9623 C.ar    
  23 C23           10.4103     1.9018     1.6902 C.ar    
  24 C24            9.8918     0.9555     2.5610 C.ar    
  25 C25            8.5276     0.8284     2.7119 C.ar    
  26 F26           11.7483     2.0261     1.5502 F       
  27 N27           -5.6498    -2.8220     1.3437 N.1     
  28 H28           -2.7133    -0.6385     0.4058 H       
  29 H29           -2.4539    -4.5125     2.2753 H       
  30 H30           -0.1311    -3.5528     1.8934 H       
  31 H31            3.4354     2.0376     0.7979 H       
  32 H32            3.7271     1.0166     2.2296 H       
  33 H33            4.0537    -0.9528     0.8114 H       
  34 H34            3.7620    -0.7791    -1.6549 H       
  35 H35            3.6095     0.9876    -1.5031 H       
  36 H36            6.0344    -0.6566    -0.6456 H       
  37 H37            5.9239     0.3210    -2.1297 H       
  38 H38            7.0835     1.5185    -0.2394 H       
  39 H39            5.6225     2.3646    -0.8109 H       
  40 H40            7.5337     3.2362     0.5336 H       
  41 H41            9.9696     3.4557     0.2849 H       
  42 H42           10.5581     0.3199     3.1253 H       
  43 H43            8.1248     0.0912     3.3906 H       
@<TRIPOS>BOND
   1    1    2 1
   2    1    5 1
   3    2    3 2
   4    2    6 1
   5    3    4 1
   6    4    5 2
   7    4   12 1
   8    6    7 2
   9    6   10 1
  10    7    8 1
  11    7   28 1
  12    8    9 2
  13    8   20 1
  14    9   10 1
  15    9   29 1
  16   10   30 1
  17   11   12 1
  18   11   16 1
  19   11   31 1
  20   11   32 1
  21   12   13 1
  22   12   33 1
  23   13   14 1
  24   13   34 1
  25   13   35 1
  26   14   15 1
  27   14   36 1
  28   14   37 1
  29   15   16 1
  30   15   38 1
  31   15   39 1
  32   16   17 am
  33   17   18 1
  34   17   19 2
  35   18   21 ar
  36   18   25 ar
  37   20   27 3
  38   21   22 ar
  39   21   40 1
  40   22   23 ar
  41   22   41 1
  42   23   24 ar
  43   23   26 1
  44   24   25 ar
  45   24   42 1
  46   25   43 1

#	End of record

