#	Name: ASD01680001
#	Creating user name:	WinNT
#	Creation time:	15. 06. 2019 19:22

#	Modifying user name:	WinNT
#	Modification time:	15. 06. 2019 19:22

#	Program:	/corina/corina34_cracker 3.40 0067  02.08.2006

@<TRIPOS>MOLECULE
ASD01680001
 136  142    0    0    0
SMALL
NO_CHARGES


@<TRIPOS>ATOM
   1 C1            -0.3025    -1.6564     0.3152 C.ar    
   2 C2            -0.4530    -2.9576    -0.1420 C.ar    
   3 C3            -1.6713    -3.3814    -0.6413 C.ar    
   4 C4            -2.7450    -2.5127    -0.6874 C.ar    
   5 C5            -2.6060    -1.2082    -0.2325 C.ar    
   6 C6            -1.3833    -0.7777     0.2766 C.ar    
   7 N7             0.9316    -1.2287     0.8199 N.pl3   
   8 S8            -1.1996     0.8761     0.8561 S.3     
   9 C9            -1.6505     0.7468     2.6084 C.3     
  10 C10           -1.5401     2.1238     3.2663 C.3     
  11 N11           -1.9052     2.0191     4.6854 N.3     
  12 N12           -3.6952    -0.3285    -0.2803 N.am    
  13 C13           -4.9529    -0.8097    -0.2257 C.2     
  14 C14           -6.1004     0.1221    -0.2020 C.ar    
  15 O15           -5.1438    -2.0100    -0.1959 O.2     
  16 C16           -7.4011    -0.3736    -0.1455 C.ar    
  17 C17           -8.4770     0.5116    -0.1236 C.ar    
  18 C18           -8.2452     1.8886    -0.1583 C.ar    
  19 C19           -6.9533     2.3732    -0.2147 C.ar    
  20 C20           -5.8826     1.5019    -0.2304 C.ar    
  21 C21           -9.8607    -0.0054    -0.0642 C.2     
  22 N22          -10.9002     0.8521    -0.0431 N.am    
  23 O23          -10.0608    -1.2042    -0.0345 O.2     
  24 C24          -12.2112     0.3658    -0.1273 C.ar    
  25 C25          -12.4575    -0.8740    -0.7008 C.ar    
  26 C26          -13.7507    -1.3549    -0.7850 C.ar    
  27 C27          -14.8058    -0.6050    -0.2990 C.ar    
  28 C28          -14.5715     0.6359     0.2764 C.ar    
  29 C29          -13.2697     1.1230     0.3696 C.ar    
  30 S30          -12.9646     2.6974     1.0996 S.3     
  31 C31          -12.8677     2.3144     2.8700 C.3     
  32 C32          -12.7264     3.6135     3.6658 C.3     
  33 N33          -12.5291     3.2982     5.0870 N.3     
  34 N34          -15.6411     1.3947     0.7673 N.pl3   
  35 C35           -1.8282    -4.7957    -1.1374 C.3     
  36 C36          -14.0117    -2.7015    -1.4092 C.3     
  37 C37           -1.5345    -5.7719     0.0035 C.3     
  38 C38           -3.2602    -5.0064    -1.6330 C.3     
  39 C39           -0.8490    -5.0447    -2.2864 C.3     
  40 C40          -12.6872    -3.3188    -1.8624 C.3     
  41 C41          -14.6772    -3.6195    -0.3820 C.3     
  42 C42          -14.9357    -2.5332    -2.6171 C.3     
  43 C43            2.0653    -2.1554     0.8655 C.3     
  44 C44            2.7715    -2.1510    -0.4658 C.2     
  45 C45            3.0391    -1.7164     1.9609 C.3     
  46 O46            3.8476    -2.9302    -0.6572 O.3     
  47 O47            2.3692    -1.4461    -1.3608 O.2     
  48 C48            2.3704    -1.8382     3.3059 C.ar    
  49 C49            1.7619    -0.7582     3.8675 C.ar    
  50 C50            1.1383    -0.8517     5.1105 C.ar    
  51 C51            1.1198    -2.0256     5.7986 C.ar    
  52 C52            1.7373    -3.1628     5.2503 C.ar    
  53 C53            2.3667    -3.0691     3.9841 C.ar    
  54 C54            1.7386    -4.3923     5.9311 C.ar    
  55 C55            2.3467    -5.4725     5.3693 C.ar    
  56 C56            2.9703    -5.3790     4.1264 C.ar    
  57 C57            2.9843    -4.2063     3.4358 C.ar    
  58 C58          -15.4212     1.7300    -2.3933 C.ar    
  59 C59          -14.4544     2.2409    -3.2035 C.ar    
  60 C60          -14.6158     3.4807    -3.8196 C.ar    
  61 C61          -15.7449     4.2162    -3.6289 C.ar    
  62 C62          -16.7657     3.7209    -2.7997 C.ar    
  63 C63          -16.6014     2.4606    -2.1728 C.ar    
  64 C64          -17.9457     4.4516    -2.5790 C.ar    
  65 C65          -18.9130     3.9400    -1.7698 C.ar    
  66 C66          -18.7514     2.7006    -1.1532 C.ar    
  67 C67          -17.6220     1.9654    -1.3432 C.ar    
  68 C68          -17.4668     0.6272    -0.6678 C.3     
  69 C69          -16.9949     0.8347     0.7728 C.3     
  70 C70          -16.9883    -0.4882     1.4946 C.2     
  71 O71          -18.1265    -1.1879     1.6238 O.3     
  72 O72          -15.9585    -0.9189     1.9571 O.2     
  73 H73            0.3827    -3.6408    -0.1084 H       
  74 H74           -3.6940    -2.8490    -1.0782 H       
  75 H75            1.0358    -0.3187     1.1394 H       
  76 H76           -2.6748     0.3842     2.6943 H       
  77 H77           -0.9757     0.0509     3.1069 H       
  78 H78           -0.5158     2.4864     3.1805 H       
  79 H79           -2.2149     2.8197     2.7679 H       
  80 H80           -1.3357     1.3316     5.1555 H       
  81 H81           -1.8402     2.9162     5.1426 H       
  82 H82           -3.5441     0.6269    -0.3527 H       
  83 H83           -7.5748    -1.4392    -0.1192 H       
  84 H84           -9.0782     2.5758    -0.1413 H       
  85 H85           -6.7796     3.4388    -0.2420 H       
  86 H86           -4.8747     1.8874    -0.2746 H       
  87 H87          -10.7406     1.8061     0.0305 H       
  88 H88          -11.6372    -1.4639    -1.0824 H       
  89 H89          -15.8142    -0.9855    -0.3678 H       
  90 H90          -13.7749     1.7955     3.1797 H       
  91 H91          -12.0031     1.6777     3.0573 H       
  92 H92          -11.8684     4.1748     3.2957 H       
  93 H93          -13.6300     4.2117     3.5484 H       
  94 H94          -11.7525     2.6664     5.2128 H       
  95 H95          -12.4025     4.1393     5.6298 H       
  96 H96          -15.4858     2.2911     1.1037 H       
  97 H97           -2.2321    -5.5945     0.8221 H       
  98 H98           -1.6480    -6.7948    -0.3553 H       
  99 H99           -0.5143    -5.6218     0.3566 H       
 100 H100          -3.4694    -4.3109    -2.4458 H       
 101 H101          -3.3737    -6.0294    -1.9918 H       
 102 H102          -3.9578    -4.8290    -0.8145 H       
 103 H103           0.1712    -4.8946    -1.9333 H       
 104 H104          -0.9625    -6.0677    -2.6452 H       
 105 H105          -1.0582    -4.3492    -3.0992 H       
 106 H106         -12.0289    -3.4387    -1.0020 H       
 107 H107         -12.8759    -4.2928    -2.3140 H       
 108 H108         -12.2130    -2.6648    -2.5943 H       
 109 H109         -15.6208    -3.1796    -0.0591 H       
 110 H110         -14.8660    -4.5934    -0.8335 H       
 111 H111         -14.0190    -3.7393     0.4785 H       
 112 H112         -14.4615    -1.8792    -3.3489 H       
 113 H113         -15.1244    -3.5072    -3.0686 H       
 114 H114         -15.8793    -2.0934    -2.2942 H       
 115 H115           1.7042    -3.1608     1.0819 H       
 116 H116           3.9242    -2.3522     1.9363 H       
 117 H117           3.3316    -0.6799     1.7930 H       
 118 H118           4.2670    -2.8934    -1.5278 H       
 119 H119           1.7626     0.1855     3.3424 H       
 120 H120           0.6630     0.0207     5.5341 H       
 121 H121           0.6333    -2.0830     6.7612 H       
 122 H122           1.2598    -4.4794     6.8953 H       
 123 H123           2.3462    -6.4161     5.8945 H       
 124 H124           3.4463    -6.2512     3.7031 H       
 125 H125           3.4712    -4.1488     2.4735 H       
 126 H126         -15.2841     0.7662    -1.9257 H       
 127 H127         -13.5485     1.6775    -3.3712 H       
 128 H128         -13.8330     3.8635    -4.4576 H       
 129 H129         -15.8558     5.1756    -4.1124 H       
 130 H130         -18.0842     5.4140    -3.0490 H       
 131 H131         -19.8189     4.5036    -1.6018 H       
 132 H132         -19.5340     2.3179    -0.5149 H       
 133 H133         -18.4253     0.1083    -0.6650 H       
 134 H134         -16.7321     0.0304    -1.2084 H       
 135 H135         -17.6706     1.5226     1.2810 H       
 136 H136         -18.0726    -2.0307     2.0948 H       
@<TRIPOS>BOND
   1    1    2 ar
   2    1    7 1
   3    1    6 ar
   4    2    3 ar
   5    2   73 1
   6    3    4 ar
   7    3   35 1
   8    4    5 ar
   9    4   74 1
  10    5    6 ar
  11    5   12 1
  12    6    8 1
  13    7   43 1
  14    7   75 1
  15    8    9 1
  16    9   10 1
  17    9   76 1
  18    9   77 1
  19   10   11 1
  20   10   78 1
  21   10   79 1
  22   11   80 1
  23   11   81 1
  24   12   13 am
  25   12   82 1
  26   13   14 1
  27   13   15 2
  28   14   16 ar
  29   14   20 ar
  30   16   17 ar
  31   16   83 1
  32   17   18 ar
  33   17   21 1
  34   18   19 ar
  35   18   84 1
  36   19   20 ar
  37   19   85 1
  38   20   86 1
  39   21   22 am
  40   21   23 2
  41   22   24 1
  42   22   87 1
  43   24   25 ar
  44   24   29 ar
  45   25   26 ar
  46   25   88 1
  47   26   27 ar
  48   26   36 1
  49   27   28 ar
  50   27   89 1
  51   28   29 ar
  52   28   34 1
  53   29   30 1
  54   30   31 1
  55   31   32 1
  56   31   90 1
  57   31   91 1
  58   32   33 1
  59   32   92 1
  60   32   93 1
  61   33   94 1
  62   33   95 1
  63   34   69 1
  64   34   96 1
  65   35   37 1
  66   35   38 1
  67   35   39 1
  68   36   40 1
  69   36   41 1
  70   36   42 1
  71   37   97 1
  72   37   98 1
  73   37   99 1
  74   38  100 1
  75   38  101 1
  76   38  102 1
  77   39  103 1
  78   39  104 1
  79   39  105 1
  80   40  106 1
  81   40  107 1
  82   40  108 1
  83   41  109 1
  84   41  110 1
  85   41  111 1
  86   42  112 1
  87   42  113 1
  88   42  114 1
  89   43   44 1
  90   43   45 1
  91   43  115 1
  92   44   46 1
  93   44   47 2
  94   45   48 1
  95   45  116 1
  96   45  117 1
  97   46  118 1
  98   48   49 ar
  99   48   53 ar
 100   49   50 ar
 101   49  119 1
 102   50   51 ar
 103   50  120 1
 104   51   52 ar
 105   51  121 1
 106   52   53 ar
 107   52   54 ar
 108   53   57 ar
 109   54   55 ar
 110   54  122 1
 111   55   56 ar
 112   55  123 1
 113   56   57 ar
 114   56  124 1
 115   57  125 1
 116   58   59 ar
 117   58   63 ar
 118   58  126 1
 119   59   60 ar
 120   59  127 1
 121   60   61 ar
 122   60  128 1
 123   61   62 ar
 124   61  129 1
 125   62   63 ar
 126   62   64 ar
 127   63   67 ar
 128   64   65 ar
 129   64  130 1
 130   65   66 ar
 131   65  131 1
 132   66   67 ar
 133   66  132 1
 134   67   68 1
 135   68   69 1
 136   68  133 1
 137   68  134 1
 138   69   70 1
 139   69  135 1
 140   70   71 1
 141   70   72 2
 142   71  136 1

#	End of record

