#	Name: ASD01915719
#	Creating user name:	WinNT
#	Creation time:	15. 06. 2019 20:06

#	Modifying user name:	WinNT
#	Modification time:	15. 06. 2019 20:06

#	Program:	/corina/corina34_cracker 3.40 0067  02.08.2006

@<TRIPOS>MOLECULE
ASD01915719
  45   48    0    0    0
SMALL
NO_CHARGES


@<TRIPOS>ATOM
   1 C1            -0.0042     1.4687     0.2350 C.2     
   2 N2             0.0663     0.1194    -0.0302 N.pl3   
   3 C3            -1.1427    -0.6635    -0.3132 C.3     
   4 C4            -2.3279    -0.0486     0.4293 C.3     
   5 N5            -2.4044     1.3988     0.2637 N.am    
   6 C6            -1.2935     2.1743     0.2864 C.2     
   7 C7             1.2763     1.9061     0.4262 C.2     
   8 C8             2.0759     0.7654     0.2739 C.2     
   9 N9             1.2866    -0.2500     0.0108 N.2     
  10 C10            3.5774     0.7135     0.3913 C.3     
  11 O11            4.0776     2.0192     0.6860 O.3     
  12 C12            5.4238     2.1476     0.8251 C.ar    
  13 O13           -1.3591     3.3875     0.3465 O.2     
  14 C14            5.9770     3.3870     1.1113 C.ar    
  15 C15            6.2449     1.0383     0.6865 C.ar    
  16 C16            7.6128     1.1702     0.8280 C.ar    
  17 C17            8.1641     2.4089     1.1086 C.ar    
  18 C18            7.3452     3.5160     1.2524 C.ar    
  19 C19           -3.6531     1.9997     0.0767 C.ar    
  20 C20           -4.5844     2.0020     1.1061 C.ar    
  21 C21           -3.9611     2.6001    -1.1375 C.ar    
  22 C22           -5.1948     3.1941    -1.3220 C.ar    
  23 C23           -6.1251     3.1924    -0.3004 C.ar    
  24 C24           -5.8209     2.5985     0.9169 C.ar    
  25 F25            9.5019     2.5363     1.2477 F       
  26 O26           -6.7371     2.5973     1.9206 O.3     
  27 C27           -7.9927     3.2251     1.6536 C.3     
  28 H28           -1.3400    -0.6534    -1.3851 H       
  29 H29           -0.9974    -1.6908     0.0208 H       
  30 H30           -3.2487    -0.4952     0.0539 H       
  31 H31           -2.2353    -0.2772     1.4910 H       
  32 H32            1.6013     2.9122     0.6465 H       
  33 H33            3.8557     0.0285     1.1923 H       
  34 H34            4.0036     0.3648    -0.5493 H       
  35 H35            5.3385     4.2507     1.2236 H       
  36 H36            5.8150     0.0719     0.4683 H       
  37 H37            8.2523     0.3067     0.7202 H       
  38 H38            7.7766     4.4817     1.4712 H       
  39 H39           -4.3460     1.5395     2.0525 H       
  40 H40           -3.2358     2.6028    -1.9376 H       
  41 H41           -5.4323     3.6611    -2.2664 H       
  42 H42           -7.0886     3.6576    -0.4476 H       
  43 H43           -7.8293     4.2743     1.4075 H       
  44 H44           -8.4771     2.7262     0.8142 H       
  45 H45           -8.6294     3.1536     2.5354 H       
@<TRIPOS>BOND
   1    1    2 1
   2    1    7 2
   3    1    6 1
   4    2    3 1
   5    2    9 1
   6    3    4 1
   7    3   28 1
   8    3   29 1
   9    4    5 1
  10    4   30 1
  11    4   31 1
  12    5    6 am
  13    5   19 1
  14    6   13 2
  15    7    8 1
  16    7   32 1
  17    8    9 2
  18    8   10 1
  19   10   11 1
  20   10   33 1
  21   10   34 1
  22   11   12 1
  23   12   14 ar
  24   12   15 ar
  25   14   18 ar
  26   14   35 1
  27   15   16 ar
  28   15   36 1
  29   16   17 ar
  30   16   37 1
  31   17   18 ar
  32   17   25 1
  33   18   38 1
  34   19   20 ar
  35   19   21 ar
  36   20   24 ar
  37   20   39 1
  38   21   22 ar
  39   21   40 1
  40   22   23 ar
  41   22   41 1
  42   23   24 ar
  43   23   42 1
  44   24   26 1
  45   26   27 1
  46   27   43 1
  47   27   44 1
  48   27   45 1

#	End of record

