#	Name: ASD01150490
#	Creating user name:	WinNT
#	Creation time:	15. 06. 2019 19:04

#	Modifying user name:	WinNT
#	Modification time:	15. 06. 2019 19:04

#	Program:	/corina/corina34_cracker 3.40 0067  02.08.2006

@<TRIPOS>MOLECULE
ASD01150490
  42   44    0    0    0
SMALL
NO_CHARGES


@<TRIPOS>ATOM
   1 C1             2.0455     1.4038    -0.8411 C.ar    
   2 C2             2.0585     0.0229    -0.8454 C.ar    
   3 C3             0.3431    -0.0046     0.8288 C.ar    
   4 C4             0.3254     1.3763     0.8383 C.ar    
   5 C5             1.1777     2.0861     0.0020 C.ar    
   6 N6             1.1623     3.4852     0.0092 N.am    
   7 C7            -0.0113     4.1355    -0.0781 C.2     
   8 N8            -0.0630     5.4805    -0.0744 N.am    
   9 C9             1.0745     6.2002     0.0182 C.2     
  10 C10            2.3615     5.4949     0.1145 C.2     
  11 N11            2.3686     4.1879     0.1129 N.2     
  12 O12            1.0361     7.4166     0.0217 O.2     
  13 C13           -1.3553     6.1636    -0.1717 C.3     
  14 O14           -1.0435     3.4978    -0.1621 O.2     
  15 C15           -1.9093     6.3898     1.2114 C.ar    
  16 O16            3.5243     6.1909     0.2090 O.3     
  17 C17            4.7305     5.4299     0.2986 C.3     
  18 C18            1.2084    -0.6807    -0.0119 C.ar    
  19 C19           -1.6070     7.5528     1.8948 C.ar    
  20 C20           -2.1134     7.7631     3.1643 C.ar    
  21 C21           -2.9229     6.8111     3.7527 C.ar    
  22 C22           -3.2282     5.6432     3.0687 C.ar    
  23 C23           -2.7235     5.4371     1.7931 C.ar    
  24 O24           -4.0241     4.7047     3.6456 O.3     
  25 C25           -4.5118     4.9863     4.9589 C.3     
  26 F26           -5.2730     6.1597     4.9321 F       
  27 F27           -5.3085     3.9235     5.3982 F       
  28 F28           -3.4314     5.1512     5.8322 F       
  29 H29            2.7125     1.9527    -1.4894 H       
  30 H30            2.7330    -0.5082    -1.5007 H       
  31 H31           -0.3192    -0.5570     1.4787 H       
  32 H32           -0.3505     1.9037     1.4951 H       
  33 H33           -1.2224     7.1233    -0.6713 H       
  34 H34           -2.0491     5.5487    -0.7449 H       
  35 H35            5.5824     6.1063     0.3688 H       
  36 H36            4.6955     4.7965     1.1850 H       
  37 H37            4.8337     4.8066    -0.5896 H       
  38 H38            1.2200    -1.7606    -0.0177 H       
  39 H39           -0.9739     8.2983     1.4366 H       
  40 H40           -1.8755     8.6724     3.6963 H       
  41 H41           -3.3176     6.9755     4.7444 H       
  42 H42           -2.9597     4.5288     1.2586 H       
@<TRIPOS>BOND
   1    1    2 ar
   2    1    5 ar
   3    1   29 1
   4    2   18 ar
   5    2   30 1
   6    3    4 ar
   7    3   18 ar
   8    3   31 1
   9    4    5 ar
  10    4   32 1
  11    5    6 1
  12    6    7 am
  13    6   11 1
  14    7    8 am
  15    7   14 2
  16    8    9 am
  17    8   13 1
  18    9   10 1
  19    9   12 2
  20   10   11 2
  21   10   16 1
  22   13   15 1
  23   13   33 1
  24   13   34 1
  25   15   19 ar
  26   15   23 ar
  27   16   17 1
  28   17   35 1
  29   17   36 1
  30   17   37 1
  31   18   38 1
  32   19   20 ar
  33   19   39 1
  34   20   21 ar
  35   20   40 1
  36   21   22 ar
  37   21   41 1
  38   22   23 ar
  39   22   24 1
  40   23   42 1
  41   24   25 1
  42   25   26 1
  43   25   27 1
  44   25   28 1

#	End of record

