#	Name: ASD09740129
#	Creating user name:	WinNT
#	Creation time:	15. 06. 2019 21:22

#	Modifying user name:	WinNT
#	Modification time:	15. 06. 2019 21:22

#	Program:	/corina/corina34_cracker 3.40 0067  02.08.2006

@<TRIPOS>MOLECULE
ASD09740129
  70   73    0    0    0
SMALL
NO_CHARGES


@<TRIPOS>ATOM
   1 N1            -0.2724     1.4128     0.2491 N.2     
   2 O2            -0.2661     0.2020     0.3178 O.3     
   3 C3             0.9498     1.8776     0.2966 C.2     
   4 N4             1.7795     0.8193     0.4065 N.2     
   5 C5             0.9961    -0.2436     0.4192 C.2     
   6 C6             1.4260    -1.6525     0.5254 C.ar    
   7 C7             1.3498     3.3060     0.2402 C.ar    
   8 C8             2.6962     3.6578     0.3011 C.ar    
   9 C9             3.0626     4.9877     0.2482 C.ar    
  10 C10            2.0957     5.9700     0.1349 C.ar    
  11 C11            0.7571     5.6262     0.0745 C.ar    
  12 C12            0.3801     4.2994     0.1203 C.ar    
  13 C13            2.7832    -1.9641     0.6257 C.ar    
  14 C14            3.1831    -3.2800     0.7248 C.ar    
  15 C15            2.2393    -4.2970     0.7246 C.ar    
  16 C16            0.8827    -3.9928     0.6247 C.ar    
  17 C17            0.4751    -2.6760     0.5315 C.ar    
  18 C18            2.5018     7.4201     0.0776 C.3     
  19 C19           -1.0785     3.9264     0.0539 C.3     
  20 N20            2.7165     7.8136    -1.3213 N.3     
  21 C21            2.8826     9.2850    -1.4410 C.3     
  22 C22            3.6121     9.4859    -2.7866 C.3     
  23 C23            4.3427     8.1529    -3.0494 C.3     
  24 C24            3.9930     7.2587    -1.8405 C.3     
  25 O25            5.7541     8.3656    -3.1177 O.3     
  26 C26            4.6049    10.6148    -2.6803 C.2     
  27 O27            5.1434    10.8508    -1.6195 O.2     
  28 N28            4.8943    11.3620    -3.7640 N.am    
  29 C29            5.8593    12.4593    -3.6606 C.3     
  30 C30            4.2438    11.0768    -5.0453 C.3     
  31 O31            2.6383    -5.5921     0.8215 O.3     
  32 C32            4.2977    -7.3378     1.0202 C.3     
  33 C33            4.0435    -5.8324     0.9203 C.3     
  34 O34           -0.0400    -4.9919     0.6244 O.3     
  35 C35           -2.2947    -5.8575     0.5352 C.3     
  36 C36           -1.4123    -4.6076     0.5191 C.3     
  37 H37            3.4520     2.8915     0.3899 H       
  38 H38            4.1062     5.2615     0.2957 H       
  39 H39            0.0060     6.3972    -0.0132 H       
  40 H40            3.5200    -1.1744     0.6254 H       
  41 H41            4.2333    -3.5197     0.8023 H       
  42 H42           -0.5757    -2.4389     0.4544 H       
  43 H43            1.7136     8.0355     0.5113 H       
  44 H44            3.4244     7.5616     0.6405 H       
  45 H45           -1.3701     3.7840    -0.9867 H       
  46 H46           -1.2426     3.0016     0.6070 H       
  47 H47           -1.6778     4.7238     0.4933 H       
  48 H48            1.9101     9.7771    -1.4586 H       
  49 H49            3.4882     9.6673    -0.6194 H       
  50 H50            2.8931     9.6866    -3.5808 H       
  51 H51            3.9822     7.6993    -3.9727 H       
  52 H52            4.7725     7.3239    -1.0814 H       
  53 H53            3.8567     6.2252    -2.1590 H       
  54 H54            6.2655     7.5614    -3.2814 H       
  55 H55            6.2347    12.5180    -2.6390 H       
  56 H56            6.6898    12.2783    -4.3430 H       
  57 H57            5.3715    13.3981    -3.9229 H       
  58 H58            3.3213    11.6526    -5.1205 H       
  59 H59            4.9118    11.3526    -5.8612 H       
  60 H60            4.0142    10.0131    -5.1074 H       
  61 H61            3.7985    -7.7326     1.9051 H       
  62 H62            3.9062    -7.8322     0.1312 H       
  63 H63            5.3696    -7.5211     1.0956 H       
  64 H64            4.5427    -5.4375     0.0354 H       
  65 H65            4.4351    -5.3380     1.8093 H       
  66 H66           -3.3414    -5.5644     0.4549 H       
  67 H67           -2.0314    -6.4989    -0.3058 H       
  68 H68           -2.1397    -6.3996     1.4681 H       
  69 H69           -1.6756    -3.9661     1.3601 H       
  70 H70           -1.5673    -4.0655    -0.4138 H       
@<TRIPOS>BOND
   1    1    2 1
   2    1    3 2
   3    2    5 1
   4    3    4 1
   5    3    7 1
   6    4    5 2
   7    5    6 1
   8    6   13 ar
   9    6   17 ar
  10    7    8 ar
  11    7   12 ar
  12    8    9 ar
  13    8   37 1
  14    9   10 ar
  15    9   38 1
  16   10   11 ar
  17   10   18 1
  18   11   12 ar
  19   11   39 1
  20   12   19 1
  21   13   14 ar
  22   13   40 1
  23   14   15 ar
  24   14   41 1
  25   15   16 ar
  26   15   31 1
  27   16   17 ar
  28   16   34 1
  29   17   42 1
  30   18   20 1
  31   18   43 1
  32   18   44 1
  33   19   45 1
  34   19   46 1
  35   19   47 1
  36   20   21 1
  37   20   24 1
  38   21   22 1
  39   21   48 1
  40   21   49 1
  41   22   23 1
  42   22   26 1
  43   22   50 1
  44   23   24 1
  45   23   25 1
  46   23   51 1
  47   24   52 1
  48   24   53 1
  49   25   54 1
  50   26   27 2
  51   26   28 am
  52   28   29 1
  53   28   30 1
  54   29   55 1
  55   29   56 1
  56   29   57 1
  57   30   58 1
  58   30   59 1
  59   30   60 1
  60   31   33 1
  61   32   33 1
  62   32   61 1
  63   32   62 1
  64   32   63 1
  65   33   64 1
  66   33   65 1
  67   34   36 1
  68   35   36 1
  69   35   66 1
  70   35   67 1
  71   35   68 1
  72   36   69 1
  73   36   70 1

#	End of record

