#	Name: ASD01100027
#	Creating user name:	WinNT
#	Creation time:	15. 06. 2019 18:58

#	Modifying user name:	WinNT
#	Modification time:	15. 06. 2019 18:58

#	Program:	/corina/corina34_cracker 3.40 0067  02.08.2006

@<TRIPOS>MOLECULE
ASD01100027
  33   34    0    0    0
SMALL
NO_CHARGES


@<TRIPOS>ATOM
   1 C1             0.1628     1.2940    -0.9231 C.ar    
   2 C2             0.2408    -0.0855    -0.9939 C.ar    
   3 C3             1.4418    -0.7238    -0.7405 C.ar    
   4 C4             2.5629     0.0169    -0.4169 C.ar    
   5 C5             2.4844     1.3952    -0.3463 C.ar    
   6 C6             1.2846     2.0336    -0.5994 C.ar    
   7 C7             3.7071     2.2022     0.0071 C.3     
   8 C8             3.4381     3.0038     1.2822 C.3     
   9 C9             3.2229     2.0426     2.4530 C.3     
  10 C10            4.6361     3.9081     1.5784 C.3     
  11 Cl11          -1.1680    -1.0152    -1.3999 Cl      
  12 C12            4.0288     3.1472    -1.1218 C.2     
  13 N13            5.1813     3.8458    -1.1082 N.am    
  14 O14            3.2506     3.2792    -2.0427 O.2     
  15 C15            5.4420     4.7768    -2.1079 C.2     
  16 N16            4.6558     5.0603    -3.1022 N.2     
  17 N17            5.0443     5.9347    -3.9258 N.2     
  18 C18            6.2011     6.4712    -3.6988 C.2     
  19 S19            6.8500     5.7453    -2.2279 S.3     
  20 H20           -0.7734     1.7931    -1.1252 H       
  21 H21            1.5032    -1.8007    -0.7953 H       
  22 H22            3.5004    -0.4813    -0.2187 H       
  23 H23            1.2239     3.1105    -0.5441 H       
  24 H24            4.5504     1.5313     0.1708 H       
  25 H25            2.5462     3.6154     1.1456 H       
  26 H26            4.1147     1.4310     2.5896 H       
  27 H27            3.0312     2.6136     3.3614 H       
  28 H28            2.3693     1.3983     2.2420 H       
  29 H29            4.8523     4.5226     0.7045 H       
  30 H30            4.4044     4.5519     2.4269 H       
  31 H31            5.5051     3.2941     1.8149 H       
  32 H32            5.8290     3.6992    -0.4011 H       
  33 H33            6.6806     7.2296    -4.2999 H       
@<TRIPOS>BOND
   1    1    2 ar
   2    1    6 ar
   3    1   20 1
   4    2    3 ar
   5    2   11 1
   6    3    4 ar
   7    3   21 1
   8    4    5 ar
   9    4   22 1
  10    5    6 ar
  11    5    7 1
  12    6   23 1
  13    7    8 1
  14    7   12 1
  15    7   24 1
  16    8    9 1
  17    8   10 1
  18    8   25 1
  19    9   26 1
  20    9   27 1
  21    9   28 1
  22   10   29 1
  23   10   30 1
  24   10   31 1
  25   12   13 am
  26   12   14 2
  27   13   15 1
  28   13   32 1
  29   15   16 2
  30   15   19 1
  31   16   17 1
  32   17   18 2
  33   18   19 1
  34   18   33 1

#	End of record

