#	Name: ASD02030067
#	Creating user name:	WinNT
#	Creation time:	15. 06. 2019 20:14

#	Modifying user name:	WinNT
#	Modification time:	15. 06. 2019 20:14

#	Program:	/corina/corina34_cracker 3.40 0067  02.08.2006

@<TRIPOS>MOLECULE
ASD02030067
  63   66    0    0    0
SMALL
NO_CHARGES


@<TRIPOS>ATOM
   1 O1            -0.9189     2.1474    -0.4843 O.3     
   2 C2            -9.9328    -9.9591    -1.9877 C.ar    
   3 C3            -8.5101    -9.5888    -2.1075 C.2     
   4 N4            -8.1248    -8.6823    -3.0275 N.am    
   5 C5            -6.8008    -8.2499    -3.0676 C.ar    
   6 O6            -7.6849   -10.1012    -1.3762 O.2     
   7 C7            -6.2065    -7.9531    -4.2876 C.ar    
   8 C8            -4.8917    -7.5232    -4.3279 C.ar    
   9 C9            -4.1675    -7.3901    -3.1321 C.ar    
  10 C10           -4.7807    -7.6930    -1.9118 C.ar    
  11 C11           -6.0800    -8.1113    -1.8837 C.ar    
  12 C12           -2.7688    -6.9343    -3.1626 C.2     
  13 O13           -2.0761    -6.8074    -2.0134 O.3     
  14 O14           -2.2381    -6.6721    -4.2242 O.2     
  15 C15           -0.7011    -6.3529    -2.1192 C.3     
  16 C16            0.2614    -7.5605    -2.2390 C.3     
  17 C17            1.6054    -6.9776    -1.7363 C.3     
  18 C18            1.2027    -6.0453    -0.5750 C.3     
  19 C19           -0.2638    -5.6482    -0.8185 C.3     
  20 N20           -0.3710    -4.1954    -0.9743 N.am    
  21 C21           -0.5096    -3.4096     0.1118 C.2     
  22 O22           -0.5455    -3.9063     1.2210 O.2     
  23 C23           -0.6176    -1.9459    -0.0452 C.ar    
  24 C24           -0.7613    -1.1294     1.0796 C.ar    
  25 C25           -0.8613     0.2357     0.9289 C.ar    
  26 C26           -0.8195     0.8017    -0.3399 C.ar    
  27 C27           -0.6767    -0.0071    -1.4613 C.ar    
  28 C28           -0.5707    -1.3726    -1.3187 C.ar    
  29 O29           -4.3055    -7.2323    -5.5161 O.3     
  30 C30          -10.7760    -9.2475    -1.1235 C.ar    
  31 C31          -12.1123    -9.6042    -1.0192 C.ar    
  32 C32          -12.6081   -10.6556    -1.7640 C.ar    
  33 C33          -11.7778   -11.3616    -2.6195 C.ar    
  34 C34          -10.4490   -11.0176    -2.7396 C.ar    
  35 O35          -10.2874    -8.2149    -0.3919 O.3     
  36 S36           -9.3991   -11.9200    -3.8296 S.o2    
  37 O37           -9.5895   -11.3629    -5.1229 O.2     
  38 O38           -8.1301   -11.9943    -3.1944 O.2     
  39 O39           -9.9323   -13.3442    -3.8923 O.3     
  40 H40           -0.0693     2.6088    -0.4654 H       
  41 H41           -8.7692    -8.3310    -3.6617 H       
  42 H42           -6.7695    -8.0582    -5.2033 H       
  43 H43           -4.2267    -7.5922    -0.9902 H       
  44 H44           -6.5490    -8.3439    -0.9390 H       
  45 H45           -0.5853    -5.6865    -2.9740 H       
  46 H46           -0.0668    -8.3808    -1.6006 H       
  47 H47            0.3453    -7.8863    -3.2758 H       
  48 H48            2.2566    -7.7746    -1.3774 H       
  49 H49            2.0954    -6.4109    -2.5281 H       
  50 H50            1.2943    -6.5716     0.3752 H       
  51 H51            1.8347    -5.1572    -0.5728 H       
  52 H52           -0.8840    -5.9816     0.0136 H       
  53 H53           -0.3424    -3.7992    -1.8592 H       
  54 H54           -0.7942    -1.5684     2.0658 H       
  55 H55           -0.9727     0.8674     1.7978 H       
  56 H56           -0.6450     0.4364    -2.4455 H       
  57 H57           -0.4594    -2.0003    -2.1905 H       
  58 H58           -4.4073    -6.3104    -5.7896 H       
  59 H59          -12.7658    -9.0590    -0.3543 H       
  60 H60          -13.6493   -10.9297    -1.6790 H       
  61 H61          -12.1750   -12.1825    -3.1980 H       
  62 H62          -10.3455    -7.3571    -0.8345 H       
  63 H63           -9.4231   -13.9297    -4.4694 H       
@<TRIPOS>BOND
   1    1   26 1
   2    1   40 1
   3    2    3 1
   4    2   30 ar
   5    2   34 ar
   6    3    4 am
   7    3    6 2
   8    4    5 1
   9    4   41 1
  10    5    7 ar
  11    5   11 ar
  12    7    8 ar
  13    7   42 1
  14    8    9 ar
  15    8   29 1
  16    9   10 ar
  17    9   12 1
  18   10   11 ar
  19   10   43 1
  20   11   44 1
  21   12   13 1
  22   12   14 2
  23   13   15 1
  24   15   16 1
  25   15   19 1
  26   15   45 1
  27   16   17 1
  28   16   46 1
  29   16   47 1
  30   17   18 1
  31   17   48 1
  32   17   49 1
  33   18   19 1
  34   18   50 1
  35   18   51 1
  36   19   20 1
  37   19   52 1
  38   20   21 am
  39   20   53 1
  40   21   22 2
  41   21   23 1
  42   23   24 ar
  43   23   28 ar
  44   24   25 ar
  45   24   54 1
  46   25   26 ar
  47   25   55 1
  48   26   27 ar
  49   27   28 ar
  50   27   56 1
  51   28   57 1
  52   29   58 1
  53   30   31 ar
  54   30   35 1
  55   31   32 ar
  56   31   59 1
  57   32   33 ar
  58   32   60 1
  59   33   34 ar
  60   33   61 1
  61   34   36 1
  62   35   62 1
  63   36   37 2
  64   36   38 2
  65   36   39 1
  66   39   63 1

#	End of record

