#	Name: ASD01870100
#	Creating user name:	WinNT
#	Creation time:	15. 06. 2019 19:38

#	Modifying user name:	WinNT
#	Modification time:	15. 06. 2019 19:38

#	Program:	/corina/corina34_cracker 3.40 0067  02.08.2006

@<TRIPOS>MOLECULE
ASD01870100
  33   34    0    0    0
SMALL
NO_CHARGES


@<TRIPOS>ATOM
   1 C1            -0.1749     1.4716    -0.5686 C.2     
   2 C2            -0.1527    -0.0034    -0.5721 C.ar    
   3 C3             0.9025    -0.6909    -1.1874 C.ar    
   4 C4             0.9140    -2.0774    -1.1846 C.ar    
   5 C5            -0.1104    -2.7773    -0.5779 C.ar    
   6 C6            -1.1558    -2.1017     0.0318 C.ar    
   7 C7            -1.1802    -0.7227     0.0428 C.ar    
   8 O8             0.7239     2.0944    -1.1005 O.2     
   9 N9            -1.1941     2.1288     0.0193 N.am    
  10 C10           -1.1618     3.5234     0.1193 C.ar    
  11 C11           -2.3380     4.2558     0.0198 C.ar    
  12 C12           -2.3026     5.6326     0.1189 C.ar    
  13 C13           -1.0979     6.2825     0.3170 C.ar    
  14 C14            0.0746     5.5565     0.4161 C.ar    
  15 C15            0.0453     4.1786     0.3240 C.ar    
  16 C16           -3.5780     6.4281     0.0105 C.3     
  17 C17           -4.1921     6.5992     1.4014 C.3     
  18 O18            1.9083    -0.0026    -1.7835 O.3     
  19 Cl19          -2.4369    -2.9950     0.7899 Cl      
  20 H20            1.7250    -2.6108    -1.6579 H       
  21 H21           -0.0969    -3.8572    -0.5788 H       
  22 H22           -1.9943    -0.1999     0.5228 H       
  23 H23           -1.9501     1.6346     0.3730 H       
  24 H24           -3.2790     3.7490    -0.1353 H       
  25 H25           -1.0730     7.3595     0.3942 H       
  26 H26            1.0137     6.0670     0.5705 H       
  27 H27            0.9609     3.6117     0.4065 H       
  28 H28           -3.3600     7.4083    -0.4135 H       
  29 H29           -4.2810     5.9013    -0.6347 H       
  30 H30           -4.4101     5.6190     1.8254 H       
  31 H31           -3.4890     7.1259     2.0467 H       
  32 H32           -5.1146     7.1745     1.3230 H       
  33 H33            2.6475     0.2025    -1.1948 H       
@<TRIPOS>BOND
   1    1    2 1
   2    1    8 2
   3    1    9 am
   4    2    3 ar
   5    2    7 ar
   6    3    4 ar
   7    3   18 1
   8    4    5 ar
   9    4   20 1
  10    5    6 ar
  11    5   21 1
  12    6    7 ar
  13    6   19 1
  14    7   22 1
  15    9   10 1
  16    9   23 1
  17   10   11 ar
  18   10   15 ar
  19   11   12 ar
  20   11   24 1
  21   12   13 ar
  22   12   16 1
  23   13   14 ar
  24   13   25 1
  25   14   15 ar
  26   14   26 1
  27   15   27 1
  28   16   17 1
  29   16   28 1
  30   16   29 1
  31   17   30 1
  32   17   31 1
  33   17   32 1
  34   18   33 1

#	End of record

