#	Name: ASD04930027
#	Creating user name:	WinNT
#	Creation time:	15. 06. 2019 20:56

#	Modifying user name:	WinNT
#	Modification time:	15. 06. 2019 20:56

#	Program:	/corina/corina34_cracker 3.40 0067  02.08.2006

@<TRIPOS>MOLECULE
ASD04930027
  34   35    0    0    0
SMALL
NO_CHARGES


@<TRIPOS>ATOM
   1 C1            -0.0531     1.0578     0.1224 C.ar    
   2 C2             0.0873    -0.3221     0.0959 C.ar    
   3 C3             1.3368    -0.9009     0.0374 C.ar    
   4 C4             2.4751    -0.1010     0.0043 C.ar    
   5 C5             2.3350     1.2983     0.0311 C.ar    
   6 C6             1.0582     1.8708     0.0906 C.ar    
   7 N7             3.7271    -0.6787    -0.0538 N.am    
   8 C8             4.8472     0.0628    -0.0870 C.2     
   9 C9             4.7815     1.5237    -0.0628 C.2     
  10 C10            3.5307     2.1456    -0.0037 C.2     
  11 O11            3.4269     3.4906     0.0199 O.3     
  12 O12            5.9319    -0.4892    -0.1377 O.2     
  13 C13            6.0092     2.3243    -0.1000 C.2     
  14 O14            5.9431     3.5348    -0.1956 O.2     
  15 Br15           0.8609     3.7512     0.1263 Br      
  16 O16            7.2118     1.7183    -0.0281 O.3     
  17 C17            9.6465     1.7134     0.0223 C.3     
  18 C18            8.3845     2.5734    -0.0706 C.3     
  19 C19            3.8193    -2.6269    -1.5294 C.3     
  20 C20            3.8379    -2.1393    -0.0793 C.3     
  21 H21           -1.0390     1.4968     0.1637 H       
  22 H22           -0.7915    -0.9493     0.1217 H       
  23 H23            1.4327    -1.9765     0.0177 H       
  24 H24            4.2759     3.9496     0.0794 H       
  25 H25            9.6376     1.1551     0.9585 H       
  26 H26            9.6740     1.0169    -0.8157 H       
  27 H27           10.5268     2.3553    -0.0096 H       
  28 H28            8.3933     3.1316    -1.0068 H       
  29 H29            8.3569     3.2698     0.7674 H       
  30 H30            4.6582    -2.1894    -2.0707 H       
  31 H31            3.9017    -3.7136    -1.5484 H       
  32 H32            2.8847    -2.3251    -2.0022 H       
  33 H33            4.7725    -2.4411     0.3935 H       
  34 H34            2.9990    -2.5768     0.4620 H       
@<TRIPOS>BOND
   1    1    2 ar
   2    1    6 ar
   3    1   21 1
   4    2    3 ar
   5    2   22 1
   6    3    4 ar
   7    3   23 1
   8    4    5 ar
   9    4    7 1
  10    5    6 ar
  11    5   10 1
  12    6   15 1
  13    7    8 am
  14    7   20 1
  15    8    9 1
  16    8   12 2
  17    9   10 2
  18    9   13 1
  19   10   11 1
  20   11   24 1
  21   13   14 2
  22   13   16 1
  23   16   18 1
  24   17   18 1
  25   17   25 1
  26   17   26 1
  27   17   27 1
  28   18   28 1
  29   18   29 1
  30   19   20 1
  31   19   30 1
  32   19   31 1
  33   19   32 1
  34   20   33 1
  35   20   34 1

#	End of record

