#	Name: ASD01150860
#	Creating user name:	WinNT
#	Creation time:	15. 06. 2019 19:05

#	Modifying user name:	WinNT
#	Modification time:	15. 06. 2019 19:05

#	Program:	/corina/corina34_cracker 3.40 0067  02.08.2006

@<TRIPOS>MOLECULE
ASD01150860
  51   52    0    0    0
SMALL
NO_CHARGES


@<TRIPOS>ATOM
   1 C1            -0.0169     1.3918     0.0097 C.ar    
   2 C2             0.0021    -0.0041     0.0020 C.ar    
   3 C3             1.2237    -0.6803    -0.0133 C.ar    
   4 C4             2.4042     0.0341    -0.0207 C.ar    
   5 C5             2.3782     1.4202    -0.0126 C.ar    
   6 C6             1.1694     2.0954     0.0021 C.ar    
   7 C7            -1.2657    -0.7630     0.0105 C.2     
   8 N8            -1.2444    -2.1106     0.0031 N.am    
   9 O9            -2.3282    -0.1718     0.0243 O.2     
  10 C10           -2.4487    -2.8315     0.0112 C.2     
  11 N11           -3.6696    -2.3093     0.0256 N.2     
  12 C12           -4.5648    -3.2803     0.0295 C.2     
  13 N13           -3.9060    -4.4880     0.0171 N.pl3   
  14 C14           -2.5704    -4.2130    -0.0006 C.2     
  15 C15           -4.5223    -5.8170     0.0164 C.3     
  16 S16           -1.2550    -5.3851    -0.0225 S.3     
  17 C17           -1.0450    -5.5886    -1.8087 C.3     
  18 Cl18           3.8671     2.3129    -0.0214 Cl      
  19 C19           -4.7503    -6.2727    -1.4262 C.3     
  20 C20           -5.3940    -7.6608    -1.4269 C.3     
  21 C21           -6.7888    -7.5764    -0.8038 C.3     
  22 C22           -5.5079    -8.1694    -2.8654 C.3     
  23 Cl23           3.9243    -0.8041    -0.0397 Cl      
  24 C24           -6.0168    -3.1012     0.0449 C.2     
  25 O25           -6.7496    -4.0725     0.0476 O.2     
  26 O26           -6.5434    -1.8585     0.0562 O.3     
  27 C27           -7.9688    -1.7581     0.0710 C.3     
  28 C28           -8.3761    -0.2833     0.0822 C.3     
  29 H29           -0.9589     1.9200     0.0170 H       
  30 H30            1.2445    -1.7601    -0.0189 H       
  31 H31            1.1555     3.1753     0.0084 H       
  32 H32           -0.3969    -2.5822    -0.0079 H       
  33 H33           -3.8631    -6.5235     0.5207 H       
  34 H34           -5.4778    -5.7747     0.5394 H       
  35 H35           -0.7899    -4.6280    -2.2563 H       
  36 H36           -0.2449    -6.3032    -2.0014 H       
  37 H37           -1.9739    -5.9570    -2.2440 H       
  38 H38           -5.4096    -5.5663    -1.9305 H       
  39 H39           -3.7949    -6.3150    -1.9492 H       
  40 H40           -4.7777    -8.3473    -0.8465 H       
  41 H41           -7.2474    -8.5653    -0.8043 H       
  42 H42           -6.7077    -7.2140     0.2210 H       
  43 H43           -7.4051    -6.8898    -1.3843 H       
  44 H44           -4.5142    -8.2295    -3.3092 H       
  45 H45           -5.9665    -9.1583    -2.8659 H       
  46 H46           -6.1242    -7.4828    -3.4458 H       
  47 H47           -8.3763    -2.2408    -0.8173 H       
  48 H48           -8.3584    -2.2494     0.9626 H       
  49 H49           -7.9686     0.1994     0.9704 H       
  50 H50           -7.9864     0.2080    -0.8094 H       
  51 H51           -9.4633    -0.2067     0.0934 H       
@<TRIPOS>BOND
   1    1    2 ar
   2    1    6 ar
   3    1   29 1
   4    2    3 ar
   5    2    7 1
   6    3    4 ar
   7    3   30 1
   8    4    5 ar
   9    4   23 1
  10    5    6 ar
  11    5   18 1
  12    6   31 1
  13    7    8 am
  14    7    9 2
  15    8   10 1
  16    8   32 1
  17   10   11 1
  18   10   14 2
  19   11   12 2
  20   12   13 1
  21   12   24 1
  22   13   14 1
  23   13   15 1
  24   14   16 1
  25   15   19 1
  26   15   33 1
  27   15   34 1
  28   16   17 1
  29   17   35 1
  30   17   36 1
  31   17   37 1
  32   19   20 1
  33   19   38 1
  34   19   39 1
  35   20   21 1
  36   20   22 1
  37   20   40 1
  38   21   41 1
  39   21   42 1
  40   21   43 1
  41   22   44 1
  42   22   45 1
  43   22   46 1
  44   24   25 2
  45   24   26 1
  46   26   27 1
  47   27   28 1
  48   27   47 1
  49   27   48 1
  50   28   49 1
  51   28   50 1
  52   28   51 1

#	End of record

