#	Name: ASD05940001
#	Creating user name:	WinNT
#	Creation time:	15. 06. 2019 21:04

#	Modifying user name:	WinNT
#	Modification time:	15. 06. 2019 21:04

#	Program:	/corina/corina34_cracker 3.40 0067  02.08.2006

@<TRIPOS>MOLECULE
ASD05940001
  62   65    0    0    0
SMALL
NO_CHARGES


@<TRIPOS>ATOM
   1 N1            -0.0158     1.3133     0.0093 N.ar    
   2 C2             0.0021    -0.0041     0.0020 C.ar    
   3 N3             1.1260    -0.6936    -0.0101 N.ar    
   4 C4             2.3027    -0.0727    -0.0159 C.ar    
   5 C5             2.3266     1.3213    -0.0126 C.ar    
   6 C6             1.1190     2.0131     0.0022 C.ar    
   7 N7             3.4856    -0.7919    -0.0197 N.3     
   8 C8             4.5288    -0.1327    -0.8118 C.3     
   9 C9             4.6603     1.3111    -0.4013 C.2     
  10 N10            3.5558     1.9974    -0.0280 N.am    
  11 N11            1.0966     3.4015     0.0085 N.pl3   
  12 C12           -1.3079    -0.7490     0.0083 C.3     
  13 C13            3.2635    -2.1681    -0.4829 C.3     
  14 O14            5.7457     1.8528    -0.4056 O.2     
  15 C15            4.5920    -2.8428    -0.7084 C.ar    
  16 C16            5.2000    -3.5338     0.3227 C.ar    
  17 C17            6.4189    -4.1528     0.1158 C.ar    
  18 C18            7.0292    -4.0809    -1.1222 C.ar    
  19 C19            6.4206    -3.3904    -2.1539 C.ar    
  20 C20            5.2000    -2.7753    -1.9483 C.ar    
  21 C21           -1.7626    -0.9933    -1.4320 C.3     
  22 C22           -3.0926    -1.7496    -1.4257 C.3     
  23 C23           -3.5472    -1.9939    -2.8660 C.3     
  24 C24           -4.8772    -2.7502    -2.8597 C.3     
  25 C25            7.0822    -4.9054     1.2403 C.3     
  26 N26            6.6440    -6.3073     1.2167 N.3     
  27 C27            7.4449    -7.1269     2.1445 C.3     
  28 C28            6.4618    -7.7986     3.1263 C.3     
  29 C29            5.1195    -7.7734     2.3488 C.3     
  30 C30            5.2196    -6.4237     1.5953 C.3     
  31 H31            5.4793    -0.6416    -0.6517 H       
  32 H32            4.2671    -0.1853    -1.8686 H       
  33 H33            3.6123     2.9327     0.2226 H       
  34 H34            1.9287     3.9000     0.0026 H       
  35 H35            0.2489     3.8728     0.0188 H       
  36 H36           -1.1798    -1.7050     0.5160 H       
  37 H37           -2.0596    -0.1577     0.5312 H       
  38 H38            2.6997    -2.7185     0.2703 H       
  39 H39            2.7016    -2.1509    -1.4168 H       
  40 H40            4.7231    -3.5900     1.2900 H       
  41 H41            7.9816    -4.5637    -1.2836 H       
  42 H42            6.8976    -3.3339    -3.1212 H       
  43 H43            4.7246    -2.2359    -2.7542 H       
  44 H44           -1.8906    -0.0373    -1.9397 H       
  45 H45           -1.0109    -1.5846    -1.9550 H       
  46 H46           -2.9645    -2.7056    -0.9180 H       
  47 H47           -3.8442    -1.1584    -0.9028 H       
  48 H48           -3.6753    -1.0379    -3.3737 H       
  49 H49           -2.7955    -2.5852    -3.3889 H       
  50 H50           -5.2011    -2.9243    -3.8858 H       
  51 H51           -4.7491    -3.7062    -2.3520 H       
  52 H52           -5.6289    -2.1590    -2.3367 H       
  53 H53            8.1645    -4.8609     1.1186 H       
  54 H54            6.8049    -4.4540     2.1929 H       
  55 H55            7.9922    -7.8883     1.5888 H       
  56 H56            8.1413    -6.4927     2.6930 H       
  57 H57            6.7666    -8.8239     3.3359 H       
  58 H58            6.3839    -7.2224     4.0483 H       
  59 H59            5.0577    -8.6073     1.6495 H       
  60 H60            4.2715    -7.7764     3.0336 H       
  61 H61            4.9327    -5.6012     2.2505 H       
  62 H62            4.5904    -6.4383     0.7054 H       
@<TRIPOS>BOND
   1    1    2 ar
   2    1    6 ar
   3    2    3 ar
   4    2   12 1
   5    3    4 ar
   6    4    5 ar
   7    4    7 1
   8    5    6 ar
   9    5   10 1
  10    6   11 1
  11    7    8 1
  12    7   13 1
  13    8    9 1
  14    8   31 1
  15    8   32 1
  16    9   10 am
  17    9   14 2
  18   10   33 1
  19   11   34 1
  20   11   35 1
  21   12   21 1
  22   12   36 1
  23   12   37 1
  24   13   15 1
  25   13   38 1
  26   13   39 1
  27   15   16 ar
  28   15   20 ar
  29   16   17 ar
  30   16   40 1
  31   17   18 ar
  32   17   25 1
  33   18   19 ar
  34   18   41 1
  35   19   20 ar
  36   19   42 1
  37   20   43 1
  38   21   22 1
  39   21   44 1
  40   21   45 1
  41   22   23 1
  42   22   46 1
  43   22   47 1
  44   23   24 1
  45   23   48 1
  46   23   49 1
  47   24   50 1
  48   24   51 1
  49   24   52 1
  50   25   26 1
  51   25   53 1
  52   25   54 1
  53   26   27 1
  54   26   30 1
  55   27   28 1
  56   27   55 1
  57   27   56 1
  58   28   29 1
  59   28   57 1
  60   28   58 1
  61   29   30 1
  62   29   59 1
  63   29   60 1
  64   30   61 1
  65   30   62 1

#	End of record

