#	Name: ASD08070084
#	Creating user name:	WinNT
#	Creation time:	15. 06. 2019 21:14

#	Modifying user name:	WinNT
#	Modification time:	15. 06. 2019 21:14

#	Program:	/corina/corina34_cracker 3.40 0067  02.08.2006

@<TRIPOS>MOLECULE
ASD08070084
  41   41    0    0    0
SMALL
NO_CHARGES


@<TRIPOS>ATOM
   1 C1            -0.0166     1.3762     0.0096 C.ar    
   2 C2             0.0021    -0.0041     0.0020 C.ar    
   3 C3             1.1676     2.0882     0.0021 C.ar    
   4 C4             2.3866     1.4187    -0.0131 C.ar    
   5 C5             2.4158     0.0320    -0.0208 C.ar    
   6 C6             1.2201    -0.6858    -0.0128 C.ar    
   7 C7             1.2425    -2.1643    -0.0204 C.2     
   8 O8             2.3042    -2.7559    -0.0337 O.2     
   9 C9             0.2274    -4.8214    -1.4610 C.3     
  10 C10            0.1079    -4.3206    -0.0202 C.3     
  11 N11            0.0857    -2.8558    -0.0127 N.am    
  12 C12           -1.1856    -4.8535     0.5993 C.3     
  13 C13           -1.2449    -4.4572     2.0759 C.3     
  14 C14            1.1382     3.5949     0.0100 C.3     
  15 C15           -2.5384    -4.9901     2.6954 C.3     
  16 S16            3.8935     2.3320    -0.0232 S.3     
  17 C17            5.1584     1.0319    -0.0420 C.3     
  18 C18            1.5775    -4.3932    -2.0395 C.3     
  19 H19           -0.9603     1.9015     0.0169 H       
  20 H20           -0.9259    -0.5566     0.0079 H       
  21 H21            3.3612    -0.4900    -0.0330 H       
  22 H22            0.1546    -5.9089    -1.4749 H       
  23 H23           -0.5766    -4.3958    -2.0615 H       
  24 H24            0.9608    -4.6741     0.5592 H       
  25 H25           -0.7616    -2.3836    -0.0021 H       
  26 H26           -2.0415    -4.4291     0.0746 H       
  27 H27           -1.2090    -5.9399     0.5135 H       
  28 H28           -0.3889    -4.8816     2.6006 H       
  29 H29           -1.2215    -3.3708     2.1618 H       
  30 H30            1.1407     3.9530     1.0395 H       
  31 H31            2.0161     3.9781    -0.5102 H       
  32 H32            0.2365     3.9433    -0.4937 H       
  33 H33           -3.3943    -4.5657     2.1707 H       
  34 H34           -2.5617    -6.0764     2.6096 H       
  35 H35           -2.5806    -4.7078     3.7474 H       
  36 H36            6.1483     1.4882    -0.0493 H       
  37 H37            5.0522     0.4087     0.8460 H       
  38 H38            5.0349     0.4177    -0.9339 H       
  39 H39            1.6626    -4.7500    -3.0659 H       
  40 H40            1.6502    -3.3057    -2.0256 H       
  41 H41            2.3815    -4.8188    -1.4390 H       
@<TRIPOS>BOND
   1    1    2 ar
   2    1    3 ar
   3    1   19 1
   4    2    6 ar
   5    2   20 1
   6    3    4 ar
   7    3   14 1
   8    4    5 ar
   9    4   16 1
  10    5    6 ar
  11    5   21 1
  12    6    7 1
  13    7    8 2
  14    7   11 am
  15    9   10 1
  16    9   18 1
  17    9   22 1
  18    9   23 1
  19   10   12 1
  20   10   11 1
  21   10   24 1
  22   11   25 1
  23   12   13 1
  24   12   26 1
  25   12   27 1
  26   13   15 1
  27   13   28 1
  28   13   29 1
  29   14   30 1
  30   14   31 1
  31   14   32 1
  32   15   33 1
  33   15   34 1
  34   15   35 1
  35   16   17 1
  36   17   36 1
  37   17   37 1
  38   17   38 1
  39   18   39 1
  40   18   40 1
  41   18   41 1

#	End of record

