#	Name: ASD01915155
#	Creating user name:	WinNT
#	Creation time:	15. 06. 2019 20:04

#	Modifying user name:	WinNT
#	Modification time:	15. 06. 2019 20:04

#	Program:	/corina/corina34_cracker 3.40 0067  02.08.2006

@<TRIPOS>MOLECULE
ASD01915155
  37   40    0    0    0
SMALL
NO_CHARGES


@<TRIPOS>ATOM
   1 C1            -0.0168     1.3912     0.0097 C.ar    
   2 C2             0.0021    -0.0041     0.0020 C.ar    
   3 N3            -1.1436    -0.6910     0.0096 N.ar    
   4 C4            -2.3152    -0.0986     0.0244 C.ar    
   5 C5            -2.4176     1.2829     0.0324 C.ar    
   6 C6            -1.2680     2.0474     0.0306 C.ar    
   7 C7             1.3285     1.9579    -0.0001 C.2     
   8 C8             2.3058     1.0548    -0.0143 C.2     
   9 S9             1.6661    -0.5767    -0.0169 S.3     
  10 C10            1.5845     3.4177     0.0048 C.ar    
  11 C11            1.2141     4.1893     1.1056 C.ar    
  12 S12            4.0230     1.4490    -0.0285 S.o2    
  13 O13            4.6884     0.3236    -0.5854 O.2     
  14 O14            4.1294     2.7597    -0.5670 O.2     
  15 C15            4.5474     1.5566     1.6502 C.ar    
  16 C16            5.0208     0.4318     2.2996 C.ar    
  17 C17            4.4906     2.7671     2.3155 C.ar    
  18 C18            4.9022     2.8522     3.6322 C.ar    
  19 C19            5.3708     1.7257     4.2844 C.ar    
  20 C20            5.4319     0.5156     3.6166 C.ar    
  21 C21            1.4553     5.5479     1.1051 C.ar    
  22 C22            2.0639     6.1451     0.0144 C.ar    
  23 C23            2.4337     5.3836    -1.0812 C.ar    
  24 C24            2.2020     4.0234    -1.0889 C.ar    
  25 Cl25           2.3638     7.8550     0.0201 Cl      
  26 Cl26           5.8880     1.8319     5.9382 Cl      
  27 F27           -1.3381     3.3966     0.0387 F       
  28 H28           -3.2136    -0.6980     0.0301 H       
  29 H29           -3.3877     1.7575     0.0439 H       
  30 H30            0.7390     3.7245     1.9568 H       
  31 H31            5.0692    -0.5126     1.7780 H       
  32 H32            4.1248     3.6464     1.8063 H       
  33 H33            4.8584     3.7981     4.1517 H       
  34 H34            5.7972    -0.3643     4.1253 H       
  35 H35            1.1684     6.1465     1.9570 H       
  36 H36            2.9078     5.8545    -1.9296 H       
  37 H37            2.4908     3.4303    -1.9440 H       
@<TRIPOS>BOND
   1    1    2 ar
   2    1    7 1
   3    1    6 ar
   4    2    3 ar
   5    2    9 1
   6    3    4 ar
   7    4    5 ar
   8    4   28 1
   9    5    6 ar
  10    5   29 1
  11    6   27 1
  12    7    8 2
  13    7   10 1
  14    8    9 1
  15    8   12 1
  16   10   11 ar
  17   10   24 ar
  18   11   21 ar
  19   11   30 1
  20   12   13 2
  21   12   14 2
  22   12   15 1
  23   15   16 ar
  24   15   17 ar
  25   16   20 ar
  26   16   31 1
  27   17   18 ar
  28   17   32 1
  29   18   19 ar
  30   18   33 1
  31   19   20 ar
  32   19   26 1
  33   20   34 1
  34   21   22 ar
  35   21   35 1
  36   22   23 ar
  37   22   25 1
  38   23   24 ar
  39   23   36 1
  40   24   37 1

#	End of record

