#	Name: ASD01900473
#	Creating user name:	WinNT
#	Creation time:	15. 06. 2019 19:52

#	Modifying user name:	WinNT
#	Modification time:	15. 06. 2019 19:52

#	Program:	/corina/corina34_cracker 3.40 0067  02.08.2006

@<TRIPOS>MOLECULE
ASD01900473
  36   38    0    0    0
SMALL
NO_CHARGES


@<TRIPOS>ATOM
   1 N1            -0.1277     1.3429     0.8509 N.pl3   
   2 N2            -0.0854    -0.0466     0.6775 N.2     
   3 C3             1.1259    -0.4571     0.9564 C.2     
   4 C4             1.8934     0.6559     1.3160 C.2     
   5 C5             1.1003     1.7501     1.2433 C.2     
   6 C6            -1.2449     2.1666     0.6475 C.ar    
   7 C7            -2.4502     1.6131     0.2363 C.ar    
   8 C8            -3.5498     2.4249     0.0361 C.ar    
   9 C9            -3.4494     3.7939     0.2462 C.ar    
  10 C10           -2.2454     4.3463     0.6564 C.ar    
  11 C11           -1.1472     3.5344     0.8627 C.ar    
  12 O12           -4.5317     4.5929     0.0492 O.3     
  13 C13           -4.3275     6.0024     0.1662 C.3     
  14 C14           -5.3854     6.7410    -0.6560 C.3     
  15 C15           -5.1667     8.2501    -0.5307 C.3     
  16 C16           -5.2832     8.6621     0.9382 C.3     
  17 C17           -4.2252     7.9234     1.7604 C.3     
  18 C18           -4.4439     6.4144     1.6351 C.3     
  19 Cl19          -5.0568     1.7337    -0.4786 Cl      
  20 H20            1.4728    -1.4791     0.9164 H       
  21 H21            2.9350     0.6440     1.6012 H       
  22 H22            1.3954     2.7662     1.4599 H       
  23 H23           -2.5277     0.5484     0.0726 H       
  24 H24           -2.1677     5.4111     0.8193 H       
  25 H25           -0.2112     3.9644     1.1871 H       
  26 H26           -3.3350     6.2578    -0.2052 H       
  27 H27           -5.3025     6.4475    -1.7025 H       
  28 H28           -6.3779     6.4856    -0.2846 H       
  29 H29           -4.1743     8.5055    -0.9022 H       
  30 H30           -5.9204     8.7764    -1.1165 H       
  31 H31           -5.1274     9.7372     1.0274 H       
  32 H32           -6.2756     8.4067     1.3096 H       
  33 H33           -3.2328     8.1788     1.3890 H       
  34 H34           -4.3081     8.2169     2.8068 H       
  35 H35           -5.4363     6.1590     2.0065 H       
  36 H36           -3.6902     5.8881     2.2208 H       
@<TRIPOS>BOND
   1    1    2 1
   2    1    5 1
   3    1    6 1
   4    2    3 2
   5    3    4 1
   6    3   20 1
   7    4    5 2
   8    4   21 1
   9    5   22 1
  10    6    7 ar
  11    6   11 ar
  12    7    8 ar
  13    7   23 1
  14    8    9 ar
  15    8   19 1
  16    9   10 ar
  17    9   12 1
  18   10   11 ar
  19   10   24 1
  20   11   25 1
  21   12   13 1
  22   13   14 1
  23   13   18 1
  24   13   26 1
  25   14   15 1
  26   14   27 1
  27   14   28 1
  28   15   16 1
  29   15   29 1
  30   15   30 1
  31   16   17 1
  32   16   31 1
  33   16   32 1
  34   17   18 1
  35   17   33 1
  36   17   34 1
  37   18   35 1
  38   18   36 1

#	End of record

