#	Name: ASD02030655
#	Creating user name:	WinNT
#	Creation time:	15. 06. 2019 20:15

#	Modifying user name:	WinNT
#	Modification time:	15. 06. 2019 20:15

#	Program:	/corina/corina34_cracker 3.40 0067  02.08.2006

@<TRIPOS>MOLECULE
ASD02030655
  38   41    0    0    0
SMALL
NO_CHARGES


@<TRIPOS>ATOM
   1 C1            -0.0454     1.3072    -0.5349 C.2     
   2 N2            -0.0119    -0.0301    -0.2615 N.am    
   3 N3             2.3300     0.0066    -0.4831 N.2     
   4 C4             2.3388     1.3063    -0.7534 C.2     
   5 C5             1.1443     1.9935    -0.7859 C.2     
   6 C6            -1.0895    -0.8482     0.0060 C.2     
   7 C7            -0.8621    -2.1417     0.2521 C.2     
   8 S8             0.8941    -2.3441     0.1331 S.3     
   9 C9             1.2043    -0.6413    -0.2467 C.2     
  10 O10           -1.1124     1.8998    -0.5648 O.2     
  11 C11            3.6382     2.0218    -1.0191 C.3     
  12 N12            4.2405     2.4288     0.2528 N.pl3   
  13 C13            4.7300     3.6405     2.0173 C.2     
  14 N14            4.0206     3.6418     0.9180 N.2     
  15 C15            5.1010     1.6987     0.9936 C.2     
  16 C16            5.4214     2.4268     2.0901 C.2     
  17 C17            4.7897     4.7534     3.0316 C.3     
  18 Cl18           5.6905     0.1115     0.6103 Cl      
  19 F19            3.8778     5.7544     2.6798 F       
  20 F20            4.4650     4.2501     4.2959 F       
  21 F21            6.0818     5.2890     3.0607 F       
  22 C22           -1.8838    -3.2042     0.5654 C.3     
  23 C23           -2.8162     0.7436     0.8768 C.ar    
  24 C24           -4.9573     0.6764     0.0465 C.ar    
  25 N25           -4.6698    -0.3130    -0.7761 N.ar    
  26 C26           -3.4534    -0.8279    -0.8217 C.ar    
  27 C27           -2.4657    -0.3060     0.0206 C.ar    
  28 N28           -4.0572     1.1976     0.8567 N.ar    
  29 H29            1.1287     3.0512    -1.0035 H       
  30 H30            4.3194     1.3540    -1.5465 H       
  31 H31            3.4488     2.9042    -1.6303 H       
  32 H32            6.0921     2.1238     2.8805 H       
  33 H33           -2.2885    -3.6045    -0.3642 H       
  34 H34           -1.4113    -4.0069     1.1315 H       
  35 H35           -2.6907    -2.7696     1.1555 H       
  36 H36           -2.0856     1.1727     1.5465 H       
  37 H37           -5.9619     1.0725     0.0569 H       
  38 H38           -3.2256    -1.6385    -1.4980 H       
@<TRIPOS>BOND
   1    1    2 am
   2    1    5 1
   3    1   10 2
   4    2    6 1
   5    2    9 1
   6    3    4 1
   7    3    9 2
   8    4    5 2
   9    4   11 1
  10    5   29 1
  11    6    7 2
  12    6   27 1
  13    7    8 1
  14    7   22 1
  15    8    9 1
  16   11   12 1
  17   11   30 1
  18   11   31 1
  19   12   15 1
  20   12   14 1
  21   13   14 2
  22   13   16 1
  23   13   17 1
  24   15   16 2
  25   15   18 1
  26   16   32 1
  27   17   19 1
  28   17   20 1
  29   17   21 1
  30   22   33 1
  31   22   34 1
  32   22   35 1
  33   23   28 ar
  34   23   27 ar
  35   23   36 1
  36   24   25 ar
  37   24   28 ar
  38   24   37 1
  39   25   26 ar
  40   26   27 ar
  41   26   38 1

#	End of record

