#	Name: ASD01510111
#	Creating user name:	WinNT
#	Creation time:	15. 06. 2019 19:21

#	Modifying user name:	WinNT
#	Modification time:	15. 06. 2019 19:21

#	Program:	/corina/corina34_cracker 3.40 0067  02.08.2006

@<TRIPOS>MOLECULE
ASD01510111
  46   48    0    0    0
SMALL
NO_CHARGES


@<TRIPOS>ATOM
   1 C1            -0.0173     1.4248     0.0099 C.3     
   2 O2             0.0021    -0.0041     0.0020 O.3     
   3 C3            -1.2003    -0.6375     0.0101 C.ar    
   4 C4            -1.2554    -2.0237     0.0032 C.ar    
   5 C5            -2.4789    -2.6651     0.0114 C.ar    
   6 C6            -3.6478    -1.9268     0.0264 C.ar    
   7 C7            -3.5955    -0.5452     0.0329 C.ar    
   8 C8            -2.3745     0.1010     0.0310 C.ar    
   9 C9            -4.9811    -2.6292     0.0354 C.3     
  10 O10           -5.3897    -2.8584     1.3854 O.3     
  11 C11           -6.5781    -3.4863     1.5711 C.ar    
  12 N12           -7.2954    -3.8532     0.5215 N.ar    
  13 C13           -8.4607    -4.4685     0.6589 C.ar    
  14 C14           -8.9697    -4.7491     1.9212 C.ar    
  15 C15           -8.2437    -4.3784     3.0409 C.ar    
  16 C16           -7.0255    -3.7418     2.8602 C.ar    
  17 I17           -5.8804    -3.1569     4.5141 I       
  18 N18           -9.1819    -4.8366    -0.4712 N.3     
  19 C19           -8.4717    -4.4498    -1.6983 C.3     
  20 C20           -9.2575    -4.9418    -2.9160 C.3     
  21 N21          -10.6090    -4.3654    -2.8892 N.3     
  22 C22          -11.3192    -4.7522    -1.6621 C.3     
  23 C23          -10.5334    -4.2601    -0.4444 C.3     
  24 C24          -11.3710    -4.7543    -4.0833 C.3     
  25 H25            1.0053     1.8021     0.0021 H       
  26 H26           -0.5445     1.7859    -0.8732 H       
  27 H27           -0.5275     1.7763     0.9067 H       
  28 H28           -0.3427    -2.6008    -0.0090 H       
  29 H29           -2.5223    -3.7442     0.0056 H       
  30 H30           -4.5100     0.0293     0.0440 H       
  31 H31           -2.3342     1.1803     0.0361 H       
  32 H32           -5.7222    -2.0084    -0.4681 H       
  33 H33           -4.8927    -3.5832    -0.4845 H       
  34 H34           -9.9205    -5.2502     2.0279 H       
  35 H35           -8.6166    -4.5843     4.0334 H       
  36 H36           -8.3803    -3.3644    -1.7387 H       
  37 H37           -7.4786    -4.8990    -1.7006 H       
  38 H38           -8.7475    -4.6309    -3.8278 H       
  39 H39           -9.3255    -6.0294    -2.8897 H       
  40 H40          -12.3124    -4.3030    -1.6598 H       
  41 H41          -11.4106    -5.8376    -1.6217 H       
  42 H42          -11.0434    -4.5711     0.4674 H       
  43 H43          -10.4655    -3.1726    -0.4707 H       
  44 H44          -11.4550    -5.8404    -4.1229 H       
  45 H45          -12.3672    -4.3143    -4.0379 H       
  46 H46          -10.8563    -4.3970    -4.9752 H       
@<TRIPOS>BOND
   1    1    2 1
   2    1   25 1
   3    1   26 1
   4    1   27 1
   5    2    3 1
   6    3    4 ar
   7    3    8 ar
   8    4    5 ar
   9    4   28 1
  10    5    6 ar
  11    5   29 1
  12    6    7 ar
  13    6    9 1
  14    7    8 ar
  15    7   30 1
  16    8   31 1
  17    9   10 1
  18    9   32 1
  19    9   33 1
  20   10   11 1
  21   11   12 ar
  22   11   16 ar
  23   12   13 ar
  24   13   14 ar
  25   13   18 1
  26   14   15 ar
  27   14   34 1
  28   15   16 ar
  29   15   35 1
  30   16   17 1
  31   18   19 1
  32   18   23 1
  33   19   20 1
  34   19   36 1
  35   19   37 1
  36   20   21 1
  37   20   38 1
  38   20   39 1
  39   21   22 1
  40   21   24 1
  41   22   23 1
  42   22   40 1
  43   22   41 1
  44   23   42 1
  45   23   43 1
  46   24   44 1
  47   24   45 1
  48   24   46 1

#	End of record

