#	Name: ASD04882213
#	Creating user name:	WinNT
#	Creation time:	15. 06. 2019 20:54

#	Modifying user name:	WinNT
#	Modification time:	15. 06. 2019 20:54

#	Program:	/corina/corina34_cracker 3.40 0067  02.08.2006

@<TRIPOS>MOLECULE
ASD04882213
  82   86    0    0    0
SMALL
NO_CHARGES


@<TRIPOS>ATOM
   1 C1             0.1256     1.4917    -0.4330 C.2     
   2 C2             0.1458     0.0187    -0.4838 C.2     
   3 N3             1.1860    -0.6594     0.0401 N.am    
   4 C4             1.1515    -2.0589     0.0994 C.ar    
   5 C5             2.3301    -2.7946    -0.0520 C.ar    
   6 C6             2.2974    -4.1832     0.0066 C.ar    
   7 C7             1.1041    -4.8388     0.2139 C.ar    
   8 C8            -0.0783    -4.1092     0.3657 C.ar    
   9 C9            -0.0472    -2.7128     0.3134 C.ar    
  10 N10            3.5388    -2.1359    -0.2623 N.3     
  11 C11            3.5450    -1.4485    -1.5612 C.3     
  12 C12            4.6712    -3.0666    -0.1568 C.3     
  13 C13            5.9815    -2.2917    -0.3147 C.3     
  14 N14            5.9876    -1.6043    -1.6136 N.3     
  15 C15            4.8553    -0.6736    -1.7190 C.3     
  16 C16            7.2000    -0.9436    -1.8245 C.ar    
  17 C17            7.9940    -1.2770    -2.9142 C.ar    
  18 C18            7.6117     0.0526    -0.9480 C.ar    
  19 C19            8.8108     0.7038    -1.1594 C.ar    
  20 C20            9.6016     0.3657    -2.2425 C.ar    
  21 C21            9.1924    -0.6216    -3.1198 C.ar    
  22 C22           -1.3565    -4.8117     0.5873 C.2     
  23 N23           -1.3846    -6.1580     0.6436 N.am    
  24 O24           -2.3847    -4.1761     0.7193 O.2     
  25 O25           -0.7762    -0.5848    -0.9987 O.2     
  26 N26            1.0812     2.2951     0.1081 N.2     
  27 C27            0.7101     3.5319    -0.0372 C.2     
  28 O28           -0.4741     3.5671    -0.6645 O.3     
  29 C29           -0.8498     2.3044    -0.9236 C.2     
  30 C30            7.5488    -2.3530    -3.8708 C.3     
  31 C31           -2.6539    -6.8556     0.8637 C.3     
  32 C32           -2.4089    -8.3657     0.8847 C.3     
  33 C33           -3.7345    -9.0943     1.1146 C.3     
  34 N34           -3.4999   -10.5403     1.1347 N.am    
  35 C35           -3.1851   -11.3114     2.3431 C.3     
  36 C36           -2.6042   -12.6506     1.8377 C.3     
  37 C37           -3.2446   -12.7627     0.4348 C.3     
  38 C38           -3.5509   -11.3321     0.0497 C.2     
  39 O39           -3.7990   -10.9535    -1.0755 O.2     
  40 C40            1.4881     4.7364     0.4263 C.3     
  41 C41            1.8198     5.6228    -0.7758 C.3     
  42 C42            0.6489     5.5305     1.4294 C.3     
  43 H43            1.9586    -0.1786     0.3762 H       
  44 H44            3.2097    -4.7491    -0.1111 H       
  45 H45            1.0819    -5.9176     0.2590 H       
  46 H46           -0.9592    -2.1463     0.4303 H       
  47 H47            3.4582    -2.1831    -2.3617 H       
  48 H48            2.7047    -0.7560    -1.6101 H       
  49 H49            4.6519    -3.5538     0.8181 H       
  50 H50            4.5972    -3.8196    -0.9415 H       
  51 H51            6.0682    -1.5571     0.4859 H       
  52 H52            6.8217    -2.9842    -0.2658 H       
  53 H53            4.8745    -0.1864    -2.6939 H       
  54 H54            4.9292     0.0794    -0.9344 H       
  55 H55            6.9943     0.3177    -0.1024 H       
  56 H56            9.1314     1.4783    -0.4784 H       
  57 H57           10.5387     0.8770    -2.4060 H       
  58 H58            9.8123    -0.8833    -3.9646 H       
  59 H59           -0.5644    -6.6650     0.5384 H       
  60 H60           -1.7567     1.9926    -1.4203 H       
  61 H61            6.9575    -1.9065    -4.6702 H       
  62 H62            8.4233    -2.8448    -4.2970 H       
  63 H63            6.9438    -3.0860    -3.3372 H       
  64 H64           -3.0795    -6.5433     1.8173 H       
  65 H65           -3.3471    -6.6112     0.0589 H       
  66 H66           -1.9832    -8.6781    -0.0689 H       
  67 H67           -1.7156    -8.6102     1.6895 H       
  68 H68           -4.1601    -8.7820     2.0682 H       
  69 H69           -4.4277    -8.8499     0.3097 H       
  70 H70           -2.4462   -10.7832     2.9458 H       
  71 H71           -4.0902   -11.4882     2.9242 H       
  72 H72           -1.5175   -12.6028     1.7678 H       
  73 H73           -2.9165   -13.4770     2.4762 H       
  74 H74           -2.5432   -13.2087    -0.2703 H       
  75 H75           -4.1640   -13.3465     0.4806 H       
  76 H76            2.4123     4.4104     0.9034 H       
  77 H77            2.4176     5.0571    -1.4904 H       
  78 H78            0.8956     5.9488    -1.2529 H       
  79 H79            2.3825     6.4940    -0.4406 H       
  80 H80            0.4126     4.8990     2.2858 H       
  81 H81            1.2116     6.4017     1.7646 H       
  82 H82           -0.2754     5.8565     0.9522 H       
@<TRIPOS>BOND
   1    1    2 1
   2    1   26 1
   3    1   29 2
   4    2    3 am
   5    2   25 2
   6    3    4 1
   7    3   43 1
   8    4    5 ar
   9    4    9 ar
  10    5    6 ar
  11    5   10 1
  12    6    7 ar
  13    6   44 1
  14    7    8 ar
  15    7   45 1
  16    8    9 ar
  17    8   22 1
  18    9   46 1
  19   10   11 1
  20   10   12 1
  21   11   15 1
  22   11   47 1
  23   11   48 1
  24   12   13 1
  25   12   49 1
  26   12   50 1
  27   13   14 1
  28   13   51 1
  29   13   52 1
  30   14   15 1
  31   14   16 1
  32   15   53 1
  33   15   54 1
  34   16   17 ar
  35   16   18 ar
  36   17   30 1
  37   17   21 ar
  38   18   19 ar
  39   18   55 1
  40   19   20 ar
  41   19   56 1
  42   20   21 ar
  43   20   57 1
  44   21   58 1
  45   22   23 am
  46   22   24 2
  47   23   31 1
  48   23   59 1
  49   26   27 2
  50   27   28 1
  51   27   40 1
  52   28   29 1
  53   29   60 1
  54   30   61 1
  55   30   62 1
  56   30   63 1
  57   31   32 1
  58   31   64 1
  59   31   65 1
  60   32   33 1
  61   32   66 1
  62   32   67 1
  63   33   34 1
  64   33   68 1
  65   33   69 1
  66   34   35 1
  67   34   38 am
  68   35   36 1
  69   35   70 1
  70   35   71 1
  71   36   37 1
  72   36   72 1
  73   36   73 1
  74   37   38 1
  75   37   74 1
  76   37   75 1
  77   38   39 2
  78   40   41 1
  79   40   42 1
  80   40   76 1
  81   41   77 1
  82   41   78 1
  83   41   79 1
  84   42   80 1
  85   42   81 1
  86   42   82 1

#	End of record

