#	Name: ASD05430141
#	Creating user name:	WinNT
#	Creation time:	15. 06. 2019 20:59

#	Modifying user name:	WinNT
#	Modification time:	15. 06. 2019 20:59

#	Program:	/corina/corina34_cracker 3.40 0067  02.08.2006

@<TRIPOS>MOLECULE
ASD05430141
  70   75    0    0    0
SMALL
NO_CHARGES


@<TRIPOS>ATOM
   1 C1             0.1668     0.9509    -0.0991 C.ar    
   2 C2             0.2110    -0.1997    -0.8854 C.ar    
   3 C3             1.4062    -0.6017    -1.4674 C.ar    
   4 C4             2.5543     0.1346    -1.2706 C.ar    
   5 C5             2.5175     1.2902    -0.4834 C.ar    
   6 C6             1.3141     1.6948     0.1025 C.ar    
   7 C7             5.0242    -0.0526    -0.1085 C.3     
   8 C8             4.9337     1.4561    -0.1667 C.2     
   9 C9             3.7427     2.0778    -0.2715 C.2     
  10 C10            6.3545    -0.4756     0.5056 C.3     
  11 C11            6.9381     0.5192     1.5061 C.3     
  12 N12            7.1375     1.8079     0.8401 N.pl3   
  13 C13            6.1876     2.2230    -0.1046 C.2     
  14 C14            9.3635     1.8602     1.8032 C.ar    
  15 C15           10.2705     1.1728     1.0184 C.ar    
  16 C16           11.2748     0.4309     1.6107 C.ar    
  17 C17           11.3724     0.3762     2.9907 C.ar    
  18 C18           10.4634     1.0651     3.7758 C.ar    
  19 C19            9.4599     1.8063     3.1813 C.ar    
  20 N20           -0.9541    -0.9531    -1.0887 N.pl3   
  21 C21           -1.4450    -1.3854    -2.2933 C.2     
  22 C22           -2.5749    -2.0699    -2.0311 C.2     
  23 N23           -2.7729    -2.0587    -0.7047 N.2     
  24 C24           -1.8060    -1.3972    -0.1287 C.2     
  25 C25           -3.4634    -2.7331    -3.0518 C.3     
  26 N26            6.4271     3.2162    -0.9017 N.2     
  27 C27           -0.9783     2.5324     1.2581 C.3     
  28 O28           -1.0061     1.3442     0.4648 O.3     
  29 C29            8.2725     2.6738     1.1561 C.3     
  30 C30            8.7979     3.2959    -0.1431 C.3     
  31 N31            7.6770     3.8474    -0.9078 N.pl3   
  32 F32           12.3535    -0.3491     3.5709 F       
  33 O33            8.9326     4.6270     2.4171 O.3     
  34 C34            7.8218     3.7821     2.1098 C.3     
  35 C35            7.8658     5.0728    -1.6881 C.3     
  36 C36            6.3497    -1.9233     1.0252 C.3     
  37 O37            7.6457    -2.0295     0.4012 O.3     
  38 C38            7.3779    -0.9637    -0.5330 C.3     
  39 H39            1.4360    -1.4938    -2.0754 H       
  40 H40            3.4824    -0.1808    -1.7238 H       
  41 H41            1.2811     2.5867     0.7108 H       
  42 H42            4.2063    -0.4405     0.4987 H       
  43 H43            4.9466    -0.4584    -1.1172 H       
  44 H44            3.6872     3.1540    -0.2001 H       
  45 H45            6.2484     0.6434     2.3410 H       
  46 H46            7.8943     0.1474     1.8742 H       
  47 H47           10.1940     1.2153    -0.0581 H       
  48 H48           11.9831    -0.1063     0.9973 H       
  49 H49           10.5386     1.0231     4.8524 H       
  50 H50            8.7508     2.3437     3.7934 H       
  51 H51           -1.0096    -1.2103    -3.2660 H       
  52 H52           -1.7039    -1.2265     0.9328 H       
  53 H53           -3.1322    -3.7595    -3.2095 H       
  54 H54           -4.4922    -2.7346    -2.6917 H       
  55 H55           -3.4084    -2.1850    -3.9923 H       
  56 H56           -1.9765     2.7328     1.6474 H       
  57 H57           -0.2846     2.3990     2.0881 H       
  58 H58           -0.6527     3.3719     0.6438 H       
  59 H59            9.5024     4.0929     0.0945 H       
  60 H60            9.3006     2.5310    -0.7349 H       
  61 H61            8.7195     5.3535     3.0186 H       
  62 H62            7.0368     4.3718     1.6364 H       
  63 H63            7.4385     3.3375     3.0282 H       
  64 H64            8.1918     4.8153    -2.6958 H       
  65 H65            6.9242     5.6196    -1.7394 H       
  66 H66            8.6218     5.6954    -1.2096 H       
  67 H67            6.3755    -2.0021     2.1120 H       
  68 H68            5.5870    -2.5536     0.5681 H       
  69 H69            6.9310    -1.2992    -1.4688 H       
  70 H70            8.2171    -0.2836    -0.6788 H       
@<TRIPOS>BOND
   1    1    2 ar
   2    1    6 ar
   3    1   28 1
   4    2    3 ar
   5    2   20 1
   6    3    4 ar
   7    3   39 1
   8    4    5 ar
   9    4   40 1
  10    5    6 ar
  11    5    9 1
  12    6   41 1
  13    7    8 1
  14    7   10 1
  15    7   42 1
  16    7   43 1
  17    8    9 2
  18    8   13 1
  19    9   44 1
  20   10   11 1
  21   10   36 1
  22   10   38 1
  23   11   12 1
  24   11   45 1
  25   11   46 1
  26   12   13 1
  27   12   29 1
  28   13   26 2
  29   14   15 ar
  30   14   19 ar
  31   14   29 1
  32   15   16 ar
  33   15   47 1
  34   16   17 ar
  35   16   48 1
  36   17   18 ar
  37   17   32 1
  38   18   19 ar
  39   18   49 1
  40   19   50 1
  41   20   21 1
  42   20   24 1
  43   21   22 2
  44   21   51 1
  45   22   23 1
  46   22   25 1
  47   23   24 2
  48   24   52 1
  49   25   53 1
  50   25   54 1
  51   25   55 1
  52   26   31 1
  53   27   28 1
  54   27   56 1
  55   27   57 1
  56   27   58 1
  57   29   30 1
  58   29   34 1
  59   30   31 1
  60   30   59 1
  61   30   60 1
  62   31   35 1
  63   33   34 1
  64   33   61 1
  65   34   62 1
  66   34   63 1
  67   35   64 1
  68   35   65 1
  69   35   66 1
  70   36   37 1
  71   36   67 1
  72   36   68 1
  73   37   38 1
  74   38   69 1
  75   38   70 1

#	End of record

