#	Name: ASD09750011
#	Creating user name:	WinNT
#	Creation time:	15. 06. 2019 21:23

#	Modifying user name:	WinNT
#	Modification time:	15. 06. 2019 21:23

#	Program:	/corina/corina34_cracker 3.40 0067  02.08.2006

@<TRIPOS>MOLECULE
ASD09750011
  67   70    0    0    0
SMALL
NO_CHARGES


@<TRIPOS>ATOM
   1 C1            -0.5220     0.9735     1.5764 C.ar    
   2 C2            -0.4071    -0.4003     1.6779 C.ar    
   3 C3             0.7716    -1.0241     1.3141 C.ar    
   4 C4             1.8353    -0.2742     0.8483 C.ar    
   5 C5             1.7202     1.0995     0.7459 C.ar    
   6 C6             0.5419     1.7235     1.1111 C.ar    
   7 C7             3.1207    -0.9542     0.4526 C.3     
   8 N8             3.0675    -1.3106    -0.9673 N.am    
   9 S9             4.4554    -1.7267    -1.7691 S.o2    
  10 O10            4.0702    -2.0460    -3.0991 O.2     
  11 O11            5.4146    -0.7258    -1.4569 O.2     
  12 C12            5.0452    -3.2228    -1.0492 C.ar    
  13 C13            4.6301    -4.4402    -1.5564 C.ar    
  14 C14            5.0863    -5.6200    -0.9949 C.ar    
  15 C15            5.9601    -5.5770     0.0760 C.ar    
  16 C16            6.3848    -4.3489     0.5870 C.ar    
  17 C17            5.9252    -3.1730     0.0167 C.ar    
  18 N18            6.4321    -6.7556     0.6745 N.am    
  19 C19            6.7756    -6.7113     2.1037 C.3     
  20 C20            7.5118    -5.4282     2.3925 C.2     
  21 N21            7.2791    -4.3209     1.6626 N.am    
  22 O22            8.3236    -5.3926     3.2931 O.2     
  23 C23            5.4954    -6.7662     2.9398 C.3     
  24 C24            5.8547    -6.7201     4.4263 C.3     
  25 C25            4.6076    -5.5696     2.5923 C.3     
  26 C26            6.5658    -7.8919    -0.0378 C.2     
  27 C27            7.1540    -9.1206     0.6068 C.3     
  28 O28            6.2128    -7.9256    -1.1978 O.2     
  29 N29            7.3513   -10.1609    -0.4114 N.4     
  30 C30            7.8887   -11.3699     0.2242 C.3     
  31 C31            8.0200   -12.4830    -0.8175 C.3     
  32 C32            8.9679   -12.0248    -1.9296 C.3     
  33 C33            8.4363   -10.7226    -2.5355 C.3     
  34 C34            8.2896    -9.6747    -1.4301 C.3     
  35 H35           -1.4444     1.4604     1.8564 H       
  36 H36           -1.2382    -0.9863     2.0419 H       
  37 H37            0.8616    -2.0974     1.3941 H       
  38 H38            2.5515     1.6855     0.3827 H       
  39 H39            0.4521     2.7968     1.0314 H       
  40 H40            3.9578    -0.2781     0.6264 H       
  41 H41            3.2528    -1.8568     1.0491 H       
  42 H42            2.2193    -1.3029    -1.4379 H       
  43 H43            3.9476    -4.4705    -2.3929 H       
  44 H44            4.7609    -6.5704    -1.3914 H       
  45 H45            6.2468    -2.2195     0.4088 H       
  46 H46            7.4118    -7.5608     2.3524 H       
  47 H47            7.7367    -3.4949     1.8847 H       
  48 H48            4.9598    -7.6908     2.7240 H       
  49 H49            6.3902    -5.7955     4.6421 H       
  50 H50            4.9426    -6.7592     5.0219 H       
  51 H51            6.4871    -7.5726     4.6739 H       
  52 H52            3.6956    -5.6087     3.1879 H       
  53 H53            5.1431    -4.6451     2.8081 H       
  54 H54            4.3516    -5.6025     1.5333 H       
  55 H55            8.1129    -8.8694     1.0601 H       
  56 H56            6.4741    -9.4885     1.3752 H       
  57 H57            6.4669   -10.3759    -0.8469 H       
  58 H58            8.8690   -11.1519     0.6479 H       
  59 H59            7.2147   -11.6930     1.0176 H       
  60 H60            8.4209   -13.3792    -0.3439 H       
  61 H61            7.0401   -12.7020    -1.2417 H       
  62 H62            9.9614   -11.8548    -1.5146 H       
  63 H63            9.0207   -12.7915    -2.7025 H       
  64 H64            9.1347   -10.3605    -3.2899 H       
  65 H65            7.4651   -10.9051    -2.9953 H       
  66 H66            7.9115    -8.7463    -1.8582 H       
  67 H67            9.2614    -9.4929    -0.9712 H       
@<TRIPOS>BOND
   1    1    2 ar
   2    1    6 ar
   3    1   35 1
   4    2    3 ar
   5    2   36 1
   6    3    4 ar
   7    3   37 1
   8    4    5 ar
   9    4    7 1
  10    5    6 ar
  11    5   38 1
  12    6   39 1
  13    7    8 1
  14    7   40 1
  15    7   41 1
  16    8    9 am
  17    8   42 1
  18    9   10 2
  19    9   11 2
  20    9   12 1
  21   12   13 ar
  22   12   17 ar
  23   13   14 ar
  24   13   43 1
  25   14   15 ar
  26   14   44 1
  27   15   16 ar
  28   15   18 1
  29   16   17 ar
  30   16   21 1
  31   17   45 1
  32   18   19 1
  33   18   26 am
  34   19   20 1
  35   19   23 1
  36   19   46 1
  37   20   21 am
  38   20   22 2
  39   21   47 1
  40   23   24 1
  41   23   25 1
  42   23   48 1
  43   24   49 1
  44   24   50 1
  45   24   51 1
  46   25   52 1
  47   25   53 1
  48   25   54 1
  49   26   27 1
  50   26   28 2
  51   27   29 1
  52   27   55 1
  53   27   56 1
  54   29   30 1
  55   29   34 1
  56   29   57 1
  57   30   31 1
  58   30   58 1
  59   30   59 1
  60   31   32 1
  61   31   60 1
  62   31   61 1
  63   32   33 1
  64   32   62 1
  65   32   63 1
  66   33   34 1
  67   33   64 1
  68   33   65 1
  69   34   66 1
  70   34   67 1

#	End of record

