#	Name: ASD01884790
#	Creating user name:	WinNT
#	Creation time:	15. 06. 2019 19:48

#	Modifying user name:	WinNT
#	Modification time:	15. 06. 2019 19:48

#	Program:	/corina/corina34_cracker 3.40 0067  02.08.2006

@<TRIPOS>MOLECULE
ASD01884790
  53   56    0    0    0
SMALL
NO_CHARGES


@<TRIPOS>ATOM
   1 C1            -1.3191     1.1457     0.7180 C.3     
   2 O2            -1.3439    -0.2807     0.8006 O.3     
   3 C3            -0.4782    -0.8200     1.8016 C.3     
   4 C4            -0.5840    -2.3233     1.8003 C.ar    
   5 C5            -1.4141    -2.9662     0.9214 C.ar    
   6 C6            -1.4896    -4.3570     0.9446 C.ar    
   7 N7            -2.3300    -5.0114     0.0543 N.pl3   
   8 N8            -0.7705    -5.0646     1.8038 N.ar    
   9 C9             0.0408    -4.4872     2.6667 C.ar    
  10 C10            0.1708    -3.0970     2.6964 C.ar    
  11 C11            1.0570    -2.4698     3.6301 C.1     
  12 C12            1.7836    -1.9556     4.3955 C.1     
  13 C13            2.6699    -1.3284     5.3292 C.2     
  14 C14            2.8916     0.0591     5.4771 C.2     
  15 N15            3.7714     0.2463     6.4307 N.2     
  16 N16            4.1644    -0.9850     6.9374 N.pl3   
  17 C17            5.1331    -1.3152     7.9849 C.3     
  18 H18            6.1234    -1.4263     7.5433 H       
  19 C19            5.1609    -0.1953     9.0271 C.3     
  20 C20            4.7217    -2.6270     8.6536 C.3     
  21 N21            4.3754    -3.6627     7.6863 N.am    
  22 C22            3.6672    -3.3830     6.5657 C.2     
  23 O23            3.2181    -4.2626     5.8543 O.2     
  24 C24            3.4662    -1.9635     6.2607 C.2     
  25 C25            4.7855    -4.9785     7.9217 C.ar    
  26 C26            5.7353    -5.5694     7.0983 C.ar    
  27 C27            6.1386    -6.8690     7.3338 C.ar    
  28 C28            5.5978    -7.5821     8.3881 C.ar    
  29 C29            4.6516    -6.9970     9.2095 C.ar    
  30 C30            4.2482    -5.6957     8.9829 C.ar    
  31 C31            6.0403    -9.0001     8.6421 C.3     
  32 F32            7.1366    -8.9980     9.5111 F       
  33 F33            4.9890    -9.7203     9.2195 F       
  34 F34            6.4059    -9.5985     7.4315 F       
  35 H35           -0.3083     1.4785     0.4822 H       
  36 H36           -2.0022     1.4762    -0.0645 H       
  37 H37           -1.6280     1.5704     1.6731 H       
  38 H38            0.5501    -0.5279     1.5883 H       
  39 H39           -0.7696    -0.4361     2.7792 H       
  40 H40           -2.0053    -2.4001     0.2167 H       
  41 H41           -2.8593    -4.5004    -0.5778 H       
  42 H42           -2.3880    -5.9796     0.0644 H       
  43 H43            0.6126    -5.0938     3.3533 H       
  44 H44            2.4152     0.8373     4.8993 H       
  45 H45            4.1708    -0.0863     9.4697 H       
  46 H46            5.8821    -0.4419     9.8063 H       
  47 H47            5.4495     0.7401     8.5477 H       
  48 H48            5.5472    -2.9824     9.2703 H       
  49 H49            3.8599    -2.4409     9.2945 H       
  50 H50            6.1578    -5.0131     6.2745 H       
  51 H51            6.8768    -7.3292     6.6937 H       
  52 H52            4.2308    -7.5568    10.0315 H       
  53 H53            3.5125    -5.2379     9.6275 H       
@<TRIPOS>BOND
   1    1    2 1
   2    1   35 1
   3    1   36 1
   4    1   37 1
   5    2    3 1
   6    3    4 1
   7    3   38 1
   8    3   39 1
   9    4   10 ar
  10    4    5 ar
  11    5    6 ar
  12    5   40 1
  13    6    7 1
  14    6    8 ar
  15    7   41 1
  16    7   42 1
  17    8    9 ar
  18    9   10 ar
  19    9   43 1
  20   10   11 1
  21   11   12 3
  22   12   13 1
  23   13   24 2
  24   13   14 1
  25   14   15 2
  26   14   44 1
  27   15   16 1
  28   16   24 1
  29   16   17 1
  30   17   18 1
  31   17   19 1
  32   17   20 1
  33   19   45 1
  34   19   46 1
  35   19   47 1
  36   20   21 1
  37   20   48 1
  38   20   49 1
  39   21   22 am
  40   21   25 1
  41   22   23 2
  42   22   24 1
  43   25   30 ar
  44   25   26 ar
  45   26   27 ar
  46   26   50 1
  47   27   28 ar
  48   27   51 1
  49   28   29 ar
  50   28   31 1
  51   29   30 ar
  52   29   52 1
  53   30   53 1
  54   31   32 1
  55   31   33 1
  56   31   34 1

#	End of record

