#	Name: ASD01150989
#	Creating user name:	WinNT
#	Creation time:	15. 06. 2019 19:05

#	Modifying user name:	WinNT
#	Modification time:	15. 06. 2019 19:05

#	Program:	/corina/corina34_cracker 3.40 0067  02.08.2006

@<TRIPOS>MOLECULE
ASD01150989
  43   44    0    0    0
SMALL
NO_CHARGES


@<TRIPOS>ATOM
   1 C1            -0.0167     1.3800     0.0096 C.2     
   2 C2             0.0021    -0.0041     0.0020 C.2     
   3 N3            -1.2980    -0.4142     0.0131 N.2     
   4 C4            -2.0633     0.6334     0.0265 C.2     
   5 O5            -1.3108     1.7452     0.0299 O.3     
   6 C6            -3.5700     0.6063     0.0417 C.3     
   7 C7            -4.0652     0.5900     1.4892 C.3     
   8 C8             1.1897    -0.8625    -0.0151 C.2     
   9 O9             1.0521    -2.2042    -0.0208 O.3     
  10 O10            2.2996    -0.3649    -0.0241 O.2     
  11 C11            2.2717    -2.9919    -0.0379 C.3     
  12 C12            1.9175    -4.4804    -0.0422 C.3     
  13 N13            1.0796     2.2215     0.0037 N.am    
  14 C14            0.9035     3.5577     0.0125 C.2     
  15 C15            2.0990     4.4753     0.0061 C.3     
  16 O16           -0.2168     4.0216     0.0257 O.2     
  17 C17            1.6253     5.9301     0.0184 C.3     
  18 C18            2.8207     6.8477     0.0119 C.ar    
  19 C19            3.3576     7.2749    -1.1882 C.ar    
  20 C20            4.4541     8.1166    -1.1941 C.ar    
  21 C21            5.0136     8.5313     0.0000 C.ar    
  22 C22            4.4762     8.1048     1.2001 C.ar    
  23 C23            3.3769     7.2666     1.2061 C.ar    
  24 H24           -3.9544     1.4921    -0.4639 H       
  25 H25           -3.9225    -0.2876    -0.4730 H       
  26 H26           -3.7127     1.4838     2.0039 H       
  27 H27           -5.1549     0.5703     1.5002 H       
  28 H28           -3.6807    -0.2958     1.9948 H       
  29 H29            2.8463    -2.7527    -0.9327 H       
  30 H30            2.8651    -2.7622     0.8471 H       
  31 H31            1.3241    -4.7101    -0.9272 H       
  32 H32            2.8331    -5.0717    -0.0550 H       
  33 H33            1.3429    -4.7197     0.8527 H       
  34 H34            1.9758     1.8505    -0.0069 H       
  35 H35            2.7085     4.2841     0.8892 H       
  36 H36            2.6915     4.2937    -0.8906 H       
  37 H37            1.0158     6.1212    -0.8648 H       
  38 H38            1.0328     6.1116     0.9151 H       
  39 H39            2.9205     6.9509    -2.1211 H       
  40 H40            4.8740     8.4498    -2.1317 H       
  41 H41            5.8708     9.1883    -0.0047 H       
  42 H42            4.9135     8.4285     2.1330 H       
  43 H43            2.9571     6.9333     2.1436 H       
@<TRIPOS>BOND
   1    1    2 2
   2    1   13 1
   3    1    5 1
   4    2    3 1
   5    2    8 1
   6    3    4 2
   7    4    5 1
   8    4    6 1
   9    6    7 1
  10    6   24 1
  11    6   25 1
  12    7   26 1
  13    7   27 1
  14    7   28 1
  15    8    9 1
  16    8   10 2
  17    9   11 1
  18   11   12 1
  19   11   29 1
  20   11   30 1
  21   12   31 1
  22   12   32 1
  23   12   33 1
  24   13   14 am
  25   13   34 1
  26   14   15 1
  27   14   16 2
  28   15   17 1
  29   15   35 1
  30   15   36 1
  31   17   18 1
  32   17   37 1
  33   17   38 1
  34   18   19 ar
  35   18   23 ar
  36   19   20 ar
  37   19   39 1
  38   20   21 ar
  39   20   40 1
  40   21   22 ar
  41   21   41 1
  42   22   23 ar
  43   22   42 1
  44   23   43 1

#	End of record

