#	Name: ASD05430230
#	Creating user name:	WinNT
#	Creation time:	15. 06. 2019 21:00

#	Modifying user name:	WinNT
#	Modification time:	15. 06. 2019 21:00

#	Program:	/corina/corina34_cracker 3.40 0067  02.08.2006

@<TRIPOS>MOLECULE
ASD05430230
  60   66    0    0    0
SMALL
NO_CHARGES


@<TRIPOS>ATOM
   1 C1            -0.1675     1.2141     0.9560 C.ar    
   2 C2            -0.0147    -0.0169     0.3186 C.ar    
   3 C3            -1.0678    -0.5643    -0.4035 C.ar    
   4 C4            -2.2679     0.1063    -0.4933 C.ar    
   5 C5            -2.4283     1.3414     0.1434 C.ar    
   6 C6            -1.3705     1.8897     0.8748 C.ar    
   7 C7            -4.9165    -0.1411     0.1094 C.3     
   8 C8            -4.8620     1.3705    -0.0467 C.2     
   9 C9            -3.7098     2.0596     0.0481 C.2     
  10 C10           -6.1646    -0.4833     0.9342 C.3     
  11 C11           -7.4975    -0.0107     0.3409 C.3     
  12 N12           -7.3717     1.3953    -0.0403 N.pl3   
  13 C13           -6.1576     2.0345    -0.3099 C.2     
  14 N14            1.2036    -0.7028     0.4063 N.pl3   
  15 C15            1.5027    -1.8927    -0.1506 C.2     
  16 N16            2.3585    -0.2843     1.0871 N.2     
  17 C17            3.2585    -1.2170     0.9136 C.2     
  18 N18            2.7379    -2.1884     0.1646 N.2     
  19 C19            4.6598    -1.1948     1.4677 C.3     
  20 C20           -8.4041     2.4083    -0.2067 C.3     
  21 O21           -7.7596     3.4515    -0.9494 O.3     
  22 N22           -6.3644     3.2099    -0.8087 N.2     
  23 C23           -9.6145     1.8610    -0.9729 C.3     
  24 N24          -10.7596     2.0755    -0.0740 N.pl3   
  25 C25          -10.3313     2.6740     1.0990 C.ar    
  26 C26           -8.9508     2.8998     1.0918 C.ar    
  27 O27            0.8650     1.7469     1.6617 O.3     
  28 C28            0.6383     3.0108     2.2888 C.3     
  29 C29           -6.1616    -1.8034     1.7045 C.3     
  30 C30           -6.0272    -0.4775     2.4566 C.3     
  31 C31          -11.1028     3.0439     2.2049 C.ar    
  32 C32          -10.4439     3.6336     3.2736 C.ar    
  33 C33           -9.0788     3.8513     3.2558 C.ar    
  34 C34           -8.3024     3.4885     2.1633 C.ar    
  35 F35          -11.1550     4.0055     4.3604 F       
  36 H36           -0.9453    -1.5177    -0.8959 H       
  37 H37           -3.0847    -0.3214    -1.0556 H       
  38 H38           -1.4904     2.8429     1.3682 H       
  39 H39           -4.9822    -0.6114    -0.8717 H       
  40 H40           -4.0240    -0.4910     0.6282 H       
  41 H41           -3.7254     3.1394     0.0542 H       
  42 H42           -7.7378    -0.6076    -0.5390 H       
  43 H43           -8.2871    -0.1183     1.0846 H       
  44 H44            0.8391    -2.4968    -0.7514 H       
  45 H45            4.6692    -1.6645     2.4512 H       
  46 H46            5.3240    -1.7409     0.7979 H       
  47 H47            4.9998    -0.1628     1.5546 H       
  48 H48           -9.7546     2.4111    -1.9034 H       
  49 H49           -9.4856     0.7978    -1.1757 H       
  50 H50          -11.6776     1.8339    -0.2736 H       
  51 H51           -0.1857     2.9225     2.9969 H       
  52 H52            1.5397     3.3211     2.8173 H       
  53 H53            0.3880     3.7529     1.5307 H       
  54 H54           -7.1078    -2.3376     1.7913 H       
  55 H55           -5.2732    -2.4300     1.6260 H       
  56 H56           -5.0502    -0.2318     2.8729 H       
  57 H57           -6.8848    -0.1395     3.0382 H       
  58 H58          -12.1695     2.8766     2.2263 H       
  59 H59           -8.6062     4.3134     4.1099 H       
  60 H60           -7.2359     3.6586     2.1503 H       
@<TRIPOS>BOND
   1    1    2 ar
   2    1   27 1
   3    1    6 ar
   4    2    3 ar
   5    2   14 1
   6    3    4 ar
   7    3   36 1
   8    4    5 ar
   9    4   37 1
  10    5    6 ar
  11    5    9 1
  12    6   38 1
  13    7    8 1
  14    7   10 1
  15    7   39 1
  16    7   40 1
  17    8    9 2
  18    8   13 1
  19    9   41 1
  20   10   11 1
  21   10   29 1
  22   10   30 1
  23   11   12 1
  24   11   42 1
  25   11   43 1
  26   12   13 1
  27   12   20 1
  28   13   22 2
  29   14   15 1
  30   14   16 1
  31   15   18 2
  32   15   44 1
  33   16   17 2
  34   17   18 1
  35   17   19 1
  36   19   45 1
  37   19   46 1
  38   19   47 1
  39   20   21 1
  40   20   23 1
  41   20   26 1
  42   21   22 1
  43   23   24 1
  44   23   48 1
  45   23   49 1
  46   24   25 1
  47   24   50 1
  48   25   26 ar
  49   25   31 ar
  50   26   34 ar
  51   27   28 1
  52   28   51 1
  53   28   52 1
  54   28   53 1
  55   29   30 1
  56   29   54 1
  57   29   55 1
  58   30   56 1
  59   30   57 1
  60   31   32 ar
  61   31   58 1
  62   32   33 ar
  63   32   35 1
  64   33   34 ar
  65   33   59 1
  66   34   60 1

#	End of record

