#	Name: ASD08780001
#	Creating user name:	WinNT
#	Creation time:	15. 06. 2019 21:19

#	Modifying user name:	WinNT
#	Modification time:	15. 06. 2019 21:19

#	Program:	/corina/corina34_cracker 3.40 0067  02.08.2006

@<TRIPOS>MOLECULE
ASD08780001
 152  168    0    0    0
SMALL
NO_CHARGES


@<TRIPOS>ATOM
   1 C1             0.0728    -0.5863     2.7258 C.2     
   2 C2            -0.4777    -2.6406     3.1178 C.2     
   3 C3            -0.3908    -4.0332     3.2370 C.2     
   4 C4             0.5398    -4.6717     2.5240 C.2     
   5 C5             1.3838    -5.1225     0.7256 C.2     
   6 C6             1.4430    -5.1605    -0.6093 C.2     
   7 C7             1.9365    -3.9589    -1.2570 C.2     
   8 C8             2.8249    -1.9785    -1.4248 C.2     
   9 C9             3.3894    -0.7036    -1.0183 C.2     
  10 C10            3.2119    -0.3412     0.2609 C.2     
  11 C11            2.0603     0.2984     1.8001 C.2     
  12 C12            0.9075     0.5663     2.4091 C.2     
  13 N13            1.4651    -4.2713     1.5890 N.3     
  14 N14            2.1926    -2.8116    -0.5413 N.pl3   
  15 N15            2.6408    -0.8109     1.2291 N.3     
  16 C16           -1.1168    -0.5205     3.4077 C.2     
  17 C17           -1.8648     0.7179     3.8281 C.3     
  18 C18            0.7776    -6.0708     2.6954 C.2     
  19 C19            0.5017    -6.9459     3.8919 C.3     
  20 C20            2.2032    -3.7636    -2.5866 C.2     
  21 C21            1.8684    -4.7027    -3.7172 C.3     
  22 C22            3.0956     1.2984     1.7339 C.2     
  23 C23            3.2825     2.5246     2.5939 C.3     
  24 C24           -1.4743    -1.8466     3.6830 C.2     
  25 C25           -2.6635    -2.3027     4.4234 C.2     
  26 C26           -2.9551    -1.7698     5.6063 C.2     
  27 C27            1.3315    -6.4117     1.4850 C.2     
  28 C28            1.7730    -7.7443     1.0381 C.2     
  29 C29            2.4009    -7.8811    -0.1274 C.2     
  30 C30            3.8566     0.8594     0.7172 C.2     
  31 C31            5.1214     1.4918     0.1894 C.3     
  32 C32            6.3348     0.8299     0.8455 C.3     
  33 C33            2.8162    -2.5219    -2.6751 C.2     
  34 C34            3.4042    -1.8916    -3.9217 C.3     
  35 C35            4.9250    -1.7969    -3.7222 C.3     
  36 O36            7.5331     2.3576    -0.5055 O.co2   
  37 C37            7.5976     1.4613     0.3185 C.2     
  38 O38            8.6838     1.0758     0.7161 O.co2   
  39 O39            4.8401    -4.1198    -3.2836 O.2     
  40 C40            5.4442    -3.0860    -3.1379 C.2     
  41 O41            6.6698    -3.1059    -2.4266 Du      
  42 N42            0.4176    -1.8785     2.4012 N.pl3   
  43 Fe43           1.7727    -2.4610     1.2495 Du      
  44 C44           10.1554    -1.4831    -0.4288 C.2     
  45 C45           10.0221    -0.6578    -2.4330 C.2     
  46 C46            9.5616    -0.4035    -3.7340 C.2     
  47 C47            8.7599    -1.3001    -4.3155 C.2     
  48 C48            8.3807    -3.2264    -4.9035 C.2     
  49 C49            8.6808    -4.5085    -5.1449 C.2     
  50 C50            8.7082    -5.3882    -3.9891 C.2     
  51 C51            8.3588    -6.0294    -1.9464 C.2     
  52 C52            7.9241    -5.9471    -0.5621 C.2     
  53 C53            7.8335    -4.7255    -0.0252 C.2     
  54 C54            8.7545    -3.0556     0.6452 C.2     
  55 C55            9.7760    -2.2121     0.7745 C.2     
  56 N56            8.2658    -2.5231    -3.9222 N.3     
  57 N57            8.5028    -4.9037    -2.7174 N.pl3   
  58 N58            8.0431    -3.5857    -0.4077 N.3     
  59 C59           11.0830    -0.4730    -0.4707 C.2     
  60 C60           11.9846    -0.0137     0.6454 C.3     
  61 C61            8.1785    -1.0727    -5.6005 C.2     
  62 C62            7.8984     0.2330    -6.3024 C.3     
  63 C63            8.9455    -6.7400    -3.9627 C.2     
  64 C64            9.3722    -7.6022    -5.1230 C.3     
  65 C65            8.0383    -3.5183     1.8113 C.2     
  66 C66            8.0536    -2.9482     3.2094 C.3     
  67 C67           10.9885     0.0839    -1.7537 C.2     
  68 C68           11.7574     1.2282    -2.2723 C.2     
  69 C69           11.8296     2.3543    -1.5688 C.2     
  70 C70            7.9318    -2.3547    -6.0316 C.2     
  71 C71            7.3488    -2.7732    -7.3190 C.2     
  72 C72            7.0683    -4.0559    -7.5369 C.2     
  73 C73            7.3722    -4.5878     1.3323 C.2     
  74 C74            6.3522    -5.4351     2.0479 C.3     
  75 C75            4.9544    -5.1155     1.5140 C.3     
  76 C76            8.7183    -7.1506    -2.6524 C.2     
  77 C77            8.8494    -8.5531    -2.1151 C.3     
  78 C78           10.2392    -8.7365    -1.5020 C.3     
  79 O79            3.3957    -3.1232     1.6517 Du      
  80 C80            4.7081    -3.6341     1.4852 C.2     
  81 O81            5.6045    -2.8487     1.3072 O.2     
  82 O82            9.4385   -10.9185    -1.0633 O.co2   
  83 C83           10.3703   -10.1384    -0.9649 C.2     
  84 O84           11.4081   -10.4925    -0.4319 O.co2   
  85 N85            9.5748    -1.7042    -1.6566 N.pl3   
  86 Fe86           8.4435    -3.1125    -2.1640 Du      
  87 H87           -1.0600    -4.5780     3.8868 H       
  88 H88            1.1343    -6.0287    -1.1729 H       
  89 H89            3.9187    -0.0755    -1.7210 H       
  90 H90            0.6033     1.5747     2.6477 H       
  91 H91            2.3245    -4.5413     2.0432 H       
  92 H92            3.4163    -0.9612     1.8616 H       
  93 H93           -2.5565     1.0104     3.0381 H       
  94 H94           -2.4226     0.5128     4.7418 H       
  95 H95           -1.1565     1.5265     4.0086 H       
  96 H96           -0.5031    -7.3611     3.8144 H       
  97 H97            1.2287    -7.7574     3.9239 H       
  98 H98            0.5802    -6.3518     4.8024 H       
  99 H99            0.8773    -4.4664    -4.1044 H       
 100 H100           2.6053    -4.5911    -4.5126 H       
 101 H101           1.8806    -5.7297    -3.3522 H       
 102 H102           3.8982     2.2725     3.4572 H       
 103 H103           3.7740     3.3047     2.0124 H       
 104 H104           2.3103     2.8823     2.9329 H       
 105 H105          -3.2986    -3.0698     4.0054 H       
 106 H106          -2.3201    -1.0027     6.0243 H       
 107 H107          -3.8269    -2.1041     6.1490 H       
 108 H108           1.5872    -8.6102     1.6563 H       
 109 H109           2.6519    -7.0080    -0.7114 H       
 110 H110           2.6594    -8.8653    -0.4893 H       
 111 H111           5.1727     1.3549    -0.8908 H       
 112 H112           5.1191     2.5569     0.4209 H       
 113 H113           6.2835     0.9668     1.9257 H       
 114 H114           6.3371    -0.2352     0.6140 H       
 115 H115           3.1800    -2.4955    -4.8004 H       
 116 H116           2.9896    -0.8903    -4.0567 H       
 117 H117           5.4069    -1.6176    -4.6871 H       
 118 H118           5.1587    -0.9678    -3.0507 H       
 119 H119           6.5975    -2.1425    -2.1440 H       
 120 H120           9.8507     0.5004    -4.2514 H       
 121 H121           8.8970    -4.8672    -6.1402 H       
 122 H122           7.6828    -6.8313     0.0094 H       
 123 H123          10.3003    -2.0847     1.7088 H       
 124 H124           7.2759    -2.3278    -3.9699 H       
 125 H125           7.1377    -3.1632    -0.2592 H       
 126 H126          12.9190    -0.5739     0.6115 H       
 127 H127          12.1940     1.0497     0.5290 H       
 128 H128          11.4931    -0.1845     1.6031 H       
 129 H129           8.7649     0.5178    -6.8992 H       
 130 H130           7.0314     0.1172    -6.9527 H       
 131 H131           7.6966     1.0074    -5.5623 H       
 132 H132          10.4607    -7.6326    -5.1722 H       
 133 H133           8.9864    -8.6125    -4.9862 H       
 134 H134           8.9781    -7.1852    -6.0497 H       
 135 H135           7.2685    -2.1982     3.3045 H       
 136 H136           7.8813    -3.7479     3.9298 H       
 137 H137           9.0220    -2.4871     3.4032 H       
 138 H138          12.2625     1.1526    -3.2239 H       
 139 H139          12.3933     3.1933    -1.9490 H       
 140 H140          11.3244     2.4299    -0.6172 H       
 141 H141           7.1493    -2.0390    -8.0856 H       
 142 H142           6.7417    -4.3787    -8.5144 H       
 143 H143           7.1673    -4.7738    -6.7362 H       
 144 H144           6.5736    -6.4910     1.8742 H       
 145 H145           6.3893    -5.2384     3.1197 H       
 146 H146           4.8554    -5.5210     0.5035 H       
 147 H147           4.2096    -5.5946     2.1527 H       
 148 H148           8.0903    -8.7220    -1.3514 H       
 149 H149           8.7133    -9.2675    -2.9270 H       
 150 H150          10.9984    -8.5675    -2.2657 H       
 151 H151          10.3753    -8.0221    -0.6901 H       
 152 H152           3.7361    -2.5374     0.8946 H       
@<TRIPOS>BOND
   1    1   42 1
   2    1   12 1
   3    1   16 2
   4    2    3 1
   5    2   24 2
   6    2   42 1
   7    3    4 2
   8    3   87 1
   9    4   13 1
  10    4   18 1
  11    5    6 1
  12    5   13 2
  13    5   27 1
  14    6    7 2
  15    6   88 1
  16    7   14 1
  17    7   20 1
  18    8    9 2
  19    8   14 1
  20    8   33 1
  21    9   10 1
  22    9   89 1
  23   10   15 2
  24   10   30 1
  25   11   12 2
  26   11   15 1
  27   11   22 1
  28   12   90 1
  29   13   43 1
  30   13   91 1
  31   14   43 1
  32   15   43 1
  33   15   92 1
  34   16   17 1
  35   16   24 1
  36   17   93 1
  37   17   94 1
  38   17   95 1
  39   18   27 2
  40   18   19 1
  41   19   96 1
  42   19   97 1
  43   19   98 1
  44   20   33 2
  45   20   21 1
  46   21   99 1
  47   21  100 1
  48   21  101 1
  49   22   30 2
  50   22   23 1
  51   23  102 1
  52   23  103 1
  53   23  104 1
  54   24   25 1
  55   25   26 2
  56   25  105 1
  57   26  106 1
  58   26  107 1
  59   27   28 1
  60   28   29 2
  61   28  108 1
  62   29  109 1
  63   29  110 1
  64   30   31 1
  65   31   32 1
  66   31  111 1
  67   31  112 1
  68   32   37 1
  69   32  113 1
  70   32  114 1
  71   33   34 1
  72   34   35 1
  73   34  115 1
  74   34  116 1
  75   35   40 1
  76   35  117 1
  77   35  118 1
  78   36   37 ar
  79   37   38 ar
  80   39   40 2
  81   40   41 1
  82   41   86 1
  83   41  119 1
  84   42   43 1
  85   43   79 1
  86   44   85 1
  87   44   55 1
  88   44   59 2
  89   45   46 1
  90   45   67 2
  91   45   85 1
  92   46   47 2
  93   46  120 1
  94   47   56 1
  95   47   61 1
  96   48   49 1
  97   48   56 2
  98   48   70 1
  99   49   50 2
 100   49  121 1
 101   50   57 1
 102   50   63 1
 103   51   52 2
 104   51   57 1
 105   51   76 1
 106   52   53 1
 107   52  122 1
 108   53   58 2
 109   53   73 1
 110   54   55 2
 111   54   58 1
 112   54   65 1
 113   55  123 1
 114   56   86 1
 115   56  124 1
 116   57   86 1
 117   58   86 1
 118   58  125 1
 119   59   60 1
 120   59   67 1
 121   60  126 1
 122   60  127 1
 123   60  128 1
 124   61   70 2
 125   61   62 1
 126   62  129 1
 127   62  130 1
 128   62  131 1
 129   63   76 2
 130   63   64 1
 131   64  132 1
 132   64  133 1
 133   64  134 1
 134   65   73 2
 135   65   66 1
 136   66  135 1
 137   66  136 1
 138   66  137 1
 139   67   68 1
 140   68   69 2
 141   68  138 1
 142   69  139 1
 143   69  140 1
 144   70   71 1
 145   71   72 2
 146   71  141 1
 147   72  142 1
 148   72  143 1
 149   73   74 1
 150   74   75 1
 151   74  144 1
 152   74  145 1
 153   75   80 1
 154   75  146 1
 155   75  147 1
 156   76   77 1
 157   77   78 1
 158   77  148 1
 159   77  149 1
 160   78   83 1
 161   78  150 1
 162   78  151 1
 163   79   80 1
 164   79  152 1
 165   80   81 2
 166   82   83 ar
 167   83   84 ar
 168   85   86 1

#	End of record

