#	Name: ASD03730752
#	Creating user name:	WinNT
#	Creation time:	15. 06. 2019 20:44

#	Modifying user name:	WinNT
#	Modification time:	15. 06. 2019 20:44

#	Program:	/corina/corina34_cracker 3.40 0067  02.08.2006

@<TRIPOS>MOLECULE
ASD03730752
  56   61    0    0    0
SMALL
NO_CHARGES


@<TRIPOS>ATOM
   1 C1            -0.0179     1.4711     0.0101 C.2     
   2 C2             0.0021    -0.0041     0.0020 C.ar    
   3 C3             1.2231    -0.6924    -0.0133 C.ar    
   4 C4             1.2300    -2.0790    -0.0204 C.ar    
   5 C5             0.0386    -2.7773    -0.0123 C.ar    
   6 C6            -1.1699    -2.1008     0.0029 C.ar    
   7 C7            -1.1954    -0.7228     0.0154 C.ar    
   8 O8             1.0267     2.0934     0.0035 O.2     
   9 N9            -1.1942     2.1291     0.0193 N.am    
  10 O10            2.3926    -0.0052    -0.0217 O.3     
  11 C11            3.5969    -0.7743    -0.0373 C.3     
  12 F12            3.6236    -1.5757    -1.1837 F       
  13 F13            4.6998     0.0864    -0.0442 F       
  14 F14            3.6463    -1.5864     1.1007 F       
  15 C15           -1.2140     3.5939     0.0273 C.3     
  16 C16           -2.6633     4.0843     0.0369 C.3     
  17 O17            1.9954     9.1273    -2.0975 O.3     
  18 C18            2.3784    10.4949    -2.3341 C.3     
  19 O19            1.1770    11.1035    -2.8432 O.3     
  20 C20            0.1474    10.3770    -2.3169 C.ar    
  21 C21            0.6512     9.1614    -1.8595 C.ar    
  22 C22           -1.2006    10.6594    -2.1882 C.ar    
  23 C23           -2.0621     9.7352    -1.6048 C.ar    
  24 C24           -1.5486     8.5211    -1.1591 C.ar    
  25 C25           -0.2039     8.2389    -1.2805 C.ar    
  26 O26           -3.4028     9.8209    -1.3692 O.3     
  27 C27           -2.7122     7.7380    -0.6126 C.3     
  28 C28           -3.9320     8.4991    -1.1496 C.3     
  29 N29           -2.6832     5.5491     0.0449 N.am    
  30 C30           -2.6992     6.3076    -1.0693 C.2     
  31 C31           -2.7059     7.6771     0.8861 C.ar    
  32 C32           -2.7137     8.6331     1.8771 C.ar    
  33 C33           -2.7055     8.2525     3.2072 C.ar    
  34 C34           -2.6888     6.9099     3.5388 C.ar    
  35 C35           -2.6800     5.9486     2.5498 C.ar    
  36 C36           -2.6886     6.3225     1.2082 C.ar    
  37 O37           -2.7027     5.9122    -2.2159 O.2     
  38 H38            2.1683    -2.6136    -0.0326 H       
  39 H39            0.0492    -3.8572    -0.0181 H       
  40 H40           -2.0965    -2.6557     0.0092 H       
  41 H41           -2.1400    -0.1995     0.0314 H       
  42 H42           -2.0275     1.6327     0.0205 H       
  43 H43           -0.7010     3.9594     0.9169 H       
  44 H44           -0.7094     3.9690    -0.8630 H       
  45 H45           -3.1764     3.7188    -0.8527 H       
  46 H46           -3.1679     3.7092     0.9272 H       
  47 H47            2.6853    10.9730    -1.4039 H       
  48 H48            3.1770    10.5464    -3.0741 H       
  49 H49           -1.5871    11.6035    -2.5428 H       
  50 H50            0.1830     7.2960    -0.9233 H       
  51 H51           -4.7317     8.5203    -0.4094 H       
  52 H52           -4.2804     8.0613    -2.0851 H       
  53 H53           -2.7265     9.6810     1.6159 H       
  54 H54           -2.7125     9.0020     3.9848 H       
  55 H55           -2.6823     6.6128     4.5771 H       
  56 H56           -2.6664     4.9021     2.8166 H       
@<TRIPOS>BOND
   1    1    2 1
   2    1    8 2
   3    1    9 am
   4    2    3 ar
   5    2    7 ar
   6    3    4 ar
   7    3   10 1
   8    4    5 ar
   9    4   38 1
  10    5    6 ar
  11    5   39 1
  12    6    7 ar
  13    6   40 1
  14    7   41 1
  15    9   15 1
  16    9   42 1
  17   10   11 1
  18   11   12 1
  19   11   13 1
  20   11   14 1
  21   15   16 1
  22   15   43 1
  23   15   44 1
  24   16   29 1
  25   16   45 1
  26   16   46 1
  27   17   18 1
  28   17   21 1
  29   18   19 1
  30   18   47 1
  31   18   48 1
  32   19   20 1
  33   20   21 ar
  34   20   22 ar
  35   21   25 ar
  36   22   23 ar
  37   22   49 1
  38   23   24 ar
  39   23   26 1
  40   24   25 ar
  41   24   27 1
  42   25   50 1
  43   26   28 1
  44   27   28 1
  45   27   30 1
  46   27   31 1
  47   28   51 1
  48   28   52 1
  49   29   30 am
  50   29   36 1
  51   30   37 2
  52   31   32 ar
  53   31   36 ar
  54   32   33 ar
  55   32   53 1
  56   33   34 ar
  57   33   54 1
  58   34   35 ar
  59   34   55 1
  60   35   36 ar
  61   35   56 1

#	End of record

