#	Name: ASD05503027
#	Creating user name:	WinNT
#	Creation time:	15. 06. 2019 21:01

#	Modifying user name:	WinNT
#	Modification time:	15. 06. 2019 21:01

#	Program:	/corina/corina34_cracker 3.40 0067  02.08.2006

@<TRIPOS>MOLECULE
ASD05503027
  36   37    0    0    0
SMALL
NO_CHARGES


@<TRIPOS>ATOM
   1 C1            -0.1564     1.3606     0.4554 C.ar    
   2 C2            -0.0948    -0.0178     0.2945 C.ar    
   3 C3             1.1373    -0.6508     0.2125 C.ar    
   4 C4             2.3041     0.0957     0.2914 C.ar    
   5 C5             2.2356     1.4743     0.4523 C.ar    
   6 C6             1.0075     2.1014     0.5336 C.ar    
   7 N7            -1.2738    -0.7671     0.2158 N.am    
   8 C8            -1.3302    -1.8531    -0.5804 C.2     
   9 C9            -2.5566    -2.7289    -0.5745 C.3     
  10 O10           -0.3939    -2.1255    -1.3016 O.2     
  11 C11           -2.3636    -3.8834    -1.5597 C.3     
  12 C12           -3.6087    -4.7726    -1.5537 C.3     
  13 N13            3.5477    -0.5384     0.2096 N.am    
  14 C14            4.5792     0.0773    -0.4013 C.2     
  15 C15            5.8531    -0.6269    -0.5774 C.2     
  16 O16            4.4533     1.2179    -0.8069 O.2     
  17 C17            6.9727    -0.1230    -1.1755 C.2     
  18 C18            7.9466    -1.1324    -1.1242 C.2     
  19 C19            7.3862    -2.1947    -0.5048 C.2     
  20 O20            6.1266    -1.8842    -0.1717 O.3     
  21 H21           -1.1151     1.8543     0.5148 H       
  22 H22            1.1878    -1.7224     0.0878 H       
  23 H23            3.1434     2.0560     0.5142 H       
  24 H24            0.9568     3.1729     0.6587 H       
  25 H25           -2.0506    -0.5050     0.7343 H       
  26 H26           -2.7128    -3.1286     0.4275 H       
  27 H27           -3.4249    -2.1401    -0.8703 H       
  28 H28           -2.2074    -3.4837    -2.5617 H       
  29 H29           -1.4952    -4.4721    -1.2639 H       
  30 H30           -4.4770    -4.1838    -1.8495 H       
  31 H31           -3.4711    -5.5951    -2.2556 H       
  32 H32           -3.7649    -5.1722    -0.5518 H       
  33 H33            3.6679    -1.4215     0.5926 H       
  34 H34            7.0864     0.8613    -1.6052 H       
  35 H35            8.9545    -1.0715    -1.5075 H       
  36 H36            7.8750    -3.1372    -0.3069 H       
@<TRIPOS>BOND
   1    1    2 ar
   2    1    6 ar
   3    1   21 1
   4    2    3 ar
   5    2    7 1
   6    3    4 ar
   7    3   22 1
   8    4    5 ar
   9    4   13 1
  10    5    6 ar
  11    5   23 1
  12    6   24 1
  13    7    8 am
  14    7   25 1
  15    8    9 1
  16    8   10 2
  17    9   11 1
  18    9   26 1
  19    9   27 1
  20   11   12 1
  21   11   28 1
  22   11   29 1
  23   12   30 1
  24   12   31 1
  25   12   32 1
  26   13   14 am
  27   13   33 1
  28   14   15 1
  29   14   16 2
  30   15   17 2
  31   15   20 1
  32   17   18 1
  33   17   34 1
  34   18   19 2
  35   18   35 1
  36   19   20 1
  37   19   36 1

#	End of record

