#	Name: ASD05313056
#	Creating user name:	WinNT
#	Creation time:	15. 06. 2019 20:58

#	Modifying user name:	WinNT
#	Modification time:	15. 06. 2019 20:58

#	Program:	/corina/corina34_cracker 3.40 0067  02.08.2006

@<TRIPOS>MOLECULE
ASD05313056
  41   44    0    0    0
SMALL
NO_CHARGES


@<TRIPOS>ATOM
   1 C1            -0.0721     0.8168     1.0247 C.2     
   2 C2             0.1140    -0.6194     0.5969 C.3     
   3 N3             0.9301     1.7302     1.0511 N.pl3   
   4 N4             1.4571    -0.7186    -0.0051 N.am    
   5 C5             2.5714    -0.0370     0.6709 C.3     
   6 C6             2.3168     1.4751     0.6646 C.3     
   7 N7            -0.9041     2.6396     1.7094 N.2     
   8 N8            -1.1571     1.4076     1.4276 N.2     
   9 C9             0.3717     2.8897     1.4959 C.2     
  10 C10            1.0645     4.1802     1.7026 C.ar    
  11 C11            0.3482     5.2828     2.1662 C.ar    
  12 C12            1.0092     6.4846     2.3552 C.ar    
  13 C13            2.3659     6.5462     2.0745 C.ar    
  14 C14            3.0176     5.4116     1.6162 C.ar    
  15 N15            2.3650     4.2776     1.4500 N.ar    
  16 F16            4.3392     5.4669     1.3414 F       
  17 C17            1.6574    -1.4143    -1.1419 C.2     
  18 O18            2.7490    -1.4035    -1.6767 O.2     
  19 C19            0.5501    -2.1902    -1.7381 C.ar    
  20 C20            0.3186    -2.1384    -3.1151 C.ar    
  21 C21           -0.7183    -2.8664    -3.6650 C.ar    
  22 C22           -1.5260    -3.6445    -2.8556 C.ar    
  23 C23           -1.3019    -3.6995    -1.4912 C.ar    
  24 C24           -0.2658    -2.9829    -0.9292 C.ar    
  25 C25           -0.9705    -2.8125    -5.1498 C.3     
  26 F26           -2.0642    -3.6252    -5.4669 F       
  27 F27           -1.2441    -1.4938    -5.5287 F       
  28 F28            0.1626    -3.2682    -5.8321 F       
  29 Cl29           1.3310    -1.1612    -4.1319 Cl      
  30 H30            0.0451    -1.2775     1.4631 H       
  31 H31           -0.6440    -0.8898    -0.1382 H       
  32 H32            2.6436    -0.3897     1.6997 H       
  33 H33            3.5020    -0.2517     0.1455 H       
  34 H34            2.4946     1.8701    -0.3357 H       
  35 H35            2.9876     1.9605     1.3734 H       
  36 H36           -0.7082     5.2007     2.3749 H       
  37 H37            0.4798     7.3552     2.7130 H       
  38 H38            2.9095     7.4693     2.2114 H       
  39 H39           -2.3358    -4.2116    -3.2904 H       
  40 H40           -1.9370    -4.3087    -0.8652 H       
  41 H41           -0.0893    -3.0312     0.1352 H       
@<TRIPOS>BOND
   1    1    2 1
   2    1    3 1
   3    1    8 2
   4    2    4 1
   5    2   30 1
   6    2   31 1
   7    3    6 1
   8    3    9 1
   9    4    5 1
  10    4   17 am
  11    5    6 1
  12    5   32 1
  13    5   33 1
  14    6   34 1
  15    6   35 1
  16    7    8 1
  17    7    9 2
  18    9   10 1
  19   10   11 ar
  20   10   15 ar
  21   11   12 ar
  22   11   36 1
  23   12   13 ar
  24   12   37 1
  25   13   14 ar
  26   13   38 1
  27   14   15 ar
  28   14   16 1
  29   17   18 2
  30   17   19 1
  31   19   20 ar
  32   19   24 ar
  33   20   21 ar
  34   20   29 1
  35   21   22 ar
  36   21   25 1
  37   22   23 ar
  38   22   39 1
  39   23   24 ar
  40   23   40 1
  41   24   41 1
  42   25   26 1
  43   25   27 1
  44   25   28 1

#	End of record

