#	Name: ASD01882209
#	Creating user name:	WinNT
#	Creation time:	15. 06. 2019 19:44

#	Modifying user name:	WinNT
#	Modification time:	15. 06. 2019 19:44

#	Program:	/corina/corina34_cracker 3.40 0067  02.08.2006

@<TRIPOS>MOLECULE
ASD01882209
  53   56    0    0    0
SMALL
NO_CHARGES


@<TRIPOS>ATOM
   1 C1            -0.0057     1.3847     0.3848 C.2     
   2 N2             0.0045     0.0691     0.5415 N.2     
   3 C3             1.1453    -0.6314     0.5204 C.2     
   4 C4             2.3730     0.0356     0.3275 C.2     
   5 C5             2.3561     1.3872     0.1671 C.2     
   6 N6             1.1590     2.0527     0.1976 N.pl3   
   7 O7            -1.0800     2.2041     0.3799 O.3     
   8 C8             0.8740     3.4899     0.0517 C.3     
   9 C9            -0.6567     3.5793     0.1785 C.3     
  10 O10            1.1230    -1.8445     0.6682 O.2     
  11 O11            3.5095     2.0664    -0.0199 O.3     
  12 C12            4.7245     1.3203     0.0759 C.3     
  13 C13            5.9173     2.2670    -0.0725 C.3     
  14 C14           -1.2644     4.1435    -1.1074 C.3     
  15 O15           -2.6821     4.2448    -0.9597 O.3     
  16 C16           -3.3796     4.7317    -2.0196 C.ar    
  17 C17           -4.7592     4.8570    -1.9450 C.ar    
  18 C18           -5.4659     5.3523    -3.0238 C.ar    
  19 C19           -4.7994     5.7229    -4.1771 C.ar    
  20 C20           -3.4245     5.5986    -4.2540 C.ar    
  21 C21           -2.7126     5.1097    -3.1758 C.ar    
  22 C22           -5.5728     6.2629    -5.3524 C.3     
  23 C23           -5.0907     7.6791    -5.6730 C.3     
  24 C24           -5.8759     8.2272    -6.8662 C.3     
  25 C25           -5.6526     7.3251    -8.0816 C.3     
  26 C26           -6.1348     5.9089    -7.7609 C.3     
  27 C27           -5.3495     5.3607    -6.5677 C.3     
  28 H28            3.3034    -0.5125     0.3079 H       
  29 H29            1.3591     4.0584     0.8452 H       
  30 H30            1.1960     3.8461    -0.9269 H       
  31 H31           -0.9359     4.1934     1.0346 H       
  32 H32            4.7717     0.8257     1.0461 H       
  33 H33            4.7544     0.5714    -0.7155 H       
  34 H34            5.8702     2.7616    -1.0427 H       
  35 H35            5.8875     3.0159     0.7190 H       
  36 H36            6.8441     1.6979     0.0006 H       
  37 H37           -0.8479     5.1316    -1.3030 H       
  38 H38           -1.0323     3.4800    -1.9405 H       
  39 H39           -5.2804     4.5673    -1.0445 H       
  40 H40           -6.5400     5.4496    -2.9664 H       
  41 H41           -2.9062     5.8882    -5.1562 H       
  42 H42           -1.6381     5.0174    -3.2346 H       
  43 H43           -6.6348     6.2872    -5.1082 H       
  44 H44           -5.2498     8.3218    -4.8071 H       
  45 H45           -4.0286     7.6547    -5.9172 H       
  46 H46           -6.9379     8.2516    -6.6220 H       
  47 H47           -5.5324     9.2362    -7.0946 H       
  48 H48           -6.2120     7.7156    -8.9317 H       
  49 H49           -4.5906     7.3007    -8.3258 H       
  50 H50           -7.1968     5.9332    -7.5168 H       
  51 H51           -5.9757     5.2662    -8.6268 H       
  52 H52           -4.2875     5.3364    -6.8119 H       
  53 H53           -5.6930     4.3518    -6.3393 H       
@<TRIPOS>BOND
   1    1    2 2
   2    1    6 1
   3    1    7 1
   4    2    3 1
   5    3    4 1
   6    3   10 2
   7    4    5 2
   8    4   28 1
   9    5    6 1
  10    5   11 1
  11    6    8 1
  12    7    9 1
  13    8    9 1
  14    8   29 1
  15    8   30 1
  16    9   14 1
  17    9   31 1
  18   11   12 1
  19   12   13 1
  20   12   32 1
  21   12   33 1
  22   13   34 1
  23   13   35 1
  24   13   36 1
  25   14   15 1
  26   14   37 1
  27   14   38 1
  28   15   16 1
  29   16   17 ar
  30   16   21 ar
  31   17   18 ar
  32   17   39 1
  33   18   19 ar
  34   18   40 1
  35   19   20 ar
  36   19   22 1
  37   20   21 ar
  38   20   41 1
  39   21   42 1
  40   22   23 1
  41   22   27 1
  42   22   43 1
  43   23   24 1
  44   23   44 1
  45   23   45 1
  46   24   25 1
  47   24   46 1
  48   24   47 1
  49   25   26 1
  50   25   48 1
  51   25   49 1
  52   26   27 1
  53   26   50 1
  54   26   51 1
  55   27   52 1
  56   27   53 1

#	End of record

