#	Name: ASD01850139
#	Creating user name:	WinNT
#	Creation time:	15. 06. 2019 19:38

#	Modifying user name:	WinNT
#	Modification time:	15. 06. 2019 19:38

#	Program:	/corina/corina34_cracker 3.40 0067  02.08.2006

@<TRIPOS>MOLECULE
ASD01850139
  48   52    0    0    0
SMALL
NO_CHARGES


@<TRIPOS>ATOM
   1 C1             0.2443     1.4070    -0.1504 C.3     
   2 N2             0.5547    -0.0315    -0.3216 N.am    
   3 C3             1.8375    -0.2172    -0.0131 C.2     
   4 C4             2.5336     1.0864     0.0367 C.ar    
   5 C5             3.8788     1.4293     0.1719 C.ar    
   6 C6             4.2535     2.7569     0.1748 C.ar    
   7 C7             3.2987     3.7510     0.0498 C.ar    
   8 C8             1.9598     3.4199    -0.0691 C.ar    
   9 C9             1.5725     2.0995    -0.0649 C.ar    
  10 N10           -0.5240     1.7744    -1.3446 N.am    
  11 C11           -1.1991     0.5389    -1.7998 C.3     
  12 C12           -0.7142    -0.5757    -0.8400 C.3     
  13 O13            2.3573    -1.2959     0.1960 O.2     
  14 C14           -0.5996     2.9936    -1.9139 C.2     
  15 C15           -1.3287     3.1708    -3.1865 C.ar    
  16 C16           -1.2659     4.3893    -3.8662 C.ar    
  17 C17           -1.9488     4.5488    -5.0549 C.ar    
  18 C18           -2.6966     3.5000    -5.5741 C.ar    
  19 C19           -2.7613     2.2900    -4.9020 C.ar    
  20 C20           -2.0780     2.1188    -3.7166 C.ar    
  21 O21           -0.0678     3.9477    -1.3802 O.2     
  22 F22           -3.3636     3.6602    -6.7380 F       
  23 F23           -1.8900     5.7266    -5.7141 F       
  24 C24           -0.5569     1.6349     1.1055 C.ar    
  25 C25           -1.4546     2.6845     1.1716 C.ar    
  26 C26           -2.1892     2.8943     2.3231 C.ar    
  27 C27           -2.0265     2.0535     3.4100 C.ar    
  28 C28           -1.1286     1.0033     3.3432 C.ar    
  29 C29           -0.3981     0.7914     2.1889 C.ar    
  30 C30           -3.1668     4.0388     2.3954 C.3     
  31 Cl31          -2.9486     2.3167     4.8572 Cl      
  32 H32            4.6261     0.6564     0.2745 H       
  33 H33            5.2957     3.0216     0.2753 H       
  34 H34            3.5992     4.7883     0.0453 H       
  35 H35            1.2182     4.1991    -0.1652 H       
  36 H36           -2.2808     0.6526    -1.7297 H       
  37 H37           -0.9093     0.3066    -2.8245 H       
  38 H38           -0.5425    -1.5051    -1.3831 H       
  39 H39           -1.4289    -0.7264    -0.0309 H       
  40 H40           -0.6846     5.2050    -3.4623 H       
  41 H41           -3.3446     1.4777    -5.3098 H       
  42 H42           -2.1261     1.1735    -3.1965 H       
  43 H43           -1.5814     3.3406     0.3232 H       
  44 H44           -1.0009     0.3470     4.1913 H       
  45 H45            0.2998    -0.0311     2.1350 H       
  46 H46           -4.1449     3.7035     2.0505 H       
  47 H47           -3.2442     4.3861     3.4256 H       
  48 H48           -2.8184     4.8547     1.7621 H       
@<TRIPOS>BOND
   1    1    2 1
   2    1    9 1
   3    1   24 1
   4    1   10 1
   5    2    3 am
   6    2   12 1
   7    3    4 1
   8    3   13 2
   9    4    5 ar
  10    4    9 ar
  11    5    6 ar
  12    5   32 1
  13    6    7 ar
  14    6   33 1
  15    7    8 ar
  16    7   34 1
  17    8    9 ar
  18    8   35 1
  19   10   11 1
  20   10   14 am
  21   11   12 1
  22   11   36 1
  23   11   37 1
  24   12   38 1
  25   12   39 1
  26   14   15 1
  27   14   21 2
  28   15   16 ar
  29   15   20 ar
  30   16   17 ar
  31   16   40 1
  32   17   18 ar
  33   17   23 1
  34   18   19 ar
  35   18   22 1
  36   19   20 ar
  37   19   41 1
  38   20   42 1
  39   24   25 ar
  40   24   29 ar
  41   25   26 ar
  42   25   43 1
  43   26   27 ar
  44   26   30 1
  45   27   28 ar
  46   27   31 1
  47   28   29 ar
  48   28   44 1
  49   29   45 1
  50   30   46 1
  51   30   47 1
  52   30   48 1

#	End of record

