#	Name: ASD03430541
#	Creating user name:	WinNT
#	Creation time:	15. 06. 2019 20:41

#	Modifying user name:	WinNT
#	Modification time:	15. 06. 2019 20:41

#	Program:	/corina/corina34_cracker 3.40 0067  02.08.2006

@<TRIPOS>MOLECULE
ASD03430541
  45   49    0    0    0
SMALL
NO_CHARGES


@<TRIPOS>ATOM
   1 N1            -0.0161     1.3395     0.0094 N.am    
   2 C2             0.0021    -0.0041     0.0020 C.2     
   3 C3             1.4548    -0.4298    -0.0141 C.3     
   4 C4             2.2197     0.8737    -0.0144 C.ar    
   5 C5             3.5641     1.1705    -0.0263 C.ar    
   6 C6             3.9795     2.4906    -0.0239 C.ar    
   7 C7             3.0415     3.5068    -0.0095 C.ar    
   8 C8             1.6940     3.2122     0.0024 C.ar    
   9 C9             1.2680     1.8853     0.0001 C.ar    
  10 O10           -0.9637    -0.7377     0.0076 O.2     
  11 C11           -1.2434     2.1395     0.0197 C.3     
  12 O12           -2.4671     1.6329     2.1849 O.3     
  13 C13           -1.6570     2.4066     1.4440 C.2     
  14 C14           -1.2770     3.4601     2.1891 C.2     
  15 C15           -1.8943     3.3122     3.4524 C.2     
  16 C16           -2.6146     2.1772     3.4038 C.2     
  17 C17           -3.4460     1.6122     4.5265 C.3     
  18 F18           -4.7477     2.1181     4.4431 F       
  19 F19           -3.4804     0.2173     4.4251 F       
  20 F20           -2.8818     1.9768     5.7537 F       
  21 O21            1.7660    -1.1927     1.1535 O.3     
  22 O22            2.6655    -3.5858    -4.5094 O.3     
  23 C23            2.6990    -4.8564    -3.8329 C.3     
  24 O24            3.0031    -4.5099    -2.4689 O.3     
  25 C25            2.5257    -3.2412    -2.3001 C.ar    
  26 C26            2.3182    -2.6736    -3.5551 C.ar    
  27 C27            2.2444    -2.5116    -1.1570 C.ar    
  28 C28            1.7593    -1.2210    -1.2601 C.ar    
  29 C29            1.5523    -0.6539    -2.5083 C.ar    
  30 C30            1.8321    -1.3808    -3.6559 C.ar    
  31 O31            1.0743     0.6152    -2.6073 O.3     
  32 F32            1.4539    -5.4892    -3.9134 F       
  33 F33            3.7018    -5.6719    -4.3682 F       
  34 H34            4.2935     0.3741    -0.0372 H       
  35 H35            5.0333     2.7266    -0.0329 H       
  36 H36            3.3659     4.5370    -0.0072 H       
  37 H37            0.9677     4.0114     0.0136 H       
  38 H38           -1.0644     3.0860    -0.4902 H       
  39 H39           -2.0364     1.5949    -0.4929 H       
  40 H40           -0.6250     4.2642     1.8815 H       
  41 H41           -1.8045     3.9819     4.2950 H       
  42 H42            1.2584    -2.0117     1.2350 H       
  43 H43            2.4051    -2.9512    -0.1837 H       
  44 H44            1.6708    -0.9386    -4.6280 H       
  45 H45            1.7626     1.2940    -2.6314 H       
@<TRIPOS>BOND
   1    1    2 am
   2    1    9 1
   3    1   11 1
   4    2    3 1
   5    2   10 2
   6    3    4 1
   7    3   21 1
   8    3   28 1
   9    4    5 ar
  10    4    9 ar
  11    5    6 ar
  12    5   34 1
  13    6    7 ar
  14    6   35 1
  15    7    8 ar
  16    7   36 1
  17    8    9 ar
  18    8   37 1
  19   11   13 1
  20   11   38 1
  21   11   39 1
  22   12   13 1
  23   12   16 1
  24   13   14 2
  25   14   15 1
  26   14   40 1
  27   15   16 2
  28   15   41 1
  29   16   17 1
  30   17   18 1
  31   17   19 1
  32   17   20 1
  33   21   42 1
  34   22   23 1
  35   22   26 1
  36   23   24 1
  37   23   32 1
  38   23   33 1
  39   24   25 1
  40   25   26 ar
  41   25   27 ar
  42   26   30 ar
  43   27   28 ar
  44   27   43 1
  45   28   29 ar
  46   29   30 ar
  47   29   31 1
  48   30   44 1
  49   31   45 1

#	End of record

