#	Name: ASD03240167
#	Creating user name:	WinNT
#	Creation time:	15. 06. 2019 20:34

#	Modifying user name:	WinNT
#	Modification time:	15. 06. 2019 20:34

#	Program:	/corina/corina34_cracker 3.40 0067  02.08.2006

@<TRIPOS>MOLECULE
ASD03240167
  90   97    0    0    0
SMALL
NO_CHARGES


@<TRIPOS>ATOM
   1 C1            -0.0656     1.3840    -0.3518 C.ar    
   2 C2            -0.1100    -0.0158    -0.5873 C.ar    
   3 C3             1.1649     2.0563    -0.4106 C.ar    
   4 C4             2.2993     1.3128    -0.7003 C.ar    
   5 C5             2.1795    -0.0770    -0.9233 C.ar    
   6 N6             1.0095    -0.6851    -0.8620 N.ar    
   7 C7             3.3925    -0.8687    -1.2325 C.ar    
   8 C8             3.6256     1.9707    -0.7756 C.ar    
   9 C9             3.7942     3.1188    -1.5481 C.ar    
  10 C10            5.0313     3.7269    -1.6145 C.ar    
  11 C11            6.1027     3.1994    -0.9164 C.ar    
  12 C12            5.9414     2.0600    -0.1486 C.ar    
  13 C13            4.7076     1.4469    -0.0697 C.ar    
  14 C14            3.5118    -2.1779    -0.7667 C.ar    
  15 C15            4.6440    -2.9105    -1.0584 C.ar    
  16 C16            5.6598    -2.3490    -1.8114 C.ar    
  17 C17            5.5473    -1.0509    -2.2763 C.ar    
  18 C18            4.4176    -0.3099    -1.9956 C.ar    
  19 C19            6.8940    -3.1545    -2.1260 C.3     
  20 N20            6.6950    -3.8833    -3.3858 N.3     
  21 C21            7.9508    -4.4885    -3.8476 C.3     
  22 C22            7.7400    -5.1128    -5.2289 C.3     
  23 C23            6.6414    -6.1758    -5.1409 C.3     
  24 C24            5.3581    -5.5296    -4.6117 C.3     
  25 C25            5.6379    -4.8932    -3.2483 C.3     
  26 C26            6.3875    -6.7522    -6.5100 C.2     
  27 N27            6.9186    -7.8387    -7.0014 N.2     
  28 N28            6.4850    -8.0415    -8.1944 N.2     
  29 C29            5.6464    -7.0862    -8.5305 C.2     
  30 N30            5.5571    -6.2381    -7.4599 N.pl3   
  31 C31            4.9316    -6.9557    -9.8186 C.2     
  32 C32            5.1144    -7.8926   -10.8110 C.2     
  33 N33            4.4647    -7.7777   -11.9885 N.am    
  34 C34            3.6267    -6.7506   -12.2199 C.2     
  35 C35            3.4105    -5.7711   -11.2343 C.2     
  36 C36            4.0513    -5.8713   -10.0376 C.2     
  37 N37           -1.2963    -0.6347    -0.5250 N.ar    
  38 C38           -2.3912     0.0482    -0.2510 C.ar    
  39 N39           -2.3837     1.3606    -0.0254 N.ar    
  40 C40           -1.2659     2.0565    -0.0591 C.ar    
  41 N41           -3.5959    -0.6263    -0.1962 N.3     
  42 C42           -4.6994     0.2914     0.1197 C.3     
  43 C43           -6.0225    -0.4775     0.0927 C.3     
  44 N44           -5.9648    -1.5805     1.0620 N.3     
  45 C45           -4.8614    -2.4983     0.7461 C.3     
  46 C46           -3.5383    -1.7294     0.7731 C.3     
  47 C47           -7.2456    -2.2976     1.1203 C.3     
  48 O48            3.0507    -6.6684   -13.2925 O.2     
  49 C49           -7.1167    -3.4961     2.0625 C.3     
  50 O50           -6.8294    -3.0345     3.3840 O.3     
  51 H51            1.2266     3.1203    -0.2359 H       
  52 H52            2.9585     3.5314    -2.0939 H       
  53 H53            5.1632     4.6162    -2.2130 H       
  54 H54            7.0689     3.6786    -0.9714 H       
  55 H55            6.7816     1.6522     0.3937 H       
  56 H56            4.5828     0.5574     0.5301 H       
  57 H57            2.7197    -2.6172    -0.1785 H       
  58 H58            4.7377    -3.9243    -0.6979 H       
  59 H59            6.3436    -0.6179    -2.8636 H       
  60 H60            4.3310     0.7034    -2.3591 H       
  61 H61            7.7491    -2.4857    -2.2242 H       
  62 H62            7.0791    -3.8651    -1.3205 H       
  63 H63            8.7224    -3.7212    -3.9098 H       
  64 H64            8.2623    -5.2604    -3.1439 H       
  65 H65            7.4419    -4.3390    -5.9363 H       
  66 H66            8.6681    -5.5755    -5.5645 H       
  67 H67            6.9559    -6.9694    -4.4632 H       
  68 H68            5.0225    -4.7624    -5.3094 H       
  69 H69            4.5844    -6.2902    -4.5064 H       
  70 H70            5.9602    -5.6632    -2.5474 H       
  71 H71            4.7297    -4.4199    -2.8752 H       
  72 H72            5.0185    -5.4341    -7.3934 H       
  73 H73            5.7826    -8.7250   -10.6463 H       
  74 H74            4.6041    -8.4452   -12.6783 H       
  75 H75            2.7374    -4.9480   -11.4237 H       
  76 H76            3.8963    -5.1281    -9.2695 H       
  77 H77           -1.2720     3.1205     0.1258 H       
  78 H78           -4.5461     0.7167     1.1115 H       
  79 H79           -4.7291     1.0923    -0.6191 H       
  80 H80           -6.8392     0.1949     0.3551 H       
  81 H81           -6.1889    -0.8798    -0.9066 H       
  82 H82           -4.8317    -3.2992     1.4849 H       
  83 H83           -5.0147    -2.9235    -0.2457 H       
  84 H84           -2.7215    -2.4018     0.5107 H       
  85 H85           -3.3718    -1.3271     1.7724 H       
  86 H86           -8.0211    -1.6267     1.4899 H       
  87 H87           -7.5123    -2.6466     0.1227 H       
  88 H88           -8.0520    -4.0558     2.0684 H       
  89 H89           -6.3087    -4.1425     1.7197 H       
  90 H90           -6.7342    -3.7423     4.0358 H       
@<TRIPOS>BOND
   1    1    2 ar
   2    1    3 ar
   3    1   40 ar
   4    2   37 ar
   5    2    6 ar
   6    3    4 ar
   7    3   51 1
   8    4    5 ar
   9    4    8 1
  10    5    6 ar
  11    5    7 1
  12    7   14 ar
  13    7   18 ar
  14    8    9 ar
  15    8   13 ar
  16    9   10 ar
  17    9   52 1
  18   10   11 ar
  19   10   53 1
  20   11   12 ar
  21   11   54 1
  22   12   13 ar
  23   12   55 1
  24   13   56 1
  25   14   15 ar
  26   14   57 1
  27   15   16 ar
  28   15   58 1
  29   16   17 ar
  30   16   19 1
  31   17   18 ar
  32   17   59 1
  33   18   60 1
  34   19   20 1
  35   19   61 1
  36   19   62 1
  37   20   21 1
  38   20   25 1
  39   21   22 1
  40   21   63 1
  41   21   64 1
  42   22   23 1
  43   22   65 1
  44   22   66 1
  45   23   24 1
  46   23   26 1
  47   23   67 1
  48   24   25 1
  49   24   68 1
  50   24   69 1
  51   25   70 1
  52   25   71 1
  53   26   27 2
  54   26   30 1
  55   27   28 1
  56   28   29 2
  57   29   30 1
  58   29   31 1
  59   30   72 1
  60   31   32 2
  61   31   36 1
  62   32   33 1
  63   32   73 1
  64   33   34 am
  65   33   74 1
  66   34   35 1
  67   34   48 2
  68   35   36 2
  69   35   75 1
  70   36   76 1
  71   37   38 ar
  72   38   39 ar
  73   38   41 1
  74   39   40 ar
  75   40   77 1
  76   41   42 1
  77   41   46 1
  78   42   43 1
  79   42   78 1
  80   42   79 1
  81   43   44 1
  82   43   80 1
  83   43   81 1
  84   44   45 1
  85   44   47 1
  86   45   46 1
  87   45   82 1
  88   45   83 1
  89   46   84 1
  90   46   85 1
  91   47   49 1
  92   47   86 1
  93   47   87 1
  94   49   50 1
  95   49   88 1
  96   49   89 1
  97   50   90 1

#	End of record

