#	Name: ASD05740167
#	Creating user name:	WinNT
#	Creation time:	15. 06. 2019 21:02

#	Modifying user name:	WinNT
#	Modification time:	15. 06. 2019 21:02

#	Program:	/corina/corina34_cracker 3.40 0067  02.08.2006

@<TRIPOS>MOLECULE
ASD05740167
  63   68    0    0    0
SMALL
NO_CHARGES


@<TRIPOS>ATOM
   1 C1             0.7636    -1.5332    -1.5885 C.3     
   2 N2             0.1630    -0.6849    -0.5496 N.3     
   3 C3            -1.1760    -1.0333    -0.3290 C.ar    
   4 C4            -1.4993    -2.3160     0.0898 C.ar    
   5 C5            -2.8197    -2.6599     0.3074 C.ar    
   6 C6            -3.8239    -1.7226     0.1073 C.ar    
   7 C7            -3.5020    -0.4382    -0.3124 C.ar    
   8 C8            -2.1810    -0.0917    -0.5243 C.ar    
   9 N9            -5.1621    -2.0722     0.3282 N.pl3   
  10 C10           -5.4855    -2.9702     1.3265 C.ar    
  11 N11           -4.5231    -3.4015     2.1345 N.ar    
  12 N12           -6.7448    -3.3648     1.4453 N.ar    
  13 C13           -7.0913    -4.2265     2.3928 C.ar    
  14 C14           -6.0934    -4.7110     3.2671 C.ar    
  15 C15           -4.7785    -4.2604     3.1051 C.ar    
  16 N16           -8.3857    -4.6531     2.5411 N.am    
  17 C17           -8.7195    -5.5264     3.5079 C.2     
  18 C18           -7.7637    -6.0407     4.4071 C.2     
  19 C19           -6.4628    -5.6598     4.3131 C.2     
  20 C20           -9.4202    -4.1501     1.6339 C.3     
  21 O21           -9.8807    -5.8827     3.6095 O.2     
  22 C22            0.9379    -0.7557     0.6970 C.3     
  23 C23            2.3721    -0.2926     0.4301 C.3     
  24 N24            2.9726    -1.1409    -0.6088 N.3     
  25 C25            2.1978    -1.0702    -1.8554 C.3     
  26 F26           -1.8669     1.1574    -0.9321 F       
  27 C27          -10.0952    -5.3214     0.8892 C.3     
  28 C28          -11.5545    -4.8352     0.7613 C.3     
  29 C29          -11.7570    -3.8811     1.9190 C.ar    
  30 C30          -10.5313    -3.4878     2.4199 C.ar    
  31 C31          -12.9232    -3.3964     2.4887 C.ar    
  32 C32          -12.8669    -2.5211     3.5558 C.ar    
  33 C33          -11.6432    -2.1247     4.0603 C.ar    
  34 C34          -10.4739    -2.6062     3.4929 C.ar    
  35 O35           -9.2695    -2.2178     3.9881 O.3     
  36 C36           -9.2840    -1.3122     5.0934 C.3     
  37 H37            0.7730    -2.5697    -1.2512 H       
  38 H38            0.1794    -1.4541    -2.5053 H       
  39 H39           -0.7187    -3.0459     0.2454 H       
  40 H40           -3.0706    -3.6586     0.6331 H       
  41 H41           -4.2834     0.2908    -0.4688 H       
  42 H42           -5.8617    -1.6836    -0.2200 H       
  43 H43           -3.9903    -4.6101     3.7554 H       
  44 H44           -8.0659    -6.7404     5.1722 H       
  45 H45           -5.7215    -6.0470     4.9965 H       
  46 H46           -8.9883    -3.4474     0.9212 H       
  47 H47            0.4807    -0.1097     1.4465 H       
  48 H48            0.9492    -1.7833     1.0603 H       
  49 H49            2.3627     0.7438     0.0928 H       
  50 H50            2.9563    -0.3718     1.3469 H       
  51 H51            3.9370    -0.8901    -0.7677 H       
  52 H52            2.6550    -1.7161    -2.6050 H       
  53 H53            2.1864    -0.0425    -2.2187 H       
  54 H54           -9.6471    -5.4652    -0.0940 H       
  55 H55          -10.0421    -6.2371     1.4781 H       
  56 H56          -11.6985    -4.3160    -0.1862 H       
  57 H57          -12.2420    -5.6772     0.8404 H       
  58 H58          -13.8811    -3.7042     2.0963 H       
  59 H59          -13.7793    -2.1469     3.9960 H       
  60 H60          -11.5980    -1.4402     4.8944 H       
  61 H61           -9.7916    -0.3924     4.8029 H       
  62 H62           -9.8113    -1.7693     5.9308 H       
  63 H63           -8.2601    -1.0841     5.3898 H       
@<TRIPOS>BOND
   1    1    2 1
   2    1   25 1
   3    1   37 1
   4    1   38 1
   5    2    3 1
   6    2   22 1
   7    3    4 ar
   8    3    8 ar
   9    4    5 ar
  10    4   39 1
  11    5    6 ar
  12    5   40 1
  13    6    7 ar
  14    6    9 1
  15    7    8 ar
  16    7   41 1
  17    8   26 1
  18    9   10 1
  19    9   42 1
  20   10   11 ar
  21   10   12 ar
  22   11   15 ar
  23   12   13 ar
  24   13   14 ar
  25   13   16 1
  26   14   15 ar
  27   14   19 1
  28   15   43 1
  29   16   17 am
  30   16   20 1
  31   17   18 1
  32   17   21 2
  33   18   19 2
  34   18   44 1
  35   19   45 1
  36   20   27 1
  37   20   30 1
  38   20   46 1
  39   22   23 1
  40   22   47 1
  41   22   48 1
  42   23   24 1
  43   23   49 1
  44   23   50 1
  45   24   25 1
  46   24   51 1
  47   25   52 1
  48   25   53 1
  49   27   28 1
  50   27   54 1
  51   27   55 1
  52   28   29 1
  53   28   56 1
  54   28   57 1
  55   29   30 ar
  56   29   31 ar
  57   30   34 ar
  58   31   32 ar
  59   31   58 1
  60   32   33 ar
  61   32   59 1
  62   33   34 ar
  63   33   60 1
  64   34   35 1
  65   35   36 1
  66   36   61 1
  67   36   62 1
  68   36   63 1

#	End of record

