#	Name: ASD01880088
#	Creating user name:	WinNT
#	Creation time:	15. 06. 2019 19:40

#	Modifying user name:	WinNT
#	Modification time:	15. 06. 2019 19:40

#	Program:	/corina/corina34_cracker 3.40 0067  02.08.2006

@<TRIPOS>MOLECULE
ASD01880088
  51   52    0    0    0
SMALL
NO_CHARGES


@<TRIPOS>ATOM
   1 C1            -0.2174     1.2958    -1.3048 C.ar    
   2 C2            -0.1747    -0.0776    -1.4510 C.ar    
   3 N3             0.9366    -0.7470    -1.2142 N.ar    
   4 C4             2.0433    -0.1406    -0.8320 C.ar    
   5 C5             2.0763     1.2312    -0.6651 C.ar    
   6 C6             0.9271     1.9686    -0.9043 C.ar    
   7 C7             3.3453     1.9163    -0.2275 C.3     
   8 N8             4.1300     2.2901    -1.4068 N.am    
   9 C9             3.8675     3.4920    -2.0680 C.ar    
  10 S10            5.3283     1.2875    -1.9558 S.o2    
  11 C11            4.4958     0.1923    -3.1381 C.3     
  12 O12            6.2299     2.1551    -2.6293 O.2     
  13 O13            5.7332     0.5615    -0.8033 O.2     
  14 C14            3.2806     4.5476    -1.3842 C.ar    
  15 C15            3.0217     5.7388    -2.0441 C.ar    
  16 C16            3.3495     5.8734    -3.3858 C.ar    
  17 C17            3.9339     4.8212    -4.0653 C.ar    
  18 C18            4.1989     3.6345    -3.4101 C.ar    
  19 O19            2.4467     6.7741    -1.3775 O.3     
  20 C20            2.0995     7.9277    -2.1461 C.3     
  21 C21            0.9812     8.6699    -1.4610 C.2     
  22 O22            0.4207     9.7356    -2.0542 O.3     
  23 O23            0.5891     8.3057    -0.3777 O.2     
  24 C24           -0.6513    10.4017    -1.3362 C.3     
  25 C25           -1.1612    11.5839    -2.1629 C.3     
  26 C26            3.3187     8.8437    -2.2701 C.3     
  27 C27            5.5391    -0.6505    -3.8745 C.3     
  28 F28            6.2542    -1.4195    -2.9501 F       
  29 F29            4.8970    -1.4952    -4.7863 F       
  30 F30            6.4199     0.1926    -4.5603 F       
  31 H31           -1.1294     1.8388    -1.5042 H       
  32 H32           -1.0618    -0.6090    -1.7626 H       
  33 H33            2.9342    -0.7224    -0.6469 H       
  34 H34            0.9234     3.0417    -0.7821 H       
  35 H35            3.0969     2.8116     0.3423 H       
  36 H36            3.9276     1.2384     0.3965 H       
  37 H37            3.8095    -0.4647    -2.6037 H       
  38 H38            3.9386     0.7914    -3.8583 H       
  39 H39            3.0258     4.4409    -0.3402 H       
  40 H40            3.1474     6.8014    -3.8998 H       
  41 H41            4.1877     4.9286    -5.1096 H       
  42 H42            4.6560     2.8140    -3.9433 H       
  43 H43            1.7751     7.6182    -3.1396 H       
  44 H44           -1.4666     9.6985    -1.1664 H       
  45 H45           -0.2774    10.7628    -0.3781 H       
  46 H46           -1.9659    12.0839    -1.6239 H       
  47 H47           -0.3459    12.2870    -2.3327 H       
  48 H48           -1.5351    11.2228    -3.1210 H       
  49 H49            4.1276     8.3069    -2.7657 H       
  50 H50            3.0540     9.7236    -2.8564 H       
  51 H51            3.6432     9.1532    -1.2766 H       
@<TRIPOS>BOND
   1    1    2 ar
   2    1    6 ar
   3    1   31 1
   4    2    3 ar
   5    2   32 1
   6    3    4 ar
   7    4    5 ar
   8    4   33 1
   9    5    6 ar
  10    5    7 1
  11    6   34 1
  12    7    8 1
  13    7   35 1
  14    7   36 1
  15    8    9 1
  16    8   10 am
  17    9   14 ar
  18    9   18 ar
  19   10   11 1
  20   10   12 2
  21   10   13 2
  22   11   27 1
  23   11   37 1
  24   11   38 1
  25   14   15 ar
  26   14   39 1
  27   15   16 ar
  28   15   19 1
  29   16   17 ar
  30   16   40 1
  31   17   18 ar
  32   17   41 1
  33   18   42 1
  34   19   20 1
  35   20   21 1
  36   20   26 1
  37   20   43 1
  38   21   22 1
  39   21   23 2
  40   22   24 1
  41   24   25 1
  42   24   44 1
  43   24   45 1
  44   25   46 1
  45   25   47 1
  46   25   48 1
  47   26   49 1
  48   26   50 1
  49   26   51 1
  50   27   28 1
  51   27   29 1
  52   27   30 1

#	End of record

