#	Name: ASD01913485
#	Creating user name:	WinNT
#	Creation time:	15. 06. 2019 20:01

#	Modifying user name:	WinNT
#	Modification time:	15. 06. 2019 20:01

#	Program:	/corina/corina34_cracker 3.40 0067  02.08.2006

@<TRIPOS>MOLECULE
ASD01913485
  36   38    0    0    0
SMALL
NO_CHARGES


@<TRIPOS>ATOM
   1 C1            -0.3492    -0.7008    -2.1236 C.ar    
   2 C2            -0.7996    -0.0343    -0.9885 C.ar    
   3 C3            -0.7740     1.3567    -0.9872 C.ar    
   4 N4            -0.3255     1.9915    -2.0575 N.ar    
   5 C5             0.0928     1.3240    -3.1141 C.ar    
   6 N6             0.0842     0.0067    -3.1538 N.ar    
   7 C7            -1.2365    -2.0818     0.0335 C.ar    
   8 C8            -0.0427    -2.7765     0.1690 C.ar    
   9 N9            -0.0180    -4.0938     0.1199 N.ar    
  10 C10           -1.1138    -4.8038    -0.0581 C.ar    
  11 C11           -2.3483    -4.1825    -0.2021 C.ar    
  12 C12           -2.4158    -2.7933    -0.1560 C.ar    
  13 N13           -3.5069    -4.9427    -0.3912 N.am    
  14 C14           -4.6719    -4.5431     0.1562 C.2     
  15 O15           -1.2532    -0.7242     0.0910 O.3     
  16 C16           -5.8721    -5.4054     0.0549 C.ar    
  17 C17           -7.0731    -4.9868     0.6228 C.ar    
  18 C18           -8.1877    -5.8046     0.5198 C.ar    
  19 C19           -8.0619    -7.0126    -0.1477 C.ar    
  20 N20           -5.7954    -6.5682    -0.5810 N.ar    
  21 O21           -4.7377    -3.4754     0.7330 O.2     
  22 C22           -6.8355    -7.3655    -0.6886 C.ar    
  23 C23           -6.6938    -8.6781    -1.4153 C.3     
  24 F24           -6.9792    -8.4930    -2.7723 F       
  25 F25           -5.3845    -9.1502    -1.2742 F       
  26 F26           -7.5863    -9.6096    -0.8739 F       
  27 H27           -0.3493    -1.7801    -2.1613 H       
  28 H28           -1.1156     1.9101    -0.1249 H       
  29 H29            0.4530     1.8723    -3.9721 H       
  30 H30            0.8778    -2.2312     0.3162 H       
  31 H31           -1.0516    -5.8815    -0.0929 H       
  32 H32           -3.3603    -2.2809    -0.2643 H       
  33 H33           -3.4720    -5.7575    -0.9163 H       
  34 H34           -7.1350    -4.0387     1.1363 H       
  35 H35           -9.1325    -5.5072     0.9502 H       
  36 H36           -8.9111    -7.6728    -0.2451 H       
@<TRIPOS>BOND
   1    1    2 ar
   2    1    6 ar
   3    1   27 1
   4    2    3 ar
   5    2   15 1
   6    3    4 ar
   7    3   28 1
   8    4    5 ar
   9    5    6 ar
  10    5   29 1
  11    7    8 ar
  12    7   12 ar
  13    7   15 1
  14    8    9 ar
  15    8   30 1
  16    9   10 ar
  17   10   11 ar
  18   10   31 1
  19   11   12 ar
  20   11   13 1
  21   12   32 1
  22   13   14 am
  23   13   33 1
  24   14   16 1
  25   14   21 2
  26   16   17 ar
  27   16   20 ar
  28   17   18 ar
  29   17   34 1
  30   18   19 ar
  31   18   35 1
  32   19   22 ar
  33   19   36 1
  34   20   22 ar
  35   22   23 1
  36   23   24 1
  37   23   25 1
  38   23   26 1

#	End of record

