#	Name: ASD01230073
#	Creating user name:	WinNT
#	Creation time:	15. 06. 2019 19:11

#	Modifying user name:	WinNT
#	Modification time:	15. 06. 2019 19:11

#	Program:	/corina/corina34_cracker 3.40 0067  02.08.2006

@<TRIPOS>MOLECULE
ASD01230073
  58   61    0    0    0
SMALL
NO_CHARGES


@<TRIPOS>ATOM
   1 C1            -0.0167     1.3791     0.0096 C.ar    
   2 C2             0.0021    -0.0041     0.0020 C.ar    
   3 C3             1.2063    -0.6846    -0.0127 C.ar    
   4 C4             2.3966     0.0138    -0.0202 C.ar    
   5 C5             2.3837     1.4075    -0.0131 C.ar    
   6 C6             1.1674     2.0879     0.0021 C.ar    
   7 C7             3.6596     2.1636    -0.0207 C.ar    
   8 N8             4.8248     1.5221    -0.0344 N.ar    
   9 C9             5.9652     2.1951    -0.0411 C.ar    
  10 N10            5.9920     3.5207    -0.0342 N.ar    
  11 C11            4.8722     4.2242    -0.0206 C.ar    
  12 C12            3.6562     3.5617    -0.0194 C.ar    
  13 C13            4.9189     5.7304    -0.0129 C.3     
  14 C14            7.2466     1.4462    -0.0564 C.ar    
  15 N15            7.2316     0.1210    -0.0630 N.ar    
  16 C16            8.4525     2.1435    -0.0694 C.ar    
  17 C17            9.6443     1.4362    -0.0836 C.ar    
  18 C18            9.5937     0.0523    -0.0844 C.ar    
  19 C19            8.3530    -0.5843    -0.0766 C.ar    
  20 C20            8.2882    -2.0664    -0.0769 C.ar    
  21 C21            7.0533    -2.7126    -0.0692 C.ar    
  22 C22            6.9990    -4.0914    -0.0694 C.ar    
  23 C23            8.1674    -4.8323    -0.0773 C.ar    
  24 C24            9.3955    -4.1964    -0.0850 C.ar    
  25 C25            9.4617    -2.8176    -0.0906 C.ar    
  26 S26            5.4388    -4.9100    -0.0591 S.o2    
  27 N27            4.9938    -5.1370    -1.6380 N.am    
  28 O28            5.6677    -6.2034     0.4832 O.2     
  29 O29            4.5066    -3.9900     0.4922 O.2     
  30 C30            5.7204    -5.9472    -2.4330 C.2     
  31 O31            6.7001    -6.5100    -1.9922 O.2     
  32 C32            6.3002    -7.1108    -4.5447 C.3     
  33 C33            5.3155    -6.1538    -3.8699 C.3     
  34 C34           -1.2943    -0.7724     0.0102 C.3     
  35 F35           -1.7081    -1.0031    -1.3061 F       
  36 F36           -1.1069    -1.9963     0.6614 F       
  37 F37           -2.2715    -0.0311     0.6831 F       
  38 H38           -0.9598     1.9053     0.0169 H       
  39 H39            1.2150    -1.7646    -0.0178 H       
  40 H40            3.3362    -0.5186    -0.0313 H       
  41 H41            1.1516     3.1678     0.0074 H       
  42 H42            2.7270     4.1120    -0.0085 H       
  43 H43            4.9212     6.0991    -1.0387 H       
  44 H44            4.0451     6.1184     0.5107 H       
  45 H45            5.8242     6.0633     0.4948 H       
  46 H46            8.4587     3.2235    -0.0687 H       
  47 H47           10.5924     1.9533    -0.0941 H       
  48 H48           10.5048    -0.5274    -0.0956 H       
  49 H49            6.1407    -2.1352    -0.0626 H       
  50 H50            8.1202    -5.9113    -0.0771 H       
  51 H51           10.3044    -4.7797    -0.0912 H       
  52 H52           10.4212    -2.3221    -0.0966 H       
  53 H53            4.2103    -4.6869    -1.9906 H       
  54 H54            7.3033    -6.6859    -4.5074 H       
  55 H55            6.2916    -8.0681    -4.0235 H       
  56 H56            6.0074    -7.2602    -5.5839 H       
  57 H57            4.3125    -6.5787    -3.9072 H       
  58 H58            5.3242    -5.1965    -4.3910 H       
@<TRIPOS>BOND
   1    1    2 ar
   2    1    6 ar
   3    1   38 1
   4    2   34 1
   5    2    3 ar
   6    3    4 ar
   7    3   39 1
   8    4    5 ar
   9    4   40 1
  10    5    6 ar
  11    5    7 1
  12    6   41 1
  13    7    8 ar
  14    7   12 ar
  15    8    9 ar
  16    9   10 ar
  17    9   14 1
  18   10   11 ar
  19   11   12 ar
  20   11   13 1
  21   12   42 1
  22   13   43 1
  23   13   44 1
  24   13   45 1
  25   14   15 ar
  26   14   16 ar
  27   15   19 ar
  28   16   17 ar
  29   16   46 1
  30   17   18 ar
  31   17   47 1
  32   18   19 ar
  33   18   48 1
  34   19   20 1
  35   20   21 ar
  36   20   25 ar
  37   21   22 ar
  38   21   49 1
  39   22   23 ar
  40   22   26 1
  41   23   24 ar
  42   23   50 1
  43   24   25 ar
  44   24   51 1
  45   25   52 1
  46   26   27 am
  47   26   28 2
  48   26   29 2
  49   27   30 am
  50   27   53 1
  51   30   31 2
  52   30   33 1
  53   32   33 1
  54   32   54 1
  55   32   55 1
  56   32   56 1
  57   33   57 1
  58   33   58 1
  59   34   35 1
  60   34   36 1
  61   34   37 1

#	End of record

