#	Name: ASD01910418
#	Creating user name:	WinNT
#	Creation time:	15. 06. 2019 19:55

#	Modifying user name:	WinNT
#	Modification time:	15. 06. 2019 19:55

#	Program:	/corina/corina34_cracker 3.40 0067  02.08.2006

@<TRIPOS>MOLECULE
ASD01910418
  47   49    0    0    0
SMALL
NO_CHARGES


@<TRIPOS>ATOM
   1 C1            -0.0359     2.2154     1.0808 C.3     
   2 N2            -0.2912     0.8647     0.5744 N.am    
   3 C3            -1.3323     0.1525     1.0493 C.2     
   4 O4            -1.5670    -1.0888     0.5838 O.3     
   5 O5            -2.0591     0.6308     1.8975 O.2     
   6 C6            -2.2602    -2.5944     2.3705 C.3     
   7 C7            -2.7056    -1.7973     1.1405 C.3     
   8 C8            -3.2716    -2.7581     0.0924 C.3     
   9 C9            -4.4918    -3.4814     0.6670 C.3     
  10 C10           -4.0667    -4.2976     1.8917 C.3     
  11 N11           -3.3906    -3.4053     2.8433 N.am    
  12 C12           -3.7998    -3.3318     4.1253 C.2     
  13 O13           -3.1899    -2.6424     4.9194 O.2     
  14 C14           -4.9895    -4.0888     4.5655 C.ar    
  15 C15           -5.1000    -5.4506     4.2765 C.ar    
  16 C16           -6.2122    -6.1522     4.6895 C.ar    
  17 C17           -7.2202    -5.5082     5.3908 C.ar    
  18 C18           -7.1158    -4.1562     5.6800 C.ar    
  19 C19           -6.0050    -3.4465     5.2771 C.ar    
  20 F20           -8.3083    -6.2005     5.7933 F       
  21 C21            1.4508     2.5716     0.9059 C.3     
  22 C22            1.5023     3.8079    -0.0153 C.3     
  23 C23            0.1119     4.4684     0.1571 C.3     
  24 C24           -0.8359     3.2477     0.2598 C.3     
  25 H25           -0.3136     2.2781     2.1330 H       
  26 H26            0.2889     0.4829    -0.1028 H       
  27 H27           -1.4295    -3.2470     2.1019 H       
  28 H28           -1.9486    -1.9079     3.1577 H       
  29 H29           -3.4743    -1.0808     1.4301 H       
  30 H30           -3.5666    -2.1961    -0.7937 H       
  31 H31           -2.5102    -3.4895    -0.1785 H       
  32 H32           -5.2437    -2.7490     0.9611 H       
  33 H33           -4.9084    -4.1482    -0.0879 H       
  34 H34           -4.9469    -4.7349     2.3629 H       
  35 H35           -3.3832    -5.0890     1.5840 H       
  36 H36           -4.3156    -5.9530     3.7300 H       
  37 H37           -6.2988    -7.2053     4.4663 H       
  38 H38           -7.9040    -3.6593     6.2262 H       
  39 H39           -5.9245    -2.3935     5.5032 H       
  40 H40            1.8944     2.8080     1.8731 H       
  41 H41            1.9823     1.7395     0.4442 H       
  42 H42            2.2906     4.4894     0.3044 H       
  43 H43            1.6551     3.5056    -1.0514 H       
  44 H44            0.0771     5.0624     1.0704 H       
  45 H45           -0.1364     5.0783    -0.7114 H       
  46 H46           -1.0607     2.8548    -0.7318 H       
  47 H47           -1.7540     3.5203     0.7803 H       
@<TRIPOS>BOND
   1    1    2 1
   2    1   21 1
   3    1   24 1
   4    1   25 1
   5    2    3 am
   6    2   26 1
   7    3    4 1
   8    3    5 2
   9    4    7 1
  10    6    7 1
  11    6   11 1
  12    6   27 1
  13    6   28 1
  14    7    8 1
  15    7   29 1
  16    8    9 1
  17    8   30 1
  18    8   31 1
  19    9   10 1
  20    9   32 1
  21    9   33 1
  22   10   11 1
  23   10   34 1
  24   10   35 1
  25   11   12 am
  26   12   13 2
  27   12   14 1
  28   14   15 ar
  29   14   19 ar
  30   15   16 ar
  31   15   36 1
  32   16   17 ar
  33   16   37 1
  34   17   18 ar
  35   17   20 1
  36   18   19 ar
  37   18   38 1
  38   19   39 1
  39   21   22 1
  40   21   40 1
  41   21   41 1
  42   22   23 1
  43   22   42 1
  44   22   43 1
  45   23   24 1
  46   23   44 1
  47   23   45 1
  48   24   46 1
  49   24   47 1

#	End of record

