#	Name: ASD01901225
#	Creating user name:	WinNT
#	Creation time:	15. 06. 2019 19:53

#	Modifying user name:	WinNT
#	Modification time:	15. 06. 2019 19:53

#	Program:	/corina/corina34_cracker 3.40 0067  02.08.2006

@<TRIPOS>MOLECULE
ASD01901225
  43   46    0    0    0
SMALL
NO_CHARGES


@<TRIPOS>ATOM
   1 C1            -0.0166     1.3750     0.0096 C.ar    
   2 C2             0.0021    -0.0041     0.0020 C.ar    
   3 C3             1.2078    -0.6830    -0.0127 C.ar    
   4 C4             2.4027     0.0149    -0.0199 C.ar    
   5 C5             2.3997     1.3941    -0.0129 C.ar    
   6 C6             1.1860     2.0866     0.0019 C.ar    
   7 C7             1.1748     3.5185     0.0093 C.1     
   8 C8             1.1656     4.6925     0.0153 C.1     
   9 C9             1.1543     6.1244     0.0226 C.ar    
  10 C10           -0.0666     8.1943     0.0507 C.ar    
  11 C11           -0.0605     6.8156     0.0433 C.ar    
  12 C12            2.3585     6.8349     0.0149 C.ar    
  13 C13            2.3438     8.2124     0.0225 C.ar    
  14 C14            1.1340     8.8967     0.0382 C.ar    
  15 N15            1.1239    10.2969     0.0463 N.am    
  16 N16            1.1331    12.2895     1.3082 N.am    
  17 C17            1.1409    10.9483     1.2196 C.2     
  18 C18            1.1029    10.9658    -1.1269 C.2     
  19 C19            1.0931    12.4383    -1.0910 C.ar    
  20 C20            1.1062    13.0733     0.1636 C.ar    
  21 C21            1.0973    14.4574     0.2317 C.ar    
  22 C22            1.0720    13.1994    -2.2580 C.ar    
  23 C23            1.0641    14.5751    -2.1717 C.ar    
  24 C24            1.0699    15.2013    -0.9328 C.ar    
  25 O25            1.0927    10.3677    -2.1857 O.2     
  26 Cl26          -1.5742     9.0546     0.0764 Cl      
  27 O27            1.1638    10.2975     2.2463 O.2     
  28 C28            1.1528    12.9298     2.6257 C.3     
  29 Cl29           1.0588    16.9350    -0.8456 Cl      
  30 H30           -0.9584     1.9035     0.0169 H       
  31 H31           -0.9266    -0.5554     0.0079 H       
  32 H32            1.2163    -1.7630    -0.0182 H       
  33 H33            3.3399    -0.5217    -0.0306 H       
  34 H34            3.3330     1.9375    -0.0185 H       
  35 H35           -0.9928     6.2705     0.0531 H       
  36 H36            3.2991     6.3044     0.0034 H       
  37 H37            3.2737     8.7615     0.0165 H       
  38 H38            1.1114    14.9529     1.1912 H       
  39 H39            1.0623    12.7149    -3.2232 H       
  40 H40            1.0478    15.1694    -3.0733 H       
  41 H41            1.1723    12.1644     3.4014 H       
  42 H42            2.0401    13.5570     2.7117 H       
  43 H43            0.2605    13.5446     2.7443 H       
@<TRIPOS>BOND
   1    1    2 ar
   2    1    6 ar
   3    1   30 1
   4    2    3 ar
   5    2   31 1
   6    3    4 ar
   7    3   32 1
   8    4    5 ar
   9    4   33 1
  10    5    6 ar
  11    5   34 1
  12    6    7 1
  13    7    8 3
  14    8    9 1
  15    9   12 ar
  16    9   11 ar
  17   10   11 ar
  18   10   14 ar
  19   10   26 1
  20   11   35 1
  21   12   13 ar
  22   12   36 1
  23   13   14 ar
  24   13   37 1
  25   14   15 1
  26   15   18 am
  27   15   17 am
  28   16   17 am
  29   16   20 1
  30   16   28 1
  31   17   27 2
  32   18   19 1
  33   18   25 2
  34   19   22 ar
  35   19   20 ar
  36   20   21 ar
  37   21   24 ar
  38   21   38 1
  39   22   23 ar
  40   22   39 1
  41   23   24 ar
  42   23   40 1
  43   24   29 1
  44   28   41 1
  45   28   42 1
  46   28   43 1

#	End of record

