#	Name: ASD05720141
#	Creating user name:	WinNT
#	Creation time:	15. 06. 2019 21:01

#	Modifying user name:	WinNT
#	Modification time:	15. 06. 2019 21:01

#	Program:	/corina/corina34_cracker 3.40 0067  02.08.2006

@<TRIPOS>MOLECULE
ASD05720141
  33   36    0    0    0
SMALL
NO_CHARGES


@<TRIPOS>ATOM
   1 O1            -0.0161     1.3334     0.0094 O.3     
   2 C2             0.0021    -0.0041     0.0020 C.2     
   3 N3             1.2348    -0.5293    -0.0126 N.am    
   4 C4             2.2183     0.5645    -0.0161 C.3     
   5 C5             1.3508     1.8379    -0.0010 C.3     
   6 O6            -1.0069    -0.6808     0.0087 O.2     
   7 C7             3.0858     0.5003     1.2145 C.ar    
   8 C8             4.4396     0.7642     1.1195 C.ar    
   9 C9             5.2368     0.7055     2.2489 C.ar    
  10 C10            4.6763     0.3817     3.4755 C.ar    
  11 C11            3.3211     0.1181     3.5672 C.ar    
  12 C12            2.5262     0.1832     2.4378 C.ar    
  13 F13            5.4528     0.3233     4.5795 F       
  14 F14            6.5599     0.9628     2.1568 F       
  15 C15            3.0998    -3.5861    -0.0446 C.2     
  16 N16            2.7924    -2.2814    -0.0357 N.2     
  17 C17            1.5350    -1.8858    -0.0220 C.2     
  18 C18            0.4938    -2.8374    -0.0165 C.2     
  19 C19            0.7983    -4.1544    -0.0253 C.2     
  20 N20            2.1111    -4.5364    -0.0395 N.pl3   
  21 N21            2.7293    -5.7921    -0.0510 N.2     
  22 C22            4.0323    -5.6237    -0.0626 C.2     
  23 C23            4.3115    -4.2644    -0.0648 C.2     
  24 Br24           6.0310    -3.4778    -0.0879 Br      
  25 H25            2.8286     0.5277    -0.9184 H       
  26 H26            1.5314     2.4339    -0.8956 H       
  27 H27            1.5485     2.4243     0.8964 H       
  28 H28            4.8750     1.0158     0.1637 H       
  29 H29            2.8835    -0.1344     4.5217 H       
  30 H30            1.4677    -0.0183     2.5108 H       
  31 H31           -0.5374    -2.5166    -0.0049 H       
  32 H32            0.0136    -4.8964    -0.0208 H       
  33 H33            4.7671    -6.4151    -0.0732 H       
@<TRIPOS>BOND
   1    1    2 1
   2    1    5 1
   3    2    3 am
   4    2    6 2
   5    3    4 1
   6    3   17 1
   7    4    5 1
   8    4    7 1
   9    4   25 1
  10    5   26 1
  11    5   27 1
  12    7    8 ar
  13    7   12 ar
  14    8    9 ar
  15    8   28 1
  16    9   10 ar
  17    9   14 1
  18   10   11 ar
  19   10   13 1
  20   11   12 ar
  21   11   29 1
  22   12   30 1
  23   15   16 1
  24   15   20 1
  25   15   23 2
  26   16   17 2
  27   17   18 1
  28   18   19 2
  29   18   31 1
  30   19   20 1
  31   19   32 1
  32   20   21 1
  33   21   22 2
  34   22   23 1
  35   22   33 1
  36   23   24 1

#	End of record

