#	Name: ASD06170004
#	Creating user name:	WinNT
#	Creation time:	15. 06. 2019 21:05

#	Modifying user name:	WinNT
#	Modification time:	15. 06. 2019 21:05

#	Program:	/corina/corina34_cracker 3.40 0067  02.08.2006

@<TRIPOS>MOLECULE
ASD06170004
  72   76    0    0    0
SMALL
NO_CHARGES


@<TRIPOS>ATOM
   1 N1            -0.3115     1.3374     0.2124 N.pl3   
   2 N2            -0.1362    -0.0033    -0.1429 N.am    
   3 C3             1.1533    -0.1896    -0.4935 C.2     
   4 C4             1.8190     1.1145    -0.3471 C.2     
   5 C5             0.8540     2.0007     0.0899 C.2     
   6 C6             3.2311     1.4145    -0.6132 C.2     
   7 O7             3.6545     2.5436    -0.4496 O.2     
   8 N8             4.0586     0.4395    -1.0388 N.am    
   9 C9            -1.1307    -0.9868    -0.1356 C.ar    
  10 C10           -1.1698    -1.9444    -1.1407 C.ar    
  11 C11           -2.1528    -2.9145    -1.1303 C.ar    
  12 C12           -3.0975    -2.9329    -0.1206 C.ar    
  13 C13           -3.0616    -1.9805     0.8814 C.ar    
  14 C14           -2.0778    -1.0112     0.8800 C.ar    
  15 O15            1.6653    -1.2315    -0.8587 O.2     
  16 C16           -1.5770     1.9337     0.6473 C.3     
  17 C17            1.0691     3.4637     0.3803 C.3     
  18 N18            0.2916     4.2710    -0.5693 N.3     
  19 C19            0.2849     5.6861    -0.1753 C.3     
  20 C20            0.7996     4.1080    -1.9380 C.3     
  21 C21            5.3623     0.7541    -1.4417 C.ar    
  22 C22            6.0253     1.8318    -0.8691 C.ar    
  23 C23            7.3121     2.1415    -1.2675 C.ar    
  24 C24            7.9413     1.3742    -2.2406 C.ar    
  25 C25            7.2782     0.2988    -2.8118 C.ar    
  26 C26            5.9944    -0.0148    -2.4096 C.ar    
  27 F27            7.9578     3.1899    -0.7115 F       
  28 O28            9.2074     1.6785    -2.6329 O.3     
  29 N29           12.2867     0.7575    -0.0483 N.ar    
  30 C30           11.0401     0.5710     0.3172 C.ar    
  31 C31            9.9771     0.8696    -0.5258 C.ar    
  32 C32           10.2248     1.3784    -1.7886 C.ar    
  33 C33           11.5708     1.5750    -2.1713 C.ar    
  34 C34           11.9006     2.0874    -3.4350 C.ar    
  35 C35           13.2117     2.2649    -3.7708 C.ar    
  36 C36           14.2319     1.9402    -2.8653 C.ar    
  37 C37           13.9387     1.4396    -1.6296 C.ar    
  38 C38           12.5989     1.2461    -1.2546 C.ar    
  39 O39           15.5297     2.1259    -3.2228 O.3     
  40 C40           16.5246     1.7769    -2.2582 C.3     
  41 O41           13.5316     2.7610    -4.9957 O.3     
  42 C42           12.4474     3.0719    -5.8731 C.3     
  43 H43            3.7511    -0.4800    -1.0660 H       
  44 H44           -0.4325    -1.9304    -1.9298 H       
  45 H45           -2.1840    -3.6592    -1.9118 H       
  46 H46           -3.8651    -3.6925    -0.1148 H       
  47 H47           -3.8010    -1.9974     1.6683 H       
  48 H48           -2.0476    -0.2704     1.6652 H       
  49 H49           -2.3757     1.1976     0.5564 H       
  50 H50           -1.4912     2.2503     1.6868 H       
  51 H51           -1.8056     2.7970     0.0223 H       
  52 H52            0.7430     3.6842     1.3968 H       
  53 H53            2.1278     3.7026     0.2786 H       
  54 H54            1.3079     6.0619    -0.1528 H       
  55 H55           -0.2976     6.2610    -0.8953 H       
  56 H56           -0.1605     5.7855     0.8145 H       
  57 H57            0.7283     3.0602    -2.2297 H       
  58 H58            0.2062     4.7163    -2.6206 H       
  59 H59            1.8412     4.4266    -1.9794 H       
  60 H60            5.5355     2.4278    -0.1133 H       
  61 H61            7.7674    -0.2967    -3.5685 H       
  62 H62            5.4806    -0.8558    -2.8513 H       
  63 H63           10.8350     0.1743     1.3005 H       
  64 H64            8.9616     0.7046    -0.1972 H       
  65 H65           11.1212     2.3398    -4.1386 H       
  66 H66           14.7345     1.1938    -0.9420 H       
  67 H67           16.3811     2.3723    -1.3566 H       
  68 H68           16.4370     0.7186    -2.0125 H       
  69 H69           17.5145     1.9736    -2.6699 H       
  70 H70           11.8094     3.8245    -5.4098 H       
  71 H71           12.8403     3.4579    -6.8137 H       
  72 H72           11.8654     2.1705    -6.0651 H       
@<TRIPOS>BOND
   1    1    2 1
   2    1    5 1
   3    1   16 1
   4    2    3 am
   5    2    9 1
   6    3    4 1
   7    3   15 2
   8    4    5 2
   9    4    6 1
  10    5   17 1
  11    6    7 2
  12    6    8 am
  13    8   21 1
  14    8   43 1
  15    9   10 ar
  16    9   14 ar
  17   10   11 ar
  18   10   44 1
  19   11   12 ar
  20   11   45 1
  21   12   13 ar
  22   12   46 1
  23   13   14 ar
  24   13   47 1
  25   14   48 1
  26   16   49 1
  27   16   50 1
  28   16   51 1
  29   17   18 1
  30   17   52 1
  31   17   53 1
  32   18   19 1
  33   18   20 1
  34   19   54 1
  35   19   55 1
  36   19   56 1
  37   20   57 1
  38   20   58 1
  39   20   59 1
  40   21   22 ar
  41   21   26 ar
  42   22   23 ar
  43   22   60 1
  44   23   24 ar
  45   23   27 1
  46   24   25 ar
  47   24   28 1
  48   25   26 ar
  49   25   61 1
  50   26   62 1
  51   28   32 1
  52   29   30 ar
  53   29   38 ar
  54   30   31 ar
  55   30   63 1
  56   31   32 ar
  57   31   64 1
  58   32   33 ar
  59   33   34 ar
  60   33   38 ar
  61   34   35 ar
  62   34   65 1
  63   35   36 ar
  64   35   41 1
  65   36   37 ar
  66   36   39 1
  67   37   38 ar
  68   37   66 1
  69   39   40 1
  70   40   67 1
  71   40   68 1
  72   40   69 1
  73   41   42 1
  74   42   70 1
  75   42   71 1
  76   42   72 1

#	End of record

