#	Name: ASD01940339
#	Creating user name:	WinNT
#	Creation time:	15. 06. 2019 20:12

#	Modifying user name:	WinNT
#	Modification time:	15. 06. 2019 20:12

#	Program:	/corina/corina34_cracker 3.40 0067  02.08.2006

@<TRIPOS>MOLECULE
ASD01940339
  39   41    0    0    0
SMALL
NO_CHARGES


@<TRIPOS>ATOM
   1 C1            -0.5085     1.4567    -0.0402 C.ar    
   2 C2            -0.6340     0.0805    -0.0724 C.ar    
   3 C3             0.4928    -0.7142    -0.1715 C.ar    
   4 C4             1.7450    -0.1325    -0.2388 C.ar    
   5 C5             1.8704     1.2437    -0.2074 C.ar    
   6 C6             0.7438     2.0383    -0.1069 C.ar    
   7 S7            -1.9452     2.4698     0.0787 S.o2    
   8 O8            -1.5869     3.7382    -0.4524 O.2     
   9 O9            -3.0255     1.6945    -0.4224 O.2     
  10 N10           -2.2467     2.7057     1.6899 N.am    
  11 C11           -1.2888     3.3333     2.4974 C.ar    
  12 C12           -1.1138     2.9250     3.8191 C.ar    
  13 C13           -0.1630     3.5499     4.6144 C.ar    
  14 C14            0.6087     4.5766     4.0929 C.ar    
  15 C15            0.4327     4.9802     2.7808 C.ar    
  16 C16           -0.5092     4.3574     1.9820 C.ar    
  17 N17           -1.8960     1.8868     4.3434 N.pl3   
  18 C18           -2.0160     1.7326     5.7281 C.ar    
  19 C19           -2.8047     2.6131     6.4621 C.ar    
  20 C20           -2.9210     2.4567     7.8306 C.ar    
  21 C21           -2.2537     1.4264     8.4694 C.ar    
  22 C22           -1.4690     0.5505     7.7419 C.ar    
  23 C23           -1.3532     0.6971     6.3727 C.ar    
  24 I24           -2.4321     1.1934    10.5438 I       
  25 F25           -3.4554     3.6195     5.8384 F       
  26 F26            1.5340     5.1846     4.8670 F       
  27 F27            0.0098     3.1580     5.8957 F       
  28 H28           -1.6123    -0.3740    -0.0199 H       
  29 H29            0.3948    -1.7895    -0.1960 H       
  30 H30            2.6254    -0.7534    -0.3154 H       
  31 H31            2.8488     1.6982    -0.2596 H       
  32 H32            0.8418     3.1136    -0.0820 H       
  33 H33           -3.0865     2.4095     2.0746 H       
  34 H34            1.0353     5.7810     2.3783 H       
  35 H35           -0.6404     4.6719     0.9571 H       
  36 H36           -2.3542     1.2754     3.7457 H       
  37 H37           -3.5328     3.1394     8.4017 H       
  38 H38           -0.9491    -0.2520     8.2440 H       
  39 H39           -0.7436     0.0095     5.8053 H       
@<TRIPOS>BOND
   1    1    2 ar
   2    1    6 ar
   3    1    7 1
   4    2    3 ar
   5    2   28 1
   6    3    4 ar
   7    3   29 1
   8    4    5 ar
   9    4   30 1
  10    5    6 ar
  11    5   31 1
  12    6   32 1
  13    7    8 2
  14    7    9 2
  15    7   10 am
  16   10   11 1
  17   10   33 1
  18   11   12 ar
  19   11   16 ar
  20   12   13 ar
  21   12   17 1
  22   13   14 ar
  23   13   27 1
  24   14   15 ar
  25   14   26 1
  26   15   16 ar
  27   15   34 1
  28   16   35 1
  29   17   18 1
  30   17   36 1
  31   18   19 ar
  32   18   23 ar
  33   19   20 ar
  34   19   25 1
  35   20   21 ar
  36   20   37 1
  37   21   22 ar
  38   21   24 1
  39   22   23 ar
  40   22   38 1
  41   23   39 1

#	End of record

