#	Name: ASD03240244
#	Creating user name:	WinNT
#	Creation time:	15. 06. 2019 20:34

#	Modifying user name:	WinNT
#	Modification time:	15. 06. 2019 20:34

#	Program:	/corina/corina34_cracker 3.40 0067  02.08.2006

@<TRIPOS>MOLECULE
ASD03240244
  59   64    0    0    0
SMALL
NO_CHARGES


@<TRIPOS>ATOM
   1 C1            -0.5302     1.9249    -0.6208 C.ar    
   2 C2            -0.6934     0.5663    -0.5780 C.ar    
   3 C3             0.4282    -0.2612    -0.4845 C.ar    
   4 N4             1.6521     0.2459    -0.4360 N.ar    
   5 C5             1.8582     1.5510    -0.4744 C.ar    
   6 C6             0.7711     2.4416    -0.5688 C.ar    
   7 N7             2.9936     2.3370    -0.4406 N.pl3   
   8 C8             2.5854     3.6452    -0.5128 C.2     
   9 N9             1.2767     3.6972    -0.5884 N.2     
  10 C10            3.4832     4.8169    -0.5060 C.ar    
  11 C11            4.3157     1.8832    -0.3491 C.ar    
  12 C12            4.8788     1.1653    -1.3959 C.ar    
  13 C13            6.1826     0.7191    -1.3027 C.ar    
  14 C14            6.9271     0.9867    -0.1685 C.ar    
  15 C15            6.3690     1.7010     0.8758 C.ar    
  16 C16            5.0677     2.1551     0.7860 C.ar    
  17 N17            4.0371     6.9555     0.3445 N.ar    
  18 C18            3.2292     5.9072     0.3421 C.ar    
  19 C19            4.6050     4.8589    -1.3397 C.ar    
  20 C20            5.4156     5.9804    -1.2960 C.ar    
  21 C21            5.0972     7.0173    -0.4383 C.ar    
  22 C22            8.3494     0.4984    -0.0701 C.3     
  23 N23            2.1265     5.8855     1.1807 N.pl3   
  24 C24            0.2466    -1.7320    -0.4384 C.ar    
  25 C25           -1.0244    -2.2848    -0.5928 C.ar    
  26 C26           -1.1917    -3.6543    -0.5501 C.ar    
  27 C27           -0.1022    -4.4822    -0.3545 C.ar    
  28 C28            1.1681    -3.9404    -0.1992 C.ar    
  29 C29            1.3457    -2.5656    -0.2465 C.ar    
  30 C30            9.2520     1.3996     0.7889 C.3     
  31 C31            8.5545    -0.5902     0.9966 C.3     
  32 C32            9.8794     0.1095     1.3429 C.3     
  33 N33            8.9282     0.1605    -1.3773 N.3     
  34 N34            2.2665    -4.7805    -0.0008 N.pl3   
  35 H35           -1.3837     2.5823    -0.6975 H       
  36 H36           -1.6836     0.1367    -0.6159 H       
  37 H37            4.2978     0.9557    -2.2818 H       
  38 H38            6.6210     0.1604    -2.1163 H       
  39 H39            6.9527     1.9077     1.7606 H       
  40 H40            4.6340     2.7174     1.5998 H       
  41 H41            4.8337     4.0364    -2.0013 H       
  42 H42            6.2900     6.0448    -1.9265 H       
  43 H43            5.7306     7.8915    -0.4052 H       
  44 H44            1.8967     6.6717     1.7003 H       
  45 H45            1.5842     5.0841     1.2481 H       
  46 H46           -1.8781    -1.6412    -0.7455 H       
  47 H47           -2.1769    -4.0802    -0.6696 H       
  48 H48           -0.2387    -5.5530    -0.3219 H       
  49 H49            2.3327    -2.1426    -0.1309 H       
  50 H50            9.9447     2.0066     0.2059 H       
  51 H51            8.7081     1.9767     1.5367 H       
  52 H52            7.8199    -0.5571     1.8011 H       
  53 H53            8.6841    -1.5896     0.5812 H       
  54 H54           10.7278    -0.2487     0.7599 H       
  55 H55           10.0859     0.1488     2.4125 H       
  56 H56            8.3160    -0.4506    -1.8967 H       
  57 H57            9.1402     0.9938    -1.9051 H       
  58 H58            2.1426    -5.7421     0.0286 H       
  59 H59            3.1531    -4.4021     0.1076 H       
@<TRIPOS>BOND
   1    1    2 ar
   2    1    6 ar
   3    1   35 1
   4    2    3 ar
   5    2   36 1
   6    3    4 ar
   7    3   24 1
   8    4    5 ar
   9    5    7 1
  10    5    6 ar
  11    6    9 1
  12    7    8 1
  13    7   11 1
  14    8    9 2
  15    8   10 1
  16   10   19 ar
  17   10   18 ar
  18   11   12 ar
  19   11   16 ar
  20   12   13 ar
  21   12   37 1
  22   13   14 ar
  23   13   38 1
  24   14   15 ar
  25   14   22 1
  26   15   16 ar
  27   15   39 1
  28   16   40 1
  29   17   18 ar
  30   17   21 ar
  31   18   23 1
  32   19   20 ar
  33   19   41 1
  34   20   21 ar
  35   20   42 1
  36   21   43 1
  37   22   30 1
  38   22   31 1
  39   22   33 1
  40   23   44 1
  41   23   45 1
  42   24   25 ar
  43   24   29 ar
  44   25   26 ar
  45   25   46 1
  46   26   27 ar
  47   26   47 1
  48   27   28 ar
  49   27   48 1
  50   28   29 ar
  51   28   34 1
  52   29   49 1
  53   30   32 1
  54   30   50 1
  55   30   51 1
  56   31   32 1
  57   31   52 1
  58   31   53 1
  59   32   54 1
  60   32   55 1
  61   33   56 1
  62   33   57 1
  63   34   58 1
  64   34   59 1

#	End of record

