#	Name: ASD01890026
#	Creating user name:	WinNT
#	Creation time:	15. 06. 2019 19:50

#	Modifying user name:	WinNT
#	Modification time:	15. 06. 2019 19:50

#	Program:	/corina/corina34_cracker 3.40 0067  02.08.2006

@<TRIPOS>MOLECULE
ASD01890026
  29   30    0    0    0
SMALL
NO_CHARGES


@<TRIPOS>ATOM
   1 O1            -0.0891     1.4904    -0.1126 O.3     
   2 C2            -0.1130     0.0360    -0.1741 C.3     
   3 O3             0.7075    -0.4225    -1.2858 O.3     
   4 C4             1.9878     0.0416    -1.2964 C.2     
   5 C5             2.1349     1.4992    -1.0333 C.2     
   6 C6             1.1505     2.0521    -0.0634 C.2     
   7 O7             2.9417    -0.6823    -1.5053 O.2     
   8 O8             1.4327     2.9411     0.7161 O.2     
   9 C9             0.4356    -0.5377     1.1339 C.3     
  10 C10           -1.5529    -0.4413    -0.3735 C.3     
  11 C11            3.1033     2.2729    -1.6372 C.2     
  12 C12            3.0862     3.7290    -1.4722 C.ar    
  13 C13            4.2873     4.4516    -1.4655 C.ar    
  14 C14            4.2624     5.8199    -1.3099 C.ar    
  15 C15            3.0539     6.4824    -1.1596 C.ar    
  16 C16            1.8616     5.7752    -1.1646 C.ar    
  17 C17            1.8684     4.4074    -1.3259 C.ar    
  18 Cl18           3.0337     8.2072    -0.9635 Cl      
  19 H19           -0.1811    -0.1986     1.9663 H       
  20 H20            0.4180    -1.6266     1.0887 H       
  21 H21            1.4607    -0.1965     1.2786 H       
  22 H22           -1.9460    -0.0315    -1.3039 H       
  23 H23           -1.5716    -1.5302    -0.4196 H       
  24 H24           -2.1669    -0.1024     0.4609 H       
  25 H25            3.8745     1.8058    -2.2318 H       
  26 H26            5.2296     3.9369    -1.5818 H       
  27 H27            5.1868     6.3782    -1.3045 H       
  28 H28            0.9245     6.2989    -1.0462 H       
  29 H29            0.9383     3.8584    -1.3344 H       
@<TRIPOS>BOND
   1    1    2 1
   2    1    6 1
   3    2    3 1
   4    2    9 1
   5    2   10 1
   6    3    4 1
   7    4    5 1
   8    4    7 2
   9    5    6 1
  10    5   11 2
  11    6    8 2
  12    9   19 1
  13    9   20 1
  14    9   21 1
  15   10   22 1
  16   10   23 1
  17   10   24 1
  18   11   12 1
  19   11   25 1
  20   12   13 ar
  21   12   17 ar
  22   13   14 ar
  23   13   26 1
  24   14   15 ar
  25   14   27 1
  26   15   16 ar
  27   15   18 1
  28   16   17 ar
  29   16   28 1
  30   17   29 1

#	End of record

