#	Name: ASD00844784
#	Creating user name:	WinNT
#	Creation time:	15. 06. 2019 18:50

#	Modifying user name:	WinNT
#	Modification time:	15. 06. 2019 18:50

#	Program:	/corina/corina34_cracker 3.40 0067  02.08.2006

@<TRIPOS>MOLECULE
ASD00844784
  88   93    0    0    0
SMALL
NO_CHARGES


@<TRIPOS>ATOM
   1 C1             0.7231     1.2450    -0.3986 C.ar    
   2 C2             0.9713    -0.0937    -0.6638 C.ar    
   3 C3             0.8519    -1.0332     0.3504 C.ar    
   4 C4             0.4863    -0.6334     1.6209 C.ar    
   5 C5             0.2389     0.7018     1.8826 C.ar    
   6 C6             0.3576     1.6398     0.8740 C.ar    
   7 C7             1.1204    -2.4885     0.0657 C.3     
   8 C8             0.7964    -3.3346     1.2785 C.2     
   9 C9             0.3097    -2.9548    -1.1452 C.3     
  10 C10           -1.1511    -2.6659    -0.9133 C.2     
  11 N11           -2.0709    -3.0859    -1.8043 N.am    
  12 O12           -1.4989    -2.0554     0.0753 O.2     
  13 C13           -3.4843    -2.7144    -1.6528 C.3     
  14 C14           -4.3342    -3.9887    -1.6753 C.3     
  15 C15           -4.0255    -4.7806    -2.9480 C.3     
  16 C16           -2.5493    -5.1844    -2.9541 C.3     
  17 C17           -1.6782    -3.9190    -2.9492 C.3     
  18 N18           -4.8630    -5.9868    -2.9891 N.3     
  19 C19           -4.6802    -6.7119    -4.2542 C.3     
  20 C20           -5.5067    -7.9997    -4.2249 C.3     
  21 N21           -6.9220    -7.6657    -4.0124 N.3     
  22 C22           -7.1047    -6.9406    -2.7473 C.3     
  23 C23           -6.2782    -5.6528    -2.7765 C.3     
  24 C24           -7.7595    -8.8719    -4.0535 C.3     
  25 O25           -0.2881    -3.4465     1.8099 O.2     
  26 N26            1.9359    -3.9388     1.6553 N.am    
  27 C27            2.5967    -2.7201    -0.1609 C.ar    
  28 C28            3.0112    -3.5995     0.8315 C.ar    
  29 C29            3.4856    -2.2426    -1.0973 C.ar    
  30 C30            5.2382    -3.5159    -0.0702 C.ar    
  31 C31            4.3463    -3.9951     0.8687 C.ar    
  32 Cl32           6.9002    -4.0143    -0.0162 Cl      
  33 C33            1.7303    -6.5936     2.3514 C.ar    
  34 C34            2.7720    -7.3796     1.8945 C.ar    
  35 C35            0.4374    -7.0838     2.3461 C.ar    
  36 C36            0.1835    -8.3606     1.8841 C.ar    
  37 C37            1.2270    -9.1513     1.4252 C.ar    
  38 C38            2.5233    -8.6569     1.4311 C.ar    
  39 O39            0.9799   -10.4079     0.9706 O.3     
  40 H40            3.7810    -6.9944     1.8997 H       
  41 C41            2.1024   -11.1649     0.5133 C.3     
  42 C42            4.8128    -2.6398    -1.0559 C.ar    
  43 F43            5.6887    -2.1741    -1.9730 F       
  44 O44            1.3304    -0.4846    -1.9148 O.3     
  45 C45            1.3558     0.5235    -2.9273 C.3     
  46 C46            1.8636    -0.0820    -4.2373 C.3     
  47 F47            3.1178    -0.6648    -4.0264 F       
  48 F48            0.9642    -1.0582    -4.6794 F       
  49 S49            2.0517    -4.9672     2.9481 S.o2    
  50 O50            3.4136    -4.9503     3.3534 O.2     
  51 O51            0.9776    -4.6396     3.8189 O.2     
  52 H52            0.8197     1.9787    -1.1852 H       
  53 H53            0.3932    -1.3642     2.4106 H       
  54 H54           -0.0475     1.0123     2.8765 H       
  55 H55            0.1639     2.6819     1.0809 H       
  56 H56            0.6481    -2.4242    -2.0352 H       
  57 H57            0.4503    -4.0265    -1.2857 H       
  58 H58           -3.6264    -2.1971    -0.7039 H       
  59 H59           -3.7809    -2.0627    -2.4746 H       
  60 H60           -4.1000    -4.5976    -0.8021 H       
  61 H61           -5.3908    -3.7215    -1.6604 H       
  62 H62           -4.2364    -4.1623    -3.8205 H       
  63 H63           -2.3320    -5.7821    -2.0688 H       
  64 H64           -2.3356    -5.7683    -3.8493 H       
  65 H65           -1.8289    -3.3680    -3.8775 H       
  66 H66           -0.6289    -4.1980    -2.8536 H       
  67 H67           -5.0111    -6.0862    -5.0831 H       
  68 H68           -3.6264    -6.9589    -4.3828 H       
  69 H69           -5.3955    -8.5248    -5.1736 H       
  70 H70           -5.1576    -8.6375    -3.4128 H       
  71 H71           -8.1585    -6.6935    -2.6187 H       
  72 H72           -6.7738    -7.5663    -1.9184 H       
  73 H73           -6.3894    -5.1277    -1.8278 H       
  74 H74           -6.6273    -5.0150    -3.5886 H       
  75 H75           -7.4418    -9.5616    -3.2715 H       
  76 H76           -8.8018    -8.5961    -3.8934 H       
  77 H77           -7.6562    -9.3529    -5.0261 H       
  78 H78            3.1493    -1.5597    -1.8633 H       
  79 H79            4.6850    -4.6772     1.6345 H       
  80 H80           -0.3745    -6.4680     2.7039 H       
  81 H81           -0.8265    -8.7432     1.8805 H       
  82 H82            3.3374    -9.2706     1.0746 H       
  83 H83            1.7667   -12.1465     0.1788 H       
  84 H84            2.5798   -10.6422    -0.3155 H       
  85 H85            2.8168   -11.2834     1.3280 H       
  86 H86            0.3496     0.9161    -3.0744 H       
  87 H87            2.0195     1.3314    -2.6191 H       
  88 H88            1.9490     0.7012    -4.9906 H       
@<TRIPOS>BOND
   1    1    2 ar
   2    1    6 ar
   3    1   52 1
   4    2    3 ar
   5    2   44 1
   6    3    4 ar
   7    3    7 1
   8    4    5 ar
   9    4   53 1
  10    5    6 ar
  11    5   54 1
  12    6   55 1
  13    7    8 1
  14    7    9 1
  15    7   27 1
  16    8   25 2
  17    8   26 am
  18    9   10 1
  19    9   56 1
  20    9   57 1
  21   10   11 am
  22   10   12 2
  23   11   13 1
  24   11   17 1
  25   13   14 1
  26   13   58 1
  27   13   59 1
  28   14   15 1
  29   14   60 1
  30   14   61 1
  31   15   16 1
  32   15   18 1
  33   15   62 1
  34   16   17 1
  35   16   63 1
  36   16   64 1
  37   17   65 1
  38   17   66 1
  39   18   19 1
  40   18   23 1
  41   19   20 1
  42   19   67 1
  43   19   68 1
  44   20   21 1
  45   20   69 1
  46   20   70 1
  47   21   22 1
  48   21   24 1
  49   22   23 1
  50   22   71 1
  51   22   72 1
  52   23   73 1
  53   23   74 1
  54   24   75 1
  55   24   76 1
  56   24   77 1
  57   26   49 am
  58   26   28 1
  59   27   28 ar
  60   27   29 ar
  61   28   31 ar
  62   29   42 ar
  63   29   78 1
  64   30   31 ar
  65   30   32 1
  66   30   42 ar
  67   31   79 1
  68   33   34 ar
  69   33   35 ar
  70   33   49 1
  71   34   40 1
  72   34   38 ar
  73   35   36 ar
  74   35   80 1
  75   36   37 ar
  76   36   81 1
  77   37   38 ar
  78   37   39 1
  79   38   82 1
  80   39   41 1
  81   41   83 1
  82   41   84 1
  83   41   85 1
  84   42   43 1
  85   44   45 1
  86   45   46 1
  87   45   86 1
  88   45   87 1
  89   46   47 1
  90   46   48 1
  91   46   88 1
  92   49   50 2
  93   49   51 2

#	End of record

