#	Name: ASD08150915
#	Creating user name:	WinNT
#	Creation time:	15. 06. 2019 21:16

#	Modifying user name:	WinNT
#	Modification time:	15. 06. 2019 21:16

#	Program:	/corina/corina34_cracker 3.40 0067  02.08.2006

@<TRIPOS>MOLECULE
ASD08150915
  52   56    0    0    0
SMALL
NO_CHARGES


@<TRIPOS>ATOM
   1 C1             0.5098     2.0861     1.1836 C.2     
   2 C2             0.2438     0.6378     1.0485 C.ar    
   3 C3             1.2541    -0.2206     0.6186 C.ar    
   4 C4             0.9969    -1.5829     0.4936 C.ar    
   5 C5            -0.2698    -2.0825     0.7990 C.ar    
   6 C6            -1.2695    -1.2270     1.2249 C.ar    
   7 C7            -1.0182     0.1267     1.3569 C.ar    
   8 O8             1.6105     2.5291     0.9195 O.2     
   9 N9            -0.4698     2.9158     1.5941 N.am    
  10 C10           -0.2063     4.3506     1.7279 C.3     
  11 F11           -2.4942    -1.7161     1.5183 F       
  12 N12            2.0899    -1.5290    -2.1595 N.ar    
  13 N13            2.5452    -1.4632    -3.3593 N.ar    
  14 C14            3.5001    -2.2597    -3.8186 C.ar    
  15 C15            4.0597    -3.2143    -3.0156 C.ar    
  16 C16            3.5840    -3.3129    -1.6945 C.ar    
  17 C17            4.0904    -4.2576    -0.7884 C.ar    
  18 C18            3.5960    -4.3128     0.4820 C.ar    
  19 C19            2.5923    -3.4460     0.8995 C.ar    
  20 C20            2.0662    -2.5009     0.0366 C.ar    
  21 C21            2.5602    -2.4205    -1.2866 C.ar    
  22 C22            2.0702    -3.5372     2.3102 C.3     
  23 C23            2.5003    -4.8692     2.9281 C.3     
  24 N24            2.6135    -2.4325     3.1044 N.pl3   
  25 N25            3.5361    -0.1341     4.9256 N.2     
  26 C26            3.5147     0.7244     5.9034 C.2     
  27 N27            2.3808     0.5606     6.6422 N.pl3   
  28 C28            1.6659    -0.4647     6.0765 C.ar    
  29 N29            0.5104    -1.0633     6.3457 N.ar    
  30 C30            0.0754    -2.0518     5.5929 C.ar    
  31 N31            0.7494    -2.4968     4.5483 N.ar    
  32 C32            1.9147    -1.9599     4.2014 C.ar    
  33 C33            2.4206    -0.9012     4.9744 C.ar    
  34 Cl34           5.3426    -5.3535    -1.2831 Cl      
  35 H35            2.2331     0.1699     0.3828 H       
  36 H36           -0.4699    -3.1394     0.7022 H       
  37 H37           -1.8007     0.7899     1.6948 H       
  38 H38           -1.3493     2.5628     1.8011 H       
  39 H39            0.0948     4.7563     0.7621 H       
  40 H40           -1.1101     4.8558     2.0684 H       
  41 H41            0.5925     4.5073     2.4528 H       
  42 H42            3.8395    -2.1537    -4.8384 H       
  43 H43            4.8377    -3.8681    -3.3812 H       
  44 H44            3.9901    -5.0421     1.1743 H       
  45 H45            0.9820    -3.4762     2.2996 H       
  46 H46            2.1945    -5.6876     2.2763 H       
  47 H47            3.5840    -4.8828     3.0442 H       
  48 H48            2.0288    -4.9862     3.9038 H       
  49 H49            3.4630    -2.0324     2.8613 H       
  50 H50            4.2823     1.4580     6.1009 H       
  51 H51            2.1263     1.0744     7.4245 H       
  52 H52           -0.8678    -2.5166     5.8393 H       
@<TRIPOS>BOND
   1    1    2 1
   2    1    8 2
   3    1    9 am
   4    2    3 ar
   5    2    7 ar
   6    3    4 ar
   7    3   35 1
   8    4    5 ar
   9    4   20 1
  10    5    6 ar
  11    5   36 1
  12    6    7 ar
  13    6   11 1
  14    7   37 1
  15    9   10 1
  16    9   38 1
  17   10   39 1
  18   10   40 1
  19   10   41 1
  20   12   13 ar
  21   12   21 ar
  22   13   14 ar
  23   14   15 ar
  24   14   42 1
  25   15   16 ar
  26   15   43 1
  27   16   17 ar
  28   16   21 ar
  29   17   18 ar
  30   17   34 1
  31   18   19 ar
  32   18   44 1
  33   19   20 ar
  34   19   22 1
  35   20   21 ar
  36   22   23 1
  37   22   24 1
  38   22   45 1
  39   23   46 1
  40   23   47 1
  41   23   48 1
  42   24   32 1
  43   24   49 1
  44   25   26 2
  45   25   33 1
  46   26   27 1
  47   26   50 1
  48   27   28 1
  49   27   51 1
  50   28   29 ar
  51   28   33 ar
  52   29   30 ar
  53   30   31 ar
  54   30   52 1
  55   31   32 ar
  56   32   33 ar

#	End of record

