#	Name: ASD03090659
#	Creating user name:	WinNT
#	Creation time:	15. 06. 2019 20:29

#	Modifying user name:	WinNT
#	Modification time:	15. 06. 2019 20:29

#	Program:	/corina/corina34_cracker 3.40 0067  02.08.2006

@<TRIPOS>MOLECULE
ASD03090659
  35   36    0    0    0
SMALL
NO_CHARGES


@<TRIPOS>ATOM
   1 N1            -0.1816     1.5465     0.2406 N.am    
   2 C2             0.2367     0.2837     0.4571 C.2     
   3 O3             1.4050     0.0658     0.7139 O.2     
   4 N4            -0.6401    -0.7376     0.3889 N.am    
   5 C5            -0.1883    -2.0567     0.5073 C.ar    
   6 C6            -0.9674    -3.0032     1.1601 C.ar    
   7 C7            -0.5189    -4.3042     1.2749 C.ar    
   8 C8             0.7046    -4.6651     0.7406 C.ar    
   9 C9             1.4827    -3.7252     0.0905 C.ar    
  10 C10            1.0372    -2.4235    -0.0326 C.ar    
  11 C11           -1.3634    -5.3317     1.9835 C.3     
  12 F12           -2.2129    -5.9531     1.0619 F       
  13 F13           -0.5334    -6.2912     2.5731 F       
  14 F14           -2.1278    -4.7048     2.9733 F       
  15 C15            0.7019     2.6167     0.4202 C.ar    
  16 C16            0.5291     3.7902    -0.3030 C.ar    
  17 C17            1.4013     4.8465    -0.1257 C.ar    
  18 C18            2.4478     4.7389     0.7706 C.ar    
  19 C19            2.6256     3.5690     1.4953 C.ar    
  20 C20            1.7484     2.5091     1.3250 C.ar    
  21 C21           -0.6103     3.9106    -1.2818 C.3     
  22 O22            3.6556     3.4644     2.3757 O.3     
  23 H23           -1.0939     1.7132    -0.0436 H       
  24 H24           -1.5843    -0.5583     0.2578 H       
  25 H25           -1.9228    -2.7219     1.5779 H       
  26 H26            1.0531    -5.6833     0.8316 H       
  27 H27            2.4379    -4.0100    -0.3254 H       
  28 H28            1.6433    -1.6908    -0.5448 H       
  29 H29            1.2653     5.7580    -0.6887 H       
  30 H30            3.1284     5.5664     0.9069 H       
  31 H31            1.8821     1.5997     1.8920 H       
  32 H32           -1.4867     4.3107    -0.7719 H       
  33 H33           -0.3239     4.5810    -2.0922 H       
  34 H34           -0.8446     2.9272    -1.6895 H       
  35 H35            3.4375     3.7533     3.2724 H       
@<TRIPOS>BOND
   1    1    2 am
   2    1   15 1
   3    1   23 1
   4    2    3 2
   5    2    4 am
   6    4    5 1
   7    4   24 1
   8    5    6 ar
   9    5   10 ar
  10    6    7 ar
  11    6   25 1
  12    7    8 ar
  13    7   11 1
  14    8    9 ar
  15    8   26 1
  16    9   10 ar
  17    9   27 1
  18   10   28 1
  19   11   12 1
  20   11   13 1
  21   11   14 1
  22   15   16 ar
  23   15   20 ar
  24   16   17 ar
  25   16   21 1
  26   17   18 ar
  27   17   29 1
  28   18   19 ar
  29   18   30 1
  30   19   20 ar
  31   19   22 1
  32   20   31 1
  33   21   32 1
  34   21   33 1
  35   21   34 1
  36   22   35 1

#	End of record

