#	Name: ASD04590195
#	Creating user name:	WinNT
#	Creation time:	15. 06. 2019 20:50

#	Modifying user name:	WinNT
#	Modification time:	15. 06. 2019 20:50

#	Program:	/corina/corina34_cracker 3.40 0067  02.08.2006

@<TRIPOS>MOLECULE
ASD04590195
  54   56    0    0    0
SMALL
NO_CHARGES


@<TRIPOS>ATOM
   1 N1             1.5315     0.7669     1.9113 N.pl3   
   2 N2             1.3234    -0.4542     1.5716 N.2     
   3 C3             2.4685    -1.0999     1.4640 C.2     
   4 C4             3.4989    -0.1741     1.7716 C.2     
   5 C5             2.8629     0.9953     2.0490 C.2     
   6 C6             2.6447    -2.5170     1.0942 C.2     
   7 N7             1.5681    -3.2825     0.8269 N.am    
   8 N8             4.8809    -0.4143     1.7864 N.am    
   9 O9             3.7612    -2.9944     1.0305 O.2     
  10 C10            5.7344     0.5798     2.1022 C.2     
  11 C11            7.1877     0.3272     2.1178 C.ar    
  12 O12            5.3064     1.6851     2.3743 O.2     
  13 C13            1.7431    -4.6899     0.4596 C.3     
  14 C14            1.2254    -7.0092    -1.3071 C.3     
  15 N15            0.5396    -6.7653    -0.0317 N.3     
  16 C16            0.3741    -5.3259     0.2102 C.3     
  17 C17            7.8139    -0.1063     3.2914 C.ar    
  18 C18            9.1761    -0.3405     3.2971 C.ar    
  19 C19            9.9199    -0.1472     2.1471 C.ar    
  20 C20            9.3090     0.2816     0.9827 C.ar    
  21 C21            7.9468     0.5143     0.9574 C.ar    
  22 F22            7.0894    -0.2949     4.4159 F       
  23 F23            7.3519     0.9326    -0.1811 F       
  24 C24            1.5097    -8.5054    -1.4570 C.3     
  25 C25            0.1886    -9.2781    -1.4106 C.3     
  26 C26           -0.5284    -8.9690    -0.0935 C.3     
  27 C27           -0.7536    -7.4593     0.0170 C.3     
  28 C28            0.3369    -6.5409    -2.4613 C.3     
  29 C29           -1.4521    -7.1436     1.3411 C.3     
  30 H30            0.8377     1.4314     2.0461 H       
  31 H31            3.3288     1.9293     2.3264 H       
  32 H32            0.6775    -2.9016     0.8777 H       
  33 H33            5.2223    -1.2959     1.5693 H       
  34 H34            2.3453    -4.7568    -0.4464 H       
  35 H35            2.2464    -5.2170     1.2701 H       
  36 H36            2.1652    -6.4573    -1.3254 H       
  37 H37           -0.2611    -5.1748     1.0830 H       
  38 H38           -0.0888    -4.8619    -0.6607 H       
  39 H39            9.6611    -0.6752     4.2021 H       
  40 H40           10.9839    -0.3317     2.1586 H       
  41 H41            9.8974     0.4308     0.0894 H       
  42 H42            2.0047    -8.6880    -2.4108 H       
  43 H43            2.1540    -8.8368    -0.6427 H       
  44 H44           -0.4403    -8.9749    -2.2476 H       
  45 H45            0.3897   -10.3476    -1.4735 H       
  46 H46           -1.4895    -9.4827    -0.0730 H       
  47 H47            0.0838    -9.3077     0.7424 H       
  48 H48           -1.3773    -7.1236    -0.8115 H       
  49 H49            0.1351    -5.4750    -2.3552 H       
  50 H50            0.8458    -6.7218    -3.4081 H       
  51 H51           -0.6032    -7.0923    -2.4430 H       
  52 H52           -0.7755    -7.3569     2.1687 H       
  53 H53           -1.7314    -6.0902     1.3624 H       
  54 H54           -2.3469    -7.7587     1.4356 H       
@<TRIPOS>BOND
   1    1    2 1
   2    1    5 1
   3    1   30 1
   4    2    3 2
   5    3    4 1
   6    3    6 1
   7    4    5 2
   8    4    8 1
   9    5   31 1
  10    6    7 am
  11    6    9 2
  12    7   13 1
  13    7   32 1
  14    8   10 am
  15    8   33 1
  16   10   11 1
  17   10   12 2
  18   11   17 ar
  19   11   21 ar
  20   13   16 1
  21   13   34 1
  22   13   35 1
  23   14   15 1
  24   14   24 1
  25   14   28 1
  26   14   36 1
  27   15   16 1
  28   15   27 1
  29   16   37 1
  30   16   38 1
  31   17   18 ar
  32   17   22 1
  33   18   19 ar
  34   18   39 1
  35   19   20 ar
  36   19   40 1
  37   20   21 ar
  38   20   41 1
  39   21   23 1
  40   24   25 1
  41   24   42 1
  42   24   43 1
  43   25   26 1
  44   25   44 1
  45   25   45 1
  46   26   27 1
  47   26   46 1
  48   26   47 1
  49   27   29 1
  50   27   48 1
  51   28   49 1
  52   28   50 1
  53   28   51 1
  54   29   52 1
  55   29   53 1
  56   29   54 1

#	End of record

