#	Name: ASD02038677
#	Creating user name:	WinNT
#	Creation time:	15. 06. 2019 20:17

#	Modifying user name:	WinNT
#	Modification time:	15. 06. 2019 20:17

#	Program:	/corina/corina34_cracker 3.40 0067  02.08.2006

@<TRIPOS>MOLECULE
ASD02038677
  39   40    0    0    0
SMALL
NO_CHARGES


@<TRIPOS>ATOM
   1 C1             0.2989     1.4231     0.0079 C.ar    
   2 C2             0.2201     0.0440    -0.0097 C.ar    
   3 C3             1.3746    -0.7160     0.0246 C.ar    
   4 C4             1.2857    -2.2203     0.0048 C.3     
   5 C5             1.3088    -2.7135    -1.4434 C.3     
   6 C6             1.2200    -4.2178    -1.4632 C.2     
   7 N7             1.2233    -4.8776    -2.6384 N.am    
   8 N8             1.1407    -6.2760    -2.6568 N.am    
   9 C9             1.1440    -6.9359    -3.8320 C.2     
  10 C10            2.1055    -6.4208    -7.2333 C.ar    
  11 C11            2.2057    -7.1009    -8.4311 C.ar    
  12 C12            1.5334    -8.2975    -8.6073 C.ar    
  13 C13            0.7581    -8.8158    -7.5836 C.ar    
  14 C14            0.6553    -8.1387    -6.3827 C.ar    
  15 C15            1.3292    -6.9382    -6.2045 C.ar    
  16 C16            1.5378     2.0453     0.0600 C.ar    
  17 C17            2.6947     1.2804     0.0943 C.ar    
  18 C18            2.6105    -0.0983     0.0765 C.ar    
  19 O19            1.6179     3.4019     0.0770 O.3     
  20 N20            1.2268    -6.2504    -4.9895 N.am    
  21 O21            1.0723    -8.1495    -3.8480 O.2     
  22 Cl22           1.6615    -9.1498   -10.1142 Cl      
  23 O23            1.1455    -4.8346    -0.4216 O.2     
  24 Cl24          -0.0845   -10.3169    -7.8082 Cl      
  25 H25           -0.6030     2.0164    -0.0234 H       
  26 H26           -0.7441    -0.4408    -0.0499 H       
  27 H27            2.1332    -2.6415     0.5456 H       
  28 H28            0.3575    -2.5357     0.4812 H       
  29 H29            0.4614    -2.2923    -1.9842 H       
  30 H30            2.2371    -2.3981    -1.9199 H       
  31 H31            1.2829    -4.3843    -3.4714 H       
  32 H32            1.0811    -6.7694    -1.8238 H       
  33 H33            2.6342    -5.4892    -7.0951 H       
  34 H34            2.8091    -6.6983    -9.2312 H       
  35 H35            0.0501    -8.5425    -5.5846 H       
  36 H36            3.6603     1.7625     0.1345 H       
  37 H37            3.5108    -0.6942     0.1032 H       
  38 H38            1.6086     3.7853     0.9646 H       
  39 H39            1.2154    -5.2805    -4.9806 H       
@<TRIPOS>BOND
   1    1    2 ar
   2    1   16 ar
   3    1   25 1
   4    2    3 ar
   5    2   26 1
   6    3    4 1
   7    3   18 ar
   8    4    5 1
   9    4   27 1
  10    4   28 1
  11    5    6 1
  12    5   29 1
  13    5   30 1
  14    6    7 am
  15    6   23 2
  16    7    8 1
  17    7   31 1
  18    8    9 am
  19    8   32 1
  20    9   20 am
  21    9   21 2
  22   10   11 ar
  23   10   15 ar
  24   10   33 1
  25   11   12 ar
  26   11   34 1
  27   12   13 ar
  28   12   22 1
  29   13   14 ar
  30   13   24 1
  31   14   15 ar
  32   14   35 1
  33   15   20 1
  34   16   17 ar
  35   16   19 1
  36   17   18 ar
  37   17   36 1
  38   18   37 1
  39   19   38 1
  40   20   39 1

#	End of record

