#	Name: ASD08178125
#	Creating user name:	WinNT
#	Creation time:	15. 06. 2019 21:18

#	Modifying user name:	WinNT
#	Modification time:	15. 06. 2019 21:18

#	Program:	/corina/corina34_cracker 3.40 0067  02.08.2006

@<TRIPOS>MOLECULE
ASD08178125
  98  101    0    0    0
SMALL
NO_CHARGES


@<TRIPOS>ATOM
   1 C1            -0.0184     1.5028     0.0103 C.2     
   2 C2             0.0021    -0.0041     0.0020 C.3     
   3 C3             0.0221    -0.5218     1.4416 C.3     
   4 C4             0.0429    -2.0516     1.4332 C.3     
   5 C5             0.0630    -2.5693     2.8728 C.3     
   6 C6             0.0834    -4.0761     2.8645 C.2     
   7 N7             1.1396    -4.8258     2.8513 N.2     
   8 N8             0.9467    -6.0734     2.8463 N.2     
   9 C9            -0.2824    -6.4936     2.8547 C.2     
  10 S10           -1.3267    -5.1359     2.8788 S.3     
  11 N11           -0.6838    -7.8252     2.8506 N.am    
  12 N12            1.0171     2.2809     0.0046 N.2     
  13 C13            0.2391    -8.8073     2.8374 C.2     
  14 O14            1.4197    -8.5298     2.8290 O.2     
  15 C15           -0.1960   -10.2501     2.8329 C.3     
  16 C16            1.0193   -11.1412     2.8177 C.ar    
  17 N17            0.7904     3.5228     0.0134 N.2     
  18 C18           -0.4495     3.9094     0.0274 C.2     
  19 S19           -1.4568     2.5237     0.0218 S.3     
  20 C20            2.6805   -12.3615     1.5998 C.ar    
  21 C21            1.5867   -11.5565     4.0079 C.ar    
  22 C22            2.7014   -12.3739     3.9939 C.ar    
  23 C23            3.2485   -12.7762     2.7899 C.ar    
  24 C24            1.5632   -11.5477     1.6137 C.ar    
  25 N25           -0.8870     5.2295     0.0390 N.am    
  26 C26            0.0089     6.2364     0.0358 C.2     
  27 O27            1.1967     5.9912     0.0228 O.2     
  28 C28           -0.4651     7.6668     0.0485 C.3     
  29 C29            0.7256     8.5906     0.0419 C.ar    
  30 C30            1.2598     9.0210    -1.1582 C.ar    
  31 C31            2.3520     9.8684    -1.1642 C.ar    
  32 C32            2.9096    10.2857     0.0299 C.ar    
  33 C33            2.3748     9.8561     1.2300 C.ar    
  34 C34            1.2799     9.0122     1.2360 C.ar    
  35 C35            2.9830    10.3106     2.5317 C.3     
  36 C36            3.3206   -12.8259     5.2914 C.3     
  37 N37            2.3343    11.5498     2.9675 N.am    
  38 N38            2.7045   -14.0863     5.7134 N.am    
  39 C39            2.7183    12.1441     4.1145 C.2     
  40 O40            2.1221    13.2829     4.5150 O.3     
  41 O41            3.6026    11.6522     4.7873 O.2     
  42 C42            2.5866    13.8675     5.7603 C.3     
  43 C43            4.0749    14.2020     5.6428 C.3     
  44 C44            1.7977    15.1463     6.0489 C.3     
  45 C45            2.3765    12.8702     6.9015 C.3     
  46 C46            3.1033   -14.6824     6.8546 C.2     
  47 O47            3.9738   -14.1744     7.5333 O.2     
  48 O48            2.5372   -15.8407     7.2424 O.3     
  49 C49            3.0161   -16.4259     8.4820 C.3     
  50 C50            2.7790   -15.4466     9.6334 C.3     
  51 C51            2.2611   -17.7281     8.7563 C.3     
  52 C52            4.5129   -16.7197     8.3624 C.3     
  53 H53           -0.8875    -0.3767    -0.5057 H       
  54 H54            0.8922    -0.3525    -0.5218 H       
  55 H55            0.9118    -0.1491     1.9494 H       
  56 H56           -0.8680    -0.1733     1.9655 H       
  57 H57           -0.8467    -2.4242     0.9255 H       
  58 H58            0.9330    -2.4000     0.9094 H       
  59 H59            0.9526    -2.1967     3.3806 H       
  60 H60           -0.8271    -2.2209     3.3967 H       
  61 H61           -1.6281    -8.0470     2.8573 H       
  62 H62           -0.7854   -10.4546     3.7267 H       
  63 H63           -0.8003   -10.4446     1.9469 H       
  64 H64            3.1055   -12.6792     0.6591 H       
  65 H65            1.1592   -11.2422     4.9486 H       
  66 H66            4.1194   -13.4147     2.7790 H       
  67 H67            1.1195   -11.2238     0.6839 H       
  68 H68           -1.8369     5.4256     0.0495 H       
  69 H69           -1.0758     7.8550    -0.8345 H       
  70 H70           -1.0583     7.8451     0.9454 H       
  71 H71            0.8242     8.6950    -2.0911 H       
  72 H72            2.7698    10.2041    -2.1018 H       
  73 H73            3.7633    10.9472     0.0252 H       
  74 H74            0.8621     8.6765     2.1736 H       
  75 H75            2.8393     9.5396     3.2887 H       
  76 H76            4.0493    10.4884     2.3920 H       
  77 H77            4.3913   -12.9740     5.1508 H       
  78 H78            3.1561   -12.0670     6.0563 H       
  79 H79            1.6284    11.9425     2.4304 H       
  80 H80            2.0096   -14.4918     5.1716 H       
  81 H81            4.2246    14.9125     4.8299 H       
  82 H82            4.4236    14.6408     6.5777 H       
  83 H83            4.6369    13.2909     5.4372 H       
  84 H84            0.7374    14.9080     6.1327 H       
  85 H85            2.1464    15.5851     6.9838 H       
  86 H86            1.9473    15.8568     5.2360 H       
  87 H87            2.9385    11.9591     6.6959 H       
  88 H88            2.7252    13.3090     7.8363 H       
  89 H89            1.3162    12.6319     6.9852 H       
  90 H90            1.7127   -15.2373     9.7186 H       
  91 H91            3.1385   -15.8859    10.5639 H       
  92 H92            3.3169   -14.5189     9.4379 H       
  93 H93            2.4300   -18.4257     7.9361 H       
  94 H94            2.6206   -18.1674     9.6868 H       
  95 H95            1.1948   -17.5188     8.8415 H       
  96 H96            5.0507   -15.7920     8.1669 H       
  97 H97            4.8724   -17.1590     9.2929 H       
  98 H98            4.6818   -17.4173     7.5421 H       
@<TRIPOS>BOND
   1    1    2 1
   2    1   12 2
   3    1   19 1
   4    2    3 1
   5    2   53 1
   6    2   54 1
   7    3    4 1
   8    3   55 1
   9    3   56 1
  10    4    5 1
  11    4   57 1
  12    4   58 1
  13    5    6 1
  14    5   59 1
  15    5   60 1
  16    6    7 2
  17    6   10 1
  18    7    8 1
  19    8    9 2
  20    9   10 1
  21    9   11 1
  22   11   13 am
  23   11   61 1
  24   12   17 1
  25   13   14 2
  26   13   15 1
  27   15   16 1
  28   15   62 1
  29   15   63 1
  30   16   21 ar
  31   16   24 ar
  32   17   18 2
  33   18   19 1
  34   18   25 1
  35   20   24 ar
  36   20   23 ar
  37   20   64 1
  38   21   22 ar
  39   21   65 1
  40   22   23 ar
  41   22   36 1
  42   23   66 1
  43   24   67 1
  44   25   26 am
  45   25   68 1
  46   26   27 2
  47   26   28 1
  48   28   29 1
  49   28   69 1
  50   28   70 1
  51   29   30 ar
  52   29   34 ar
  53   30   31 ar
  54   30   71 1
  55   31   32 ar
  56   31   72 1
  57   32   33 ar
  58   32   73 1
  59   33   34 ar
  60   33   35 1
  61   34   74 1
  62   35   37 1
  63   35   75 1
  64   35   76 1
  65   36   38 1
  66   36   77 1
  67   36   78 1
  68   37   39 am
  69   37   79 1
  70   38   46 am
  71   38   80 1
  72   39   40 1
  73   39   41 2
  74   40   42 1
  75   42   43 1
  76   42   44 1
  77   42   45 1
  78   43   81 1
  79   43   82 1
  80   43   83 1
  81   44   84 1
  82   44   85 1
  83   44   86 1
  84   45   87 1
  85   45   88 1
  86   45   89 1
  87   46   47 2
  88   46   48 1
  89   48   49 1
  90   49   50 1
  91   49   51 1
  92   49   52 1
  93   50   90 1
  94   50   91 1
  95   50   92 1
  96   51   93 1
  97   51   94 1
  98   51   95 1
  99   52   96 1
 100   52   97 1
 101   52   98 1

#	End of record

