#	Name: ASD03091539
#	Creating user name:	WinNT
#	Creation time:	15. 06. 2019 20:30

#	Modifying user name:	WinNT
#	Modification time:	15. 06. 2019 20:30

#	Program:	/corina/corina34_cracker 3.40 0067  02.08.2006

@<TRIPOS>MOLECULE
ASD03091539
  40   42    0    0    0
SMALL
NO_CHARGES


@<TRIPOS>ATOM
   1 C1            -0.0170     1.4030     0.0098 C.ar    
   2 C2             0.0021    -0.0041     0.0020 C.ar    
   3 C3             1.2250    -0.6652    -0.0128 C.ar    
   4 C4             2.3968     0.0596    -0.0197 C.ar    
   5 C5             2.3726     1.4485    -0.0115 C.ar    
   6 C6             1.1820     2.1200     0.0022 C.ar    
   7 O7            -1.2765    -0.4288     0.0119 O.3     
   8 C8            -2.1300     0.6164     0.0257 C.2     
   9 C9            -1.4299     1.7801     0.0311 C.2     
  10 C10           -3.5959     0.5112     0.0391 C.2     
  11 O11           -4.2780     1.5185     0.0506 O.2     
  12 N12           -4.1845    -0.7012     0.0386 N.am    
  13 N13           -6.8757    -1.9594     1.8276 N.3     
  14 C14           -6.1529    -0.7246     1.4947 C.3     
  15 C15           -5.6457    -0.8061     0.0520 C.3     
  16 C16           -6.0698    -2.1533    -0.5463 C.3     
  17 C17           -7.5996    -2.2523    -0.4930 C.3     
  18 C18           -8.0525    -2.1314     0.9647 C.3     
  19 C19           -5.9889    -3.1283     1.7466 C.3     
  20 C20           -5.4765    -3.2780     0.3114 C.3     
  21 Br21           3.9970     2.4166    -0.0200 Br      
  22 H22            1.2565    -1.7447    -0.0185 H       
  23 H23            3.3447    -0.4578    -0.0312 H       
  24 H24            1.1683     3.1999     0.0082 H       
  25 H25           -1.8346     2.7814     0.0423 H       
  26 H26           -3.6407    -1.5044     0.0295 H       
  27 H27           -6.8240     0.1283     1.5965 H       
  28 H28           -5.3068    -0.6047     2.1714 H       
  29 H29           -6.0775     0.0057    -0.5334 H       
  30 H30           -5.7249    -2.2307    -1.5774 H       
  31 H31           -8.0385    -1.4455    -1.0800 H       
  32 H32           -7.9175    -3.2141    -0.8956 H       
  33 H33           -8.5878    -3.0353     1.2555 H       
  34 H34           -8.7104    -1.2687     1.0707 H       
  35 H35           -5.1443    -2.9916     2.4219 H       
  36 H36           -6.5411    -4.0241     2.0309 H       
  37 H37           -5.7859    -4.2439    -0.0880 H       
  38 H38           -4.3887    -3.2088     0.3029 H       
  39 Cl39           8.9970     8.1999     7.4219 Cl      
  40 H40            8.9970     9.5699     7.4219 H       
@<TRIPOS>BOND
   1    1    2 ar
   2    1    6 ar
   3    1    9 1
   4    2    3 ar
   5    2    7 1
   6    3    4 ar
   7    3   22 1
   8    4    5 ar
   9    4   23 1
  10    5    6 ar
  11    5   21 1
  12    6   24 1
  13    7    8 1
  14    8    9 2
  15    8   10 1
  16    9   25 1
  17   10   11 2
  18   10   12 am
  19   12   15 1
  20   12   26 1
  21   13   14 1
  22   13   18 1
  23   13   19 1
  24   14   15 1
  25   14   27 1
  26   14   28 1
  27   15   16 1
  28   15   29 1
  29   16   17 1
  30   16   20 1
  31   16   30 1
  32   17   18 1
  33   17   31 1
  34   17   32 1
  35   18   33 1
  36   18   34 1
  37   19   20 1
  38   19   35 1
  39   19   36 1
  40   20   37 1
  41   20   38 1
  42   39   40 1

#	End of record

