#	Name: ASD01881768
#	Creating user name:	WinNT
#	Creation time:	15. 06. 2019 19:43

#	Modifying user name:	WinNT
#	Modification time:	15. 06. 2019 19:43

#	Program:	/corina/corina34_cracker 3.40 0067  02.08.2006

@<TRIPOS>MOLECULE
ASD01881768
  41   44    0    0    0
SMALL
NO_CHARGES


@<TRIPOS>ATOM
   1 C1            -0.0173     1.4248     0.0099 C.3     
   2 O2             0.0021    -0.0041     0.0020 O.3     
   3 C3             1.3965     1.9464    -0.0008 C.ar    
   4 C4             2.4533     1.0555    -0.0157 C.ar    
   5 C5             3.7499     1.5457    -0.0259 C.ar    
   6 C6             3.9361     2.9199    -0.0208 C.ar    
   7 C7             2.8308     3.7490    -0.0057 C.ar    
   8 N8             1.6111     3.2474    -0.0014 N.ar    
   9 C9             3.0213     5.2439    -0.0000 C.3     
  10 O10            4.4179     5.5462    -0.0121 O.3     
  11 N11            6.0819    10.7649    -0.0025 N.pl3   
  12 N12            7.4571    10.4886    -0.0167 N.2     
  13 N13            7.6379     9.2151    -0.0244 N.2     
  14 C14            6.4524     8.5735    -0.0163 C.ar    
  15 C15            5.4393     9.5479    -0.0022 C.ar    
  16 C16            6.0977     7.2175    -0.0201 C.ar    
  17 C17            4.7650     6.8611    -0.0089 C.ar    
  18 C18            3.7725     7.8381     0.0053 C.ar    
  19 C19            4.1031     9.1639     0.0078 C.ar    
  20 C20            5.4536    12.0883     0.0151 C.3     
  21 C21            5.2221    12.5620    -1.4212 C.3     
  22 C22            4.4657    13.8773    -1.6180 C.3     
  23 C23            5.9715    13.8140    -1.8816 C.3     
  24 Br24           7.4384     5.8841    -0.0396 Br      
  25 H25           -0.5445     1.7859    -0.8732 H       
  26 H26           -0.5275     1.7763     0.9067 H       
  27 H27           -0.8759    -0.4094     0.0082 H       
  28 H28            2.2710    -0.0090    -0.0190 H       
  29 H29            4.5951     0.8733    -0.0373 H       
  30 H30            4.9324     3.3367    -0.0280 H       
  31 H31            2.5488     5.6738    -0.8832 H       
  32 H32            2.5662     5.6648     0.8966 H       
  33 H33            2.7330     7.5454     0.0137 H       
  34 H34            3.3261     9.9139     0.0187 H       
  35 H35            4.4984    12.0300     0.5369 H       
  36 H36            6.1063    12.7936     0.5296 H       
  37 H37            5.0600    11.7734    -2.1560 H       
  38 H38            3.8062    13.9541    -2.4824 H       
  39 H39            4.1330    14.4051    -0.7242 H       
  40 H40            6.6294    14.3001    -1.1612 H       
  41 H41            6.3026    13.8491    -2.9195 H       
@<TRIPOS>BOND
   1    1    2 1
   2    1    3 1
   3    1   25 1
   4    1   26 1
   5    2   27 1
   6    3    4 ar
   7    3    8 ar
   8    4    5 ar
   9    4   28 1
  10    5    6 ar
  11    5   29 1
  12    6    7 ar
  13    6   30 1
  14    7    8 ar
  15    7    9 1
  16    9   10 1
  17    9   31 1
  18    9   32 1
  19   10   17 1
  20   11   12 1
  21   11   15 1
  22   11   20 1
  23   12   13 2
  24   13   14 1
  25   14   15 ar
  26   14   16 ar
  27   15   19 ar
  28   16   17 ar
  29   16   24 1
  30   17   18 ar
  31   18   19 ar
  32   18   33 1
  33   19   34 1
  34   20   21 1
  35   20   35 1
  36   20   36 1
  37   21   22 1
  38   21   23 1
  39   21   37 1
  40   22   23 1
  41   22   38 1
  42   22   39 1
  43   23   40 1
  44   23   41 1

#	End of record

