#	Name: ASD00120002
#	Creating user name:	WinNT
#	Creation time:	15. 06. 2019 18:31

#	Modifying user name:	WinNT
#	Modification time:	15. 06. 2019 18:31

#	Program:	/corina/corina34_cracker 3.40 0067  02.08.2006

@<TRIPOS>MOLECULE
ASD00120002
  18   19    0    0    0
SMALL
NO_CHARGES


@<TRIPOS>ATOM
   1 C1            -0.0168     1.3896     0.0097 C.ar    
   2 C2             0.0021    -0.0041     0.0020 C.ar    
   3 C3            -1.1734    -0.7211     0.0098 C.ar    
   4 C4            -2.3944    -0.0554     0.0255 C.ar    
   5 C5            -2.4179     1.3508     0.0333 C.ar    
   6 C6            -1.2205     2.0692     0.0306 C.ar    
   7 N7            -3.7058    -0.4833     0.0358 N.pl3   
   8 C8            -4.5463     0.5960     0.0497 C.2     
   9 C9            -3.8321     1.7327     0.0489 C.2     
  10 N10            1.1871     2.1034     0.0020 N.pl3   
  11 H11            0.9473    -0.5263    -0.0105 H       
  12 H12           -1.1472    -1.8007     0.0034 H       
  13 H13           -1.2348     3.1491     0.0366 H       
  14 H14           -3.9896    -1.4108     0.0335 H       
  15 H15           -5.6249     0.5416     0.0598 H       
  16 H16           -4.2257     2.7383     0.0584 H       
  17 H17            2.0327     1.6283    -0.0086 H       
  18 H18            1.1759     3.0734     0.0073 H       
@<TRIPOS>BOND
   1    1    2 ar
   2    1   10 1
   3    1    6 ar
   4    2    3 ar
   5    2   11 1
   6    3    4 ar
   7    3   12 1
   8    4    5 ar
   9    4    7 1
  10    5    6 ar
  11    5    9 1
  12    6   13 1
  13    7    8 1
  14    7   14 1
  15    8    9 2
  16    8   15 1
  17    9   16 1
  18   10   17 1
  19   10   18 1

#	End of record

