#	Name: ASD04590804
#	Creating user name:	WinNT
#	Creation time:	15. 06. 2019 20:51

#	Modifying user name:	WinNT
#	Modification time:	15. 06. 2019 20:51

#	Program:	/corina/corina34_cracker 3.40 0067  02.08.2006

@<TRIPOS>MOLECULE
ASD04590804
  40   42    0    0    0
SMALL
NO_CHARGES


@<TRIPOS>ATOM
   1 O1            -0.0173     1.4261     0.0099 O.3     
   2 C2             0.0021    -0.0041     0.0020 C.3     
   3 C3             0.7506    -0.4916    -1.2414 C.3     
   4 N4             2.1039     0.0825    -1.2495 N.3     
   5 C5             2.0466     1.5517    -1.2403 C.3     
   6 C6             1.2832     2.0191     0.0007 C.3     
   7 C7             1.1498     3.5435    -0.0237 C.3     
   8 C8             0.4381     4.0086     1.2490 C.3     
   9 N9             1.2082     3.5833     2.4249 N.3     
  10 C10            1.3079     2.1200     2.4946 C.3     
  11 C11            2.0456     1.5984     1.2592 C.3     
  12 C12            0.6298     4.1310     3.6592 C.3     
  13 C13            1.2863     3.4843     4.8516 C.ar    
  14 C14            2.4198     4.0480     5.4068 C.ar    
  15 C15            3.0220     3.4548     6.5006 C.ar    
  16 C16            2.4904     2.2980     7.0394 C.ar    
  17 C17            1.3564     1.7348     6.4847 C.ar    
  18 C18            0.7517     2.3305     5.3936 C.ar    
  19 H19            0.5082    -0.3662     0.8969 H       
  20 H20           -1.0202    -0.3819    -0.0170 H       
  21 H21            0.8169    -1.5794    -1.2230 H       
  22 H22            0.2152    -0.1742    -2.1362 H       
  23 H23            2.6480    -0.2630    -0.4732 H       
  24 H24            3.0589     1.9553    -1.2183 H       
  25 H25            1.5339     1.9016    -2.1363 H       
  26 H26            2.1408     3.9948    -0.0721 H       
  27 H27            0.5692     3.8442    -0.8959 H       
  28 H28            0.3555     5.0954     1.2425 H       
  29 H29           -0.5585     3.5689     1.2891 H       
  30 H30            1.8568     1.8357     3.3924 H       
  31 H31            0.3073     1.6890     2.5291 H       
  32 H32            2.1044     0.5108     1.3026 H       
  33 H33            3.0517     2.0171     1.2323 H       
  34 H34            0.7966     5.2077     3.6921 H       
  35 H35           -0.4410     3.9285     3.6797 H       
  36 H36            2.8351     4.9517     4.9858 H       
  37 H37            3.9079     3.8948     6.9339 H       
  38 H38            2.9613     1.8342     7.8935 H       
  39 H39            0.9412     0.8309     6.9055 H       
  40 H40           -0.1365     1.8925     4.9626 H       
@<TRIPOS>BOND
   1    1    2 1
   2    1    6 1
   3    2    3 1
   4    2   19 1
   5    2   20 1
   6    3    4 1
   7    3   21 1
   8    3   22 1
   9    4    5 1
  10    4   23 1
  11    5    6 1
  12    5   24 1
  13    5   25 1
  14    6    7 1
  15    6   11 1
  16    7    8 1
  17    7   26 1
  18    7   27 1
  19    8    9 1
  20    8   28 1
  21    8   29 1
  22    9   10 1
  23    9   12 1
  24   10   11 1
  25   10   30 1
  26   10   31 1
  27   11   32 1
  28   11   33 1
  29   12   13 1
  30   12   34 1
  31   12   35 1
  32   13   14 ar
  33   13   18 ar
  34   14   15 ar
  35   14   36 1
  36   15   16 ar
  37   15   37 1
  38   16   17 ar
  39   16   38 1
  40   17   18 ar
  41   17   39 1
  42   18   40 1

#	End of record

