#	Name: ASD01410041
#	Creating user name:	WinNT
#	Creation time:	15. 06. 2019 19:16

#	Modifying user name:	WinNT
#	Modification time:	15. 06. 2019 19:16

#	Program:	/corina/corina34_cracker 3.40 0067  02.08.2006

@<TRIPOS>MOLECULE
ASD01410041
  38   39    0    0    0
SMALL
NO_CHARGES


@<TRIPOS>ATOM
   1 C1            -0.0265     1.4013    -0.0670 C.ar    
   2 C2            -0.0037     0.0236    -0.0692 C.ar    
   3 C3            -1.2066    -0.6941    -0.0481 C.ar    
   4 C4            -2.4278    -0.0007    -0.0248 C.ar    
   5 C5            -2.4313     1.3853    -0.0229 C.ar    
   6 C6            -1.2378     2.0819    -0.0385 C.ar    
   7 O7            -3.5990    -0.6847    -0.0047 O.3     
   8 C8            -4.8010     0.0877     0.0185 C.3     
   9 C9            -5.9915    -0.8362     0.0385 C.2     
  10 N10           -7.2392    -0.3272     0.0620 N.am    
  11 C11           -8.3393    -1.1758    -0.0326 C.ar    
  12 C12           -8.2746    -2.3165    -0.8210 C.ar    
  13 C13           -9.3664    -3.1564    -0.9134 C.ar    
  14 C14          -10.5327    -2.8693    -0.2231 C.ar    
  15 C15          -10.6157    -1.7415     0.5645 C.ar    
  16 C16           -9.5172    -0.8851     0.6732 C.ar    
  17 C17           -9.5988     0.3226     1.5141 C.2     
  18 O18          -10.7663     0.6610     2.0957 O.3     
  19 O19           -8.6133     1.0131     1.6829 O.2     
  20 O20           -5.8267    -2.0377     0.0335 O.2     
  21 C21           -1.1908    -2.1611    -0.0509 C.2     
  22 F22            1.1336     2.0934    -0.0869 F       
  23 Cl23          -1.2521     3.8178    -0.0354 Cl      
  24 C24            0.1221    -2.9004    -0.0764 C.3     
  25 O25           -2.2346    -2.7789    -0.0325 O.2     
  26 H26            0.9397    -0.5019    -0.0876 H       
  27 H27           -3.3684     1.9219    -0.0050 H       
  28 H28           -4.8128     0.7149     0.9098 H       
  29 H29           -4.8451     0.7178    -0.8698 H       
  30 H30           -7.3709     0.6303     0.1449 H       
  31 H31           -7.3693    -2.5470    -1.3629 H       
  32 H32           -9.3110    -4.0427    -1.5281 H       
  33 H33          -11.3813    -3.5326    -0.3028 H       
  34 H34          -11.5274    -1.5221     1.1004 H       
  35 H35          -10.7707     1.4615     2.6382 H       
  36 H36            0.9428    -2.1832    -0.0905 H       
  37 H37            0.2031    -3.5279     0.8112 H       
  38 H38            0.1701    -3.5249    -0.9685 H       
@<TRIPOS>BOND
   1    1    2 ar
   2    1   22 1
   3    1    6 ar
   4    2    3 ar
   5    2   26 1
   6    3    4 ar
   7    3   21 1
   8    4    5 ar
   9    4    7 1
  10    5    6 ar
  11    5   27 1
  12    6   23 1
  13    7    8 1
  14    8    9 1
  15    8   28 1
  16    8   29 1
  17    9   10 am
  18    9   20 2
  19   10   11 1
  20   10   30 1
  21   11   12 ar
  22   11   16 ar
  23   12   13 ar
  24   12   31 1
  25   13   14 ar
  26   13   32 1
  27   14   15 ar
  28   14   33 1
  29   15   16 ar
  30   15   34 1
  31   16   17 1
  32   17   18 1
  33   17   19 2
  34   18   35 1
  35   21   24 1
  36   21   25 2
  37   24   36 1
  38   24   37 1
  39   24   38 1

#	End of record

