#	Name: ASD00071027
#	Creating user name:	WinNT
#	Creation time:	15. 06. 2019 18:30

#	Modifying user name:	WinNT
#	Modification time:	15. 06. 2019 18:30

#	Program:	/corina/corina34_cracker 3.40 0067  02.08.2006

@<TRIPOS>MOLECULE
ASD00071027
  36   38    0    0    0
SMALL
NO_CHARGES


@<TRIPOS>ATOM
   1 N1             2.6311     1.0879    -0.0586 N.ar    
   2 C2             2.4060    -0.1915     0.1586 C.ar    
   3 C3             1.1042    -0.7123     0.1902 C.ar    
   4 C4             0.0381     0.1127    -0.0063 C.ar    
   5 C5             0.2860     1.4811    -0.2378 C.ar    
   6 C6            -0.7662     2.3870    -0.4476 C.ar    
   7 C7            -0.4878     3.7037    -0.6680 C.ar    
   8 C8             0.8266     4.1615    -0.6882 C.ar    
   9 C9             1.8702     3.3095    -0.4888 C.ar    
  10 C10            1.6236     1.9458    -0.2582 C.ar    
  11 N11            3.4813    -1.0437     0.3604 N.pl3   
  12 C12            0.8851    -2.1821     0.4406 C.3     
  13 C13            0.8583    -2.4403     1.9250 C.ar    
  14 C14           -0.3036    -2.2127     2.6485 C.ar    
  15 C15           -0.3250    -2.4512     4.0148 C.ar    
  16 C16            0.8100    -2.9148     4.6519 C.ar    
  17 C17            1.9665    -3.1403     3.9289 C.ar    
  18 C18            1.9886    -2.9091     2.5656 C.ar    
  19 O19           -1.4186    -1.7563     2.0197 O.3     
  20 C20           -2.5782    -1.5445     2.8275 C.3     
  21 Cl21          -2.4116     1.8340    -0.4271 Cl      
  22 H22           -0.9709    -0.2717     0.0143 H       
  23 H23           -1.2975     4.4001    -0.8293 H       
  24 H24            1.0220     5.2088    -0.8651 H       
  25 H25            2.8841     3.6809    -0.5084 H       
  26 H26            4.3777    -0.6823     0.4426 H       
  27 H27            3.3371    -2.0011     0.4193 H       
  28 H28           -0.0645    -2.4879     0.0014 H       
  29 H29            1.6956    -2.7527    -0.0129 H       
  30 H30           -1.2281    -2.2745     4.5802 H       
  31 H31            0.7938    -3.1006     5.7156 H       
  32 H32            2.8529    -3.5020     4.4288 H       
  33 H33            2.8919    -3.0907     2.0021 H       
  34 H34           -3.3944    -1.1810     2.2032 H       
  35 H35           -2.8705    -2.4838     3.2970 H       
  36 H36           -2.3543    -0.8072     3.5984 H       
@<TRIPOS>BOND
   1    1    2 ar
   2    1   10 ar
   3    2    3 ar
   4    2   11 1
   5    3    4 ar
   6    3   12 1
   7    4    5 ar
   8    4   22 1
   9    5    6 ar
  10    5   10 ar
  11    6    7 ar
  12    6   21 1
  13    7    8 ar
  14    7   23 1
  15    8    9 ar
  16    8   24 1
  17    9   10 ar
  18    9   25 1
  19   11   26 1
  20   11   27 1
  21   12   13 1
  22   12   28 1
  23   12   29 1
  24   13   14 ar
  25   13   18 ar
  26   14   15 ar
  27   14   19 1
  28   15   16 ar
  29   15   30 1
  30   16   17 ar
  31   16   31 1
  32   17   18 ar
  33   17   32 1
  34   18   33 1
  35   19   20 1
  36   20   34 1
  37   20   35 1
  38   20   36 1

#	End of record

