#	Name: ASD03090137
#	Creating user name:	WinNT
#	Creation time:	15. 06. 2019 20:28

#	Modifying user name:	WinNT
#	Modification time:	15. 06. 2019 20:28

#	Program:	/corina/corina34_cracker 3.40 0067  02.08.2006

@<TRIPOS>MOLECULE
ASD03090137
  56   59    0    0    0
SMALL
NO_CHARGES


@<TRIPOS>ATOM
   1 C1            -0.3051     1.4402    -1.4392 C.ar    
   2 C2            -0.2758     0.0489    -1.4513 C.ar    
   3 C3            -1.4228    -0.6690    -1.1608 C.ar    
   4 C4            -2.6063     0.0028    -0.8539 C.ar    
   5 C5            -2.6288     1.3981    -0.8410 C.ar    
   6 C6            -1.4845     2.1081    -1.1358 C.ar    
   7 C7            -3.8338    -0.7614    -0.5437 C.2     
   8 N8            -5.5907    -3.6443     0.4376 N.pl3   
   9 C9            -4.6572    -4.6232     0.7883 C.ar    
  10 C10           -3.4612    -4.2593     1.3938 C.ar    
  11 C11           -2.5410    -5.2295     1.7397 C.ar    
  12 C12           -2.8092    -6.5616     1.4838 C.ar    
  13 C13           -3.9989    -6.9273     0.8806 C.ar    
  14 C14           -4.9258    -5.9631     0.5375 C.ar    
  15 N15           -3.8869    -2.0223    -0.1620 N.2     
  16 C16           -5.1578    -2.3808     0.0302 C.2     
  17 N17           -5.9357    -1.3547    -0.2256 N.2     
  18 N18           -5.0996    -0.2889    -0.5957 N.pl3   
  19 C19           -5.5167     1.0643    -0.9716 C.3     
  20 C20           -5.6275     1.9177     0.2654 C.2     
  21 N21           -5.9992     3.2091     0.1622 N.am    
  22 O22           -5.3823     1.4425     1.3540 O.2     
  23 C23           -6.1069     4.0388     1.3648 C.3     
  24 C24           -6.5424     5.4519     0.9721 C.3     
  25 O25           -7.8611     5.4087     0.4233 O.3     
  26 C26           -8.3657     6.6840     0.0219 C.3     
  27 O27            0.8122     2.1615    -1.7281 O.3     
  28 C28            2.0622     1.4668    -1.6623 C.3     
  29 C29            1.9063     0.1264    -2.3932 C.3     
  30 O30            0.8730    -0.6210    -1.7428 O.3     
  31 C31           -4.2866    -8.3804     0.6033 C.3     
  32 F32           -3.2112    -9.1606     1.0415 F       
  33 F33           -5.4481    -8.7637     1.2824 F       
  34 F34           -4.4676    -8.5658    -0.7715 F       
  35 H35           -1.4018    -1.7488    -1.1719 H       
  36 H36           -3.5430     1.9215    -0.6030 H       
  37 H37           -1.5037     3.1879    -1.1252 H       
  38 H38           -6.5394    -3.8425     0.4770 H       
  39 H39           -3.2510    -3.2190     1.5936 H       
  40 H40           -1.6107    -4.9473     2.2101 H       
  41 H41           -2.0879    -7.3182     1.7552 H       
  42 H42           -5.8547    -6.2494     0.0668 H       
  43 H43           -4.7788     1.4974    -1.6470 H       
  44 H44           -6.4847     1.0206    -1.4708 H       
  45 H45           -6.1953     3.5892    -0.7085 H       
  46 H46           -6.8447     3.6056     2.0401 H       
  47 H47           -5.1389     4.0824     1.8639 H       
  48 H48           -6.5368     6.0921     1.8542 H       
  49 H49           -5.8525     5.8514     0.2288 H       
  50 H50           -9.3706     6.5659    -0.3836 H       
  51 H51           -8.3980     7.3498     0.8844 H       
  52 H52           -7.7136     7.1090    -0.7410 H       
  53 H53            2.8384     2.0606    -2.1450 H       
  54 H54            2.3293     1.2886    -0.6207 H       
  55 H55            1.6322     0.3043    -3.4331 H       
  56 H56            2.8441    -0.4275    -2.3492 H       
@<TRIPOS>BOND
   1    1    2 ar
   2    1   27 1
   3    1    6 ar
   4    2    3 ar
   5    2   30 1
   6    3    4 ar
   7    3   35 1
   8    4    5 ar
   9    4    7 1
  10    5    6 ar
  11    5   36 1
  12    6   37 1
  13    7   15 2
  14    7   18 1
  15    8    9 1
  16    8   16 1
  17    8   38 1
  18    9   10 ar
  19    9   14 ar
  20   10   11 ar
  21   10   39 1
  22   11   12 ar
  23   11   40 1
  24   12   13 ar
  25   12   41 1
  26   13   14 ar
  27   13   31 1
  28   14   42 1
  29   15   16 1
  30   16   17 2
  31   17   18 1
  32   18   19 1
  33   19   20 1
  34   19   43 1
  35   19   44 1
  36   20   21 am
  37   20   22 2
  38   21   23 1
  39   21   45 1
  40   23   24 1
  41   23   46 1
  42   23   47 1
  43   24   25 1
  44   24   48 1
  45   24   49 1
  46   25   26 1
  47   26   50 1
  48   26   51 1
  49   26   52 1
  50   27   28 1
  51   28   29 1
  52   28   53 1
  53   28   54 1
  54   29   30 1
  55   29   55 1
  56   29   56 1
  57   31   32 1
  58   31   33 1
  59   31   34 1

#	End of record

