#	Name: ASD00360011
#	Creating user name:	WinNT
#	Creation time:	15. 06. 2019 18:35

#	Modifying user name:	WinNT
#	Modification time:	15. 06. 2019 18:35

#	Program:	/corina/corina34_cracker 3.40 0067  02.08.2006

@<TRIPOS>MOLECULE
ASD00360011
  40   43    0    0    0
SMALL
NO_CHARGES


@<TRIPOS>ATOM
   1 C1            -0.0169     1.3974     0.0097 C.ar    
   2 C2             0.0021    -0.0041     0.0020 C.ar    
   3 C3             1.2204    -0.6877    -0.0134 C.ar    
   4 C4             2.4191     0.0150    -0.0213 C.ar    
   5 C5             2.4124     1.4048    -0.0129 C.ar    
   6 C6             1.1874     2.1045     0.0020 C.ar    
   7 C7             1.1880     3.5783     0.0104 C.2     
   8 C8             3.6836     2.1591    -0.0181 C.2     
   9 C9             3.6658     3.6035     0.2989 C.ar    
  10 C10            2.4407     4.2982     0.3112 C.ar    
  11 C11            2.4232     5.6621     0.6103 C.ar    
  12 C12            4.8458     4.2801     0.5833 C.ar    
  13 C13            4.8135     5.6341     0.8784 C.ar    
  14 C14            3.6173     6.3207     0.8922 C.ar    
  15 O15            1.2332    -2.0446    -0.0203 O.3     
  16 O16            4.7304     1.5992    -0.2792 O.2     
  17 O17            0.1670     4.1947    -0.2286 O.2     
  18 O18            1.2498     6.3415     0.6258 O.3     
  19 O19           -1.1975     2.0626     0.0190 O.3     
  20 C20            6.0965     6.3622     1.1866 C.3     
  21 C21           -1.2711    -0.7613     0.0107 C.ar    
  22 C22           -2.8105    -2.2545    -1.0693 C.ar    
  23 C23           -3.6508    -2.1767     0.0270 C.ar    
  24 C24           -3.3096    -1.3901     1.1128 C.ar    
  25 C25           -2.1252    -0.6824     1.1106 C.ar    
  26 C26           -1.6233    -1.5515    -1.0833 C.ar    
  27 H27            3.3574    -0.5196    -0.0335 H       
  28 H28            5.7874     3.7512     0.5749 H       
  29 H29            3.6068     7.3756     1.1235 H       
  30 H30            1.2281    -2.4335    -0.9056 H       
  31 H31            0.8111     6.3493     1.4875 H       
  32 H32           -1.5360     2.2509     0.9050 H       
  33 H33            6.5205     6.7578     0.2636 H       
  34 H34            5.8922     7.1833     1.8737 H       
  35 H35            6.8047     5.6722     1.6453 H       
  36 H36           -3.0822    -2.8702    -1.9139 H       
  37 H37           -4.5790    -2.7288     0.0334 H       
  38 H38           -3.9697    -1.3333     1.9658 H       
  39 H39           -1.8597    -0.0689     1.9589 H       
  40 H40           -0.9683    -1.6127    -1.9398 H       
@<TRIPOS>BOND
   1    1    2 ar
   2    1    6 ar
   3    1   19 1
   4    2    3 ar
   5    2   21 1
   6    3    4 ar
   7    3   15 1
   8    4    5 ar
   9    4   27 1
  10    5    6 ar
  11    5    8 1
  12    6    7 1
  13    7   10 1
  14    7   17 2
  15    8    9 1
  16    8   16 2
  17    9   12 ar
  18    9   10 ar
  19   10   11 ar
  20   11   14 ar
  21   11   18 1
  22   12   13 ar
  23   12   28 1
  24   13   14 ar
  25   13   20 1
  26   14   29 1
  27   15   30 1
  28   18   31 1
  29   19   32 1
  30   20   33 1
  31   20   34 1
  32   20   35 1
  33   21   26 ar
  34   21   25 ar
  35   22   23 ar
  36   22   26 ar
  37   22   36 1
  38   23   24 ar
  39   23   37 1
  40   24   25 ar
  41   24   38 1
  42   25   39 1
  43   26   40 1

#	End of record

