#	Name: ASD04590588
#	Creating user name:	WinNT
#	Creation time:	15. 06. 2019 20:51

#	Modifying user name:	WinNT
#	Modification time:	15. 06. 2019 20:51

#	Program:	/corina/corina34_cracker 3.40 0067  02.08.2006

@<TRIPOS>MOLECULE
ASD04590588
  68   73    0    0    0
SMALL
NO_CHARGES


@<TRIPOS>ATOM
   1 C1            -1.0740     1.6186     2.4885 C.3     
   2 C2            -1.2874     0.1041     2.5279 C.3     
   3 C3             0.0699    -0.6020     2.5425 C.3     
   4 O4            -2.3416     2.2781     2.4749 O.3     
   5 N5            -0.2483    -6.1357     2.1761 N.ar    
   6 C6            -1.0694    -6.7494     1.3424 C.ar    
   7 C7            -1.8490    -6.0174     0.4526 C.ar    
   8 C8            -1.7482    -4.6395     0.4551 C.ar    
   9 C9            -0.8707    -4.0321     1.3492 C.ar    
  10 C10           -0.7620    -2.5310     1.3426 C.3     
  11 N11           -0.1350    -2.0562     2.5804 N.3     
  12 C12            1.1357    -2.7620     2.8099 C.3     
  13 C13            0.8256    -4.2071     3.2006 C.3     
  14 C14           -0.1305    -4.8158     2.2055 C.ar    
  15 N15           -1.1547    -8.1388     1.3541 N.pl3   
  16 C16           -0.3025    -8.8784     2.1581 C.ar    
  17 N17           -0.4732   -10.1882     2.2341 N.ar    
  18 C18            0.3244   -10.9318     2.9950 C.ar    
  19 C19            1.3527   -10.2921     3.7161 C.ar    
  20 C20            1.4929    -8.9124     3.6048 C.ar    
  21 N21            0.6593    -8.2489     2.8206 N.ar    
  22 N22            0.3815   -12.2778     3.2596 N.pl3   
  23 C23            2.0602   -11.3455     4.4551 C.ar    
  24 C24            1.4169   -12.5550     4.1355 C.ar    
  25 C25            1.8914   -13.7281     4.7070 C.ar    
  26 C26            3.1447   -11.3735     5.3304 C.ar    
  27 C27            3.5463   -12.5862     5.8503 C.ar    
  28 N28            2.9208   -13.7047     5.5292 N.ar    
  29 C29           -0.5260   -13.2796     2.6948 C.3     
  30 C30           -1.9640   -12.9525     3.1022 C.3     
  31 C31           -2.9118   -13.9987     2.5124 C.3     
  32 C32           -2.7987   -13.9868     0.9866 C.3     
  33 C33           -1.3607   -14.3139     0.5792 C.3     
  34 C34           -0.4129   -13.2676     1.1690 C.3     
  35 C35           -3.7465   -15.0330     0.3967 C.3     
  36 H36           -0.5121     1.9294     3.3693 H       
  37 H37           -0.5168     1.8837     1.5900 H       
  38 H38           -1.8445    -0.1611     3.4265 H       
  39 H39           -1.8492    -0.2068     1.6471 H       
  40 H40            0.6271    -0.3369     1.6440 H       
  41 H41            0.6317    -0.2912     3.4234 H       
  42 H42           -2.2828     3.2429     2.4499 H       
  43 H43           -2.5212    -6.5178    -0.2287 H       
  44 H44           -2.3395    -4.0440    -0.2248 H       
  45 H45           -0.1592    -2.2172     0.4904 H       
  46 H46           -1.7584    -2.0980     1.2541 H       
  47 H47            1.7315    -2.7493     1.8972 H       
  48 H48            1.6848    -2.2747     3.6156 H       
  49 H49            1.7500    -4.7845     3.2142 H       
  50 H50            0.3750    -4.2248     4.1929 H       
  51 H51           -1.8107    -8.5892     0.7995 H       
  52 H52            2.2710    -8.3933     4.1448 H       
  53 H53            1.4123   -14.6680     4.4758 H       
  54 H54            3.6609   -10.4629     5.5961 H       
  55 H55            4.3851   -12.6221     6.5296 H       
  56 H56           -0.2573   -14.2666     3.0713 H       
  57 H57           -2.0445   -12.9610     4.1892 H       
  58 H58           -2.2327   -11.9655     2.7257 H       
  59 H59           -2.6430   -14.9857     2.8889 H       
  60 H60           -3.9362   -13.7657     2.8026 H       
  61 H61           -3.0674   -12.9998     0.6101 H       
  62 H62           -1.0920   -15.3009     0.9557 H       
  63 H63           -1.2801   -14.3054    -0.5078 H       
  64 H64           -0.6816   -12.2806     0.7925 H       
  65 H65            0.6116   -13.5007     0.8788 H       
  66 H66           -4.7709   -14.8000     0.6870 H       
  67 H67           -3.6659   -15.0245    -0.6903 H       
  68 H68           -3.4777   -16.0200     0.7732 H       
@<TRIPOS>BOND
   1    1    2 1
   2    1    4 1
   3    1   36 1
   4    1   37 1
   5    2    3 1
   6    2   38 1
   7    2   39 1
   8    3   11 1
   9    3   40 1
  10    3   41 1
  11    4   42 1
  12    5    6 ar
  13    5   14 ar
  14    6    7 ar
  15    6   15 1
  16    7    8 ar
  17    7   43 1
  18    8    9 ar
  19    8   44 1
  20    9   10 1
  21    9   14 ar
  22   10   11 1
  23   10   45 1
  24   10   46 1
  25   11   12 1
  26   12   13 1
  27   12   47 1
  28   12   48 1
  29   13   14 1
  30   13   49 1
  31   13   50 1
  32   15   16 1
  33   15   51 1
  34   16   17 ar
  35   16   21 ar
  36   17   18 ar
  37   18   19 ar
  38   18   22 1
  39   19   20 ar
  40   19   23 1
  41   20   21 ar
  42   20   52 1
  43   22   24 1
  44   22   29 1
  45   23   24 ar
  46   23   26 ar
  47   24   25 ar
  48   25   28 ar
  49   25   53 1
  50   26   27 ar
  51   26   54 1
  52   27   28 ar
  53   27   55 1
  54   29   30 1
  55   29   34 1
  56   29   56 1
  57   30   31 1
  58   30   57 1
  59   30   58 1
  60   31   32 1
  61   31   59 1
  62   31   60 1
  63   32   33 1
  64   32   35 1
  65   32   61 1
  66   33   34 1
  67   33   62 1
  68   33   63 1
  69   34   64 1
  70   34   65 1
  71   35   66 1
  72   35   67 1
  73   35   68 1

#	End of record

