#	Name: ASD02039409
#	Creating user name:	WinNT
#	Creation time:	15. 06. 2019 20:18

#	Modifying user name:	WinNT
#	Modification time:	15. 06. 2019 20:18

#	Program:	/corina/corina34_cracker 3.40 0067  02.08.2006

@<TRIPOS>MOLECULE
ASD02039409
  51   54    0    0    0
SMALL
NO_CHARGES


@<TRIPOS>ATOM
   1 C1            -0.1167     0.6710    -0.9222 C.ar    
   2 C2             0.2087    -0.6485    -1.1796 C.ar    
   3 C3             0.9437     1.6258    -0.4375 C.3     
   4 N4             1.6851     2.1555    -1.5847 N.am    
   5 C5             1.1579     3.2996    -2.3325 C.3     
   6 C6             2.8521     1.5902    -1.9521 C.2     
   7 C7             3.3267     0.3722    -1.2726 C.2     
   8 C8             4.4197    -0.3687    -1.6157 C.2     
   9 N9             2.7596    -0.2140    -0.1873 N.2     
  10 C10            3.4532    -1.2682     0.1322 C.2     
  11 N11            4.4916    -1.3940    -0.7346 N.pl3   
  12 O12            3.5133     2.0855    -2.8447 O.2     
  13 C13            5.5067    -2.4502    -0.7192 C.3     
  14 C14           -0.7585    -1.5309    -1.6250 C.ar    
  15 C15           -2.0572    -1.0975    -1.8159 C.ar    
  16 C16           -2.3900     0.2331    -1.5574 C.ar    
  17 C17           -1.4091     1.1169    -1.1135 C.ar    
  18 F18           -3.0017    -1.9594    -2.2519 F       
  19 C19           -3.7818     0.7057    -1.7598 C.ar    
  20 C20           -4.4544     0.4419    -2.9563 C.ar    
  21 C21           -4.4414     1.4144    -0.7582 C.ar    
  22 N22           -5.6774     1.8342    -0.9366 N.ar    
  23 C23           -6.3356     1.6048    -2.0562 C.ar    
  24 C24           -5.7517     0.9038    -3.0958 C.ar    
  25 C25            2.1574     4.4605    -2.4677 C.3     
  26 C26            1.6517     4.6241    -3.9107 C.3     
  27 C27            1.2598     3.1380    -3.8584 C.3     
  28 C28           -6.5177     0.6504    -4.3685 C.3     
  29 F29           -7.7928     1.2167    -4.2660 F       
  30 F30           -5.8364     1.2273    -5.4456 F       
  31 F31           -6.6351    -0.7282    -4.5756 F       
  32 H32            1.2224    -0.9909    -1.0324 H       
  33 H33            0.4733     2.4478     0.1020 H       
  34 H34            1.6295     1.1003     0.2270 H       
  35 H35            0.1710     3.6108    -1.9900 H       
  36 H36            5.0975    -0.1746    -2.4338 H       
  37 H37            3.2394    -1.9337     0.9555 H       
  38 H38            5.1716    -3.2851    -1.3346 H       
  39 H39            6.4437    -2.0594    -1.1160 H       
  40 H40            5.6600    -2.7919     0.3044 H       
  41 H41           -0.4987    -2.5601    -1.8244 H       
  42 H42           -1.6610     2.1475    -0.9116 H       
  43 H43           -3.9739    -0.1081    -3.7520 H       
  44 H44           -3.9352     1.6214     0.1731 H       
  45 H45           -7.3479     1.9663    -2.1613 H       
  46 H46            1.9281     5.3110    -1.8257 H       
  47 H47            3.1999     4.1489    -2.4030 H       
  48 H48            0.7994     5.2975    -4.0011 H       
  49 H49            2.4426     4.8421    -4.6284 H       
  50 H50            2.0569     2.4648    -4.1739 H       
  51 H51            0.3059     2.9208    -4.3391 H       
@<TRIPOS>BOND
   1    1    2 ar
   2    1    3 1
   3    1   17 ar
   4    2   14 ar
   5    2   32 1
   6    3    4 1
   7    3   33 1
   8    3   34 1
   9    4    5 1
  10    4    6 am
  11    5   25 1
  12    5   27 1
  13    5   35 1
  14    6    7 1
  15    6   12 2
  16    7    8 2
  17    7    9 1
  18    8   11 1
  19    8   36 1
  20    9   10 2
  21   10   11 1
  22   10   37 1
  23   11   13 1
  24   13   38 1
  25   13   39 1
  26   13   40 1
  27   14   15 ar
  28   14   41 1
  29   15   16 ar
  30   15   18 1
  31   16   17 ar
  32   16   19 1
  33   17   42 1
  34   19   20 ar
  35   19   21 ar
  36   20   24 ar
  37   20   43 1
  38   21   22 ar
  39   21   44 1
  40   22   23 ar
  41   23   24 ar
  42   23   45 1
  43   24   28 1
  44   25   26 1
  45   25   46 1
  46   25   47 1
  47   26   27 1
  48   26   48 1
  49   26   49 1
  50   27   50 1
  51   27   51 1
  52   28   29 1
  53   28   30 1
  54   28   31 1

#	End of record

