#	Name: ASD01910107
#	Creating user name:	WinNT
#	Creation time:	15. 06. 2019 19:55

#	Modifying user name:	WinNT
#	Modification time:	15. 06. 2019 19:55

#	Program:	/corina/corina34_cracker 3.40 0067  02.08.2006

@<TRIPOS>MOLECULE
ASD01910107
  47   50    0    0    0
SMALL
NO_CHARGES


@<TRIPOS>ATOM
   1 C1             0.1107     0.4854     0.3995 C.ar    
   2 C2             0.3448    -0.8756     0.4483 C.ar    
   3 C3             1.6392    -1.3688     0.3866 C.ar    
   4 C4             2.7043    -0.4901     0.2749 C.ar    
   5 C5             2.4654     0.8984     0.2246 C.ar    
   6 C6             1.1669     1.3768     0.2877 C.ar    
   7 C7             4.1709    -0.6516     0.1861 C.2     
   8 N8             4.7314     0.5676     0.0914 N.am    
   9 C9             3.7950     1.5334     0.1071 C.2     
  10 C10            6.1721     0.8116    -0.0142 C.3     
  11 C11            6.5994     0.6820    -1.4535 C.ar    
  12 C12            6.4506     1.7553    -2.3219 C.ar    
  13 C13            6.8460     1.6326    -3.6478 C.ar    
  14 C14            7.3857     0.4444    -4.0990 C.ar    
  15 C15            7.5324    -0.6240    -3.2314 C.ar    
  16 C16            7.1447    -0.5026    -1.9087 C.ar    
  17 N17            5.9031     2.9579    -1.8623 N.am    
  18 C18            5.3568     3.8269    -2.7357 C.2     
  19 C19            4.8854     5.1442    -2.2683 C.ar    
  20 C20            5.0032     5.4951    -0.9215 C.ar    
  21 C21            4.5612     6.7276    -0.4913 C.ar    
  22 C22            4.0001     7.6211    -1.3887 C.ar    
  23 C23            3.8776     7.2870    -2.7231 C.ar    
  24 C24            4.3218     6.0534    -3.1744 C.ar    
  25 O25            5.2525     3.5250    -3.9091 O.2     
  26 O26            4.0068     2.7272     0.0368 O.2     
  27 O27            4.7697    -1.7081     0.1975 O.2     
  28 Cl28           8.2108    -2.1166    -3.8019 Cl      
  29 O29            4.2021     5.7239    -4.4849 O.3     
  30 C30            3.6078     6.6965    -5.3468 C.3     
  31 H31           -0.9023     0.8572     0.4443 H       
  32 H32           -0.4862    -1.5599     0.5354 H       
  33 H33            1.8163    -2.4335     0.4259 H       
  34 H34            0.9779     2.4394     0.2493 H       
  35 H35            6.3975     1.8166     0.3427 H       
  36 H36            6.7095     0.0819     0.5915 H       
  37 H37            6.7310     2.4657    -4.3254 H       
  38 H38            7.6932     0.3485    -5.1298 H       
  39 H39            7.2603    -1.3378    -1.2338 H       
  40 H40            5.9167     3.1663    -0.9151 H       
  41 H41            5.4397     4.8014    -0.2181 H       
  42 H42            4.6524     6.9979     0.5504 H       
  43 H43            3.6561     8.5846    -1.0428 H       
  44 H44            3.4387     7.9889    -3.4166 H       
  45 H45            3.5727     6.3073    -6.3643 H       
  46 H46            2.5957     6.9141    -5.0058 H       
  47 H47            4.2019     7.6102    -5.3276 H       
@<TRIPOS>BOND
   1    1    2 ar
   2    1    6 ar
   3    1   31 1
   4    2    3 ar
   5    2   32 1
   6    3    4 ar
   7    3   33 1
   8    4    5 ar
   9    4    7 1
  10    5    6 ar
  11    5    9 1
  12    6   34 1
  13    7    8 am
  14    7   27 2
  15    8    9 am
  16    8   10 1
  17    9   26 2
  18   10   11 1
  19   10   35 1
  20   10   36 1
  21   11   12 ar
  22   11   16 ar
  23   12   13 ar
  24   12   17 1
  25   13   14 ar
  26   13   37 1
  27   14   15 ar
  28   14   38 1
  29   15   16 ar
  30   15   28 1
  31   16   39 1
  32   17   18 am
  33   17   40 1
  34   18   19 1
  35   18   25 2
  36   19   20 ar
  37   19   24 ar
  38   20   21 ar
  39   20   41 1
  40   21   22 ar
  41   21   42 1
  42   22   23 ar
  43   22   43 1
  44   23   24 ar
  45   23   44 1
  46   24   29 1
  47   29   30 1
  48   30   45 1
  49   30   46 1
  50   30   47 1

#	End of record

