#	Name: ASD01913508
#	Creating user name:	WinNT
#	Creation time:	15. 06. 2019 20:01

#	Modifying user name:	WinNT
#	Modification time:	15. 06. 2019 20:01

#	Program:	/corina/corina34_cracker 3.40 0067  02.08.2006

@<TRIPOS>MOLECULE
ASD01913508
  38   40    0    0    0
SMALL
NO_CHARGES


@<TRIPOS>ATOM
   1 C1            -0.7183    -0.3780    -1.8952 C.ar    
   2 C2            -1.3409     0.0930    -0.7417 C.ar    
   3 C3            -1.4928     1.4692    -0.5896 C.ar    
   4 N4            -1.0436     2.2729    -1.5391 N.ar    
   5 C5            -0.4597     1.7875    -2.6164 C.ar    
   6 N6            -0.2970     0.4922    -2.7976 N.ar    
   7 C7            -1.6626    -2.1702     0.0541 C.ar    
   8 C8            -0.4040    -2.7590     0.0660 C.ar    
   9 N9            -0.2651    -4.0591    -0.1007 N.ar    
  10 C10           -1.3018    -4.8519    -0.2842 C.ar    
  11 C11           -2.5937    -4.3404    -0.3095 C.ar    
  12 C12           -2.7836    -2.9731    -0.1370 C.ar    
  13 N13           -3.6883    -5.1889    -0.5058 N.am    
  14 C14           -4.7788    -4.7417    -1.1595 C.2     
  15 N15           -1.8016    -0.7919     0.2372 N.pl3   
  16 C16           -5.9745    -5.6028    -1.2777 C.ar    
  17 O17           -4.7791    -3.6303    -1.6520 O.2     
  18 C18           -7.1053    -5.1427    -1.9541 C.ar    
  19 C19           -8.2183    -5.9512    -2.0616 C.ar    
  20 C20           -8.2157    -7.2155    -1.5004 C.ar    
  21 C21           -7.0972    -7.6787    -0.8278 C.ar    
  22 C22           -5.9752    -6.8818    -0.7183 C.ar    
  23 Cl23          -7.1038    -9.2667    -0.1265 Cl      
  24 C24           -2.4301    -0.2744     1.4552 C.3     
  25 H25           -0.5777    -1.4378    -2.0483 H       
  26 H26           -1.9706     1.8740     0.2903 H       
  27 H27           -0.1040     2.4713    -3.3729 H       
  28 H28            0.4713    -2.1437     0.2132 H       
  29 H29           -1.1454    -5.9122    -0.4170 H       
  30 H30           -3.7752    -2.5455    -0.1512 H       
  31 H31           -3.6625    -6.0990    -0.1714 H       
  32 H32           -7.1094    -4.1556    -2.3922 H       
  33 H33           -9.0937    -5.5959    -2.5848 H       
  34 H34           -9.0898    -7.8439    -1.5869 H       
  35 H35           -5.1033    -7.2436    -0.1937 H       
  36 H36           -3.5041    -0.1775     1.2968 H       
  37 H37           -2.2451    -0.9626     2.2800 H       
  38 H38           -2.0086     0.7018     1.6949 H       
@<TRIPOS>BOND
   1    1    2 ar
   2    1    6 ar
   3    1   25 1
   4    2    3 ar
   5    2   15 1
   6    3    4 ar
   7    3   26 1
   8    4    5 ar
   9    5    6 ar
  10    5   27 1
  11    7    8 ar
  12    7   12 ar
  13    7   15 1
  14    8    9 ar
  15    8   28 1
  16    9   10 ar
  17   10   11 ar
  18   10   29 1
  19   11   12 ar
  20   11   13 1
  21   12   30 1
  22   13   14 am
  23   13   31 1
  24   14   16 1
  25   14   17 2
  26   15   24 1
  27   16   18 ar
  28   16   22 ar
  29   18   19 ar
  30   18   32 1
  31   19   20 ar
  32   19   33 1
  33   20   21 ar
  34   20   34 1
  35   21   22 ar
  36   21   23 1
  37   22   35 1
  38   24   36 1
  39   24   37 1
  40   24   38 1

#	End of record

