#	Name: ASD01140258
#	Creating user name:	WinNT
#	Creation time:	15. 06. 2019 19:00

#	Modifying user name:	WinNT
#	Modification time:	15. 06. 2019 19:00

#	Program:	/corina/corina34_cracker 3.40 0067  02.08.2006

@<TRIPOS>MOLECULE
ASD01140258
  29   31    0    0    0
SMALL
NO_CHARGES


@<TRIPOS>ATOM
   1 C1            -0.0169     1.3933     0.0097 C.ar    
   2 C2             0.0021    -0.0041     0.0020 C.ar    
   3 C3             1.2180    -0.6764    -0.0138 C.ar    
   4 C4             2.4225     0.0369    -0.0221 C.ar    
   5 C5             2.3941     1.4311    -0.0129 C.ar    
   6 C6             1.1646     2.0957     0.0022 C.ar    
   7 C7            -1.2264    -0.7399     0.0109 C.1     
   8 C8             3.6733    -0.7408    -0.0427 C.2     
   9 C9             3.7366    -1.9510     0.7923 C.2     
  10 C10            4.8101    -2.7862     0.8945 C.2     
  11 C11            4.5973    -3.8447     1.7494 C.2     
  12 C12            3.3917    -3.8735     2.3259 C.2     
  13 S13            2.4434    -2.5472     1.8236 S.3     
  14 N14            4.7174    -0.4402    -0.7386 N.2     
  15 C15            4.7591     0.7454    -1.5939 C.3     
  16 C16            4.6327     1.9716    -0.7316 C.2     
  17 N17            3.5373     2.2145    -0.0155 N.am    
  18 O18            5.5533     2.7600    -0.6882 O.2     
  19 C19           -2.2335    -1.3431     0.0181 C.1     
  20 H20           -0.9592     1.9209     0.0170 H       
  21 H21            1.2339    -1.7563    -0.0193 H       
  22 H22            1.1425     3.1755     0.0075 H       
  23 H23            5.7348    -2.6330     0.3581 H       
  24 H24            5.3490    -4.5964     1.9397 H       
  25 H25            3.0633    -4.6328     3.0202 H       
  26 H26            5.7062     0.7738    -2.1326 H       
  27 H27            3.9334     0.7121    -2.3047 H       
  28 H28            3.5392     3.0029     0.5494 H       
  29 H29           -3.1343    -1.8827     0.0246 H       
@<TRIPOS>BOND
   1    1    2 ar
   2    1    6 ar
   3    1   20 1
   4    2    3 ar
   5    2    7 1
   6    3    4 ar
   7    3   21 1
   8    4    5 ar
   9    4    8 1
  10    5    6 ar
  11    5   17 1
  12    6   22 1
  13    7   19 3
  14    8    9 1
  15    8   14 2
  16    9   10 2
  17    9   13 1
  18   10   11 1
  19   10   23 1
  20   11   12 2
  21   11   24 1
  22   12   13 1
  23   12   25 1
  24   14   15 1
  25   15   16 1
  26   15   26 1
  27   15   27 1
  28   16   17 am
  29   16   18 2
  30   17   28 1
  31   19   29 1

#	End of record

