#	Name: ASD01911191
#	Creating user name:	WinNT
#	Creation time:	15. 06. 2019 19:57

#	Modifying user name:	WinNT
#	Modification time:	15. 06. 2019 19:57

#	Program:	/corina/corina34_cracker 3.40 0067  02.08.2006

@<TRIPOS>MOLECULE
ASD01911191
  42   45    0    0    0
SMALL
NO_CHARGES


@<TRIPOS>ATOM
   1 C1             0.9242     0.7438     0.1949 C.ar    
   2 N2             0.6918    -0.5474     0.1058 N.ar    
   3 C3             1.4832    -1.3507    -0.5948 C.ar    
   4 C4             2.5952    -0.8431    -1.2625 C.ar    
   5 C5             2.8646     0.5146    -1.1861 C.ar    
   6 C6             2.0123     1.3170    -0.4443 C.ar    
   7 C7             1.1814    -2.7992    -0.6665 C.2     
   8 N8             0.1071    -3.2964    -0.0221 N.am    
   9 C9            -0.2325    -4.6462    -0.1666 C.ar    
  10 C10           -1.5561    -5.0473    -0.0420 C.ar    
  11 C11           -1.8891    -6.3801    -0.1849 C.ar    
  12 C12           -0.9043    -7.3161    -0.4518 C.ar    
  13 C13            0.4165    -6.9183    -0.5760 C.ar    
  14 C14            0.7530    -5.5859    -0.4404 C.ar    
  15 C15           -2.6282    -4.0291     0.2494 C.3     
  16 N16           -3.0207    -3.3634    -0.9952 N.am    
  17 C17           -3.9215    -3.8504    -1.8675 C.2     
  18 C18           -4.0483    -2.9010    -2.9927 C.ar    
  19 C19           -3.1624    -1.8422    -2.7057 C.ar    
  20 C20           -2.5320    -2.1819    -1.4132 C.2     
  21 O21           -1.7050    -1.5104    -0.8297 O.2     
  22 O22           -4.5286    -4.8957    -1.7502 O.2     
  23 O23            1.9025    -3.5392    -1.3064 O.2     
  24 F24           -1.2322    -8.6193    -0.5908 F       
  25 C25           -4.8041    -2.8725    -4.1538 C.ar    
  26 C26           -4.6838    -1.8013    -5.0266 C.ar    
  27 C27           -3.8136    -0.7613    -4.7447 C.ar    
  28 C28           -3.0510    -0.7782    -3.5863 C.ar    
  29 Cl29          -3.6759     0.5714    -5.8486 Cl      
  30 Cl30          -5.6295    -1.7642    -6.4820 Cl      
  31 H31            0.2557     1.3669     0.7705 H       
  32 H32            3.2385    -1.4979    -1.8315 H       
  33 H33            3.7196     0.9373    -1.6928 H       
  34 H34            2.1941     2.3786    -0.3650 H       
  35 H35           -0.4306    -2.7187     0.5417 H       
  36 H36           -2.9184    -6.6925    -0.0881 H       
  37 H37            1.1832    -7.6500    -0.7834 H       
  38 H38            1.7830    -5.2761    -0.5374 H       
  39 H39           -3.4947    -4.5281     0.6834 H       
  40 H40           -2.2453    -3.2892     0.9521 H       
  41 H41           -5.4838    -3.6812    -4.3783 H       
  42 H42           -2.3737     0.0351    -3.3711 H       
@<TRIPOS>BOND
   1    1    2 ar
   2    1    6 ar
   3    1   31 1
   4    2    3 ar
   5    3    4 ar
   6    3    7 1
   7    4    5 ar
   8    4   32 1
   9    5    6 ar
  10    5   33 1
  11    6   34 1
  12    7    8 am
  13    7   23 2
  14    8    9 1
  15    8   35 1
  16    9   10 ar
  17    9   14 ar
  18   10   11 ar
  19   10   15 1
  20   11   12 ar
  21   11   36 1
  22   12   13 ar
  23   12   24 1
  24   13   14 ar
  25   13   37 1
  26   14   38 1
  27   15   16 1
  28   15   39 1
  29   15   40 1
  30   16   17 am
  31   16   20 am
  32   17   18 1
  33   17   22 2
  34   18   19 ar
  35   18   25 ar
  36   19   20 1
  37   19   28 ar
  38   20   21 2
  39   25   26 ar
  40   25   41 1
  41   26   27 ar
  42   26   30 1
  43   27   28 ar
  44   27   29 1
  45   28   42 1

#	End of record

