#	Name: ASD01140008
#	Creating user name:	WinNT
#	Creation time:	15. 06. 2019 18:59

#	Modifying user name:	WinNT
#	Modification time:	15. 06. 2019 18:59

#	Program:	/corina/corina34_cracker 3.40 0067  02.08.2006

@<TRIPOS>MOLECULE
ASD01140008
  44   49    0    0    0
SMALL
NO_CHARGES


@<TRIPOS>ATOM
   1 O1             2.8239     3.5708    -3.0056 O.3     
   2 C2             3.4388     4.2144    -4.1373 C.3     
   3 O3             3.5256     5.5955    -3.7393 O.3     
   4 C4             3.5915     5.5777    -2.3754 C.ar    
   5 C5             3.1597     4.3314    -1.9270 C.ar    
   6 C6             3.9920     6.5413    -1.4654 C.ar    
   7 C7             3.9672     6.2728    -0.1051 C.ar    
   8 C8             3.5447     5.0479     0.3493 C.ar    
   9 C9             3.1344     4.0601    -0.5542 C.ar    
  10 O10            2.8969     3.0973     1.5328 O.3     
  11 C11            3.4003     4.4477     1.7254 C.3     
  12 C12            2.7412     2.8711     0.2175 C.2     
  13 O13            2.3358     1.8324    -0.2654 O.2     
  14 C14            4.7601     4.4063     2.4257 C.3     
  15 N15            5.7316     3.7347     1.5568 N.3     
  16 C16            7.0825     3.8337     2.1322 C.3     
  17 C17            7.5605     5.2800     2.0011 C.3     
  18 C18            6.5093     6.2201     2.5335 C.ar    
  19 C19            6.8790     7.5242     2.8287 C.ar    
  20 C20            5.9477     8.4227     3.3167 C.ar    
  21 C21            4.6306     8.0126     3.5115 C.ar    
  22 C22            4.2681     6.7109     3.2167 C.ar    
  23 C23            5.2066     5.8130     2.7279 C.ar    
  24 O24            3.9119     9.0683     3.9937 O.3     
  25 C25            4.7040    10.2359     3.7065 C.3     
  26 O26            6.0537     9.7349     3.6775 O.3     
  27 C27            5.3562     2.3322     1.3329 C.3     
  28 H28            4.4326     3.8046    -4.3177 H       
  29 H29            2.8134     4.1098    -5.0239 H       
  30 H30            4.3257     7.5065    -1.8167 H       
  31 H31            4.2814     7.0292     0.5989 H       
  32 H32            2.6927     5.0302     2.3154 H       
  33 H33            4.6674     3.8506     3.3587 H       
  34 H34            7.0539     3.5514     3.1846 H       
  35 H35            7.7603     3.1734     1.5912 H       
  36 H36            8.4822     5.4092     2.5684 H       
  37 H37            7.7490     5.5050     0.9514 H       
  38 H38            7.9007     7.8397     2.6769 H       
  39 H39            3.2476     6.3912     3.3675 H       
  40 H40            4.4304    10.6557     2.7385 H       
  41 H41            4.5886    10.9802     4.4944 H       
  42 H42            4.6085     2.2781     0.5416 H       
  43 H43            6.2379     1.7625     1.0393 H       
  44 H44            4.9437     1.9153     2.2517 H       
@<TRIPOS>BOND
   1    1    2 1
   2    1    5 1
   3    2    3 1
   4    2   28 1
   5    2   29 1
   6    3    4 1
   7    4    5 ar
   8    4    6 ar
   9    5    9 ar
  10    6    7 ar
  11    6   30 1
  12    7    8 ar
  13    7   31 1
  14    8    9 ar
  15    8   11 1
  16    9   12 1
  17   10   12 1
  18   10   11 1
  19   11   14 1
  20   11   32 1
  21   12   13 2
  22   14   15 1
  23   14   23 1
  24   14   33 1
  25   15   16 1
  26   15   27 1
  27   16   17 1
  28   16   34 1
  29   16   35 1
  30   17   18 1
  31   17   36 1
  32   17   37 1
  33   18   19 ar
  34   18   23 ar
  35   19   20 ar
  36   19   38 1
  37   20   21 ar
  38   20   26 1
  39   21   22 ar
  40   21   24 1
  41   22   23 ar
  42   22   39 1
  43   24   25 1
  44   25   26 1
  45   25   40 1
  46   25   41 1
  47   27   42 1
  48   27   43 1
  49   27   44 1

#	End of record

