#	Name: ASD03430830
#	Creating user name:	WinNT
#	Creation time:	15. 06. 2019 20:41

#	Modifying user name:	WinNT
#	Modification time:	15. 06. 2019 20:41

#	Program:	/corina/corina34_cracker 3.40 0067  02.08.2006

@<TRIPOS>MOLECULE
ASD03430830
  64   69    0    0    0
SMALL
NO_CHARGES


@<TRIPOS>ATOM
   1 C1            -0.0166     1.3731     0.0096 C.ar    
   2 C2             0.0021    -0.0041     0.0020 C.ar    
   3 C3             1.2042    -0.6801    -0.0037 C.ar    
   4 C4             2.4064     0.0226     0.0069 C.ar    
   5 C5             2.3789     1.4121     0.0039 C.ar    
   6 C6             1.1699     2.0972     0.0022 C.ar    
   7 O7             3.4725    -0.8269     0.0325 O.3     
   8 C8             1.5601    -2.1417    -0.0330 C.3     
   9 C9             3.0504    -2.1336    -0.4017 C.3     
  10 C10            0.4369    -3.8650     1.0109 C.ar    
  11 C11            1.3140    -2.8180     1.2832 C.ar    
  12 C12            0.7430    -2.9080    -1.0329 C.2     
  13 N13            0.1236    -3.8915    -0.3499 N.am    
  14 O14            0.6571    -2.6857    -2.2222 O.2     
  15 C15            1.7632    -2.5964     2.5654 C.ar    
  16 C16            1.3449    -3.4168     3.5984 C.ar    
  17 C17            0.4739    -4.4591     3.3397 C.ar    
  18 C18            0.0205    -4.6852     2.0566 C.ar    
  19 C19           -0.7732    -4.8739    -0.9637 C.3     
  20 C20           -2.2076    -4.3423    -0.9361 C.3     
  21 C21           -2.3568    -3.0996    -1.8488 C.3     
  22 C22           -4.3293    -4.4307    -2.0989 C.3     
  23 C23           -3.1844    -5.3423    -1.6093 C.3     
  24 C24           -1.1514     2.3780     0.0353 C.3     
  25 C25           -0.4169     3.6802     0.4334 C.3     
  26 O26            0.9269     3.4375    -0.0164 O.3     
  27 N27           -3.7843    -3.0702    -2.2160 N.am    
  28 O28           -5.7813    -2.0809    -2.9068 O.3     
  29 C29           -6.4623    -0.8626    -3.3071 C.3     
  30 C30           -5.7869    -0.2866    -4.5533 C.3     
  31 C31           -7.9269    -1.1760    -3.6195 C.3     
  32 C32           -6.3907     0.1588    -2.1701 C.3     
  33 C33           -4.4755    -1.9772    -2.5954 C.2     
  34 O34           -3.9202    -0.8981    -2.6564 O.2     
  35 H35           -0.9264    -0.5557     0.0009 H       
  36 H36            3.3066     1.9651     0.0036 H       
  37 H37            3.1836    -2.2456    -1.4777 H       
  38 H38            3.5871    -2.9132     0.1390 H       
  39 H39            2.4432    -1.7815     2.7654 H       
  40 H40            1.6983    -3.2437     4.6042 H       
  41 H41            0.1473    -5.0993     4.1458 H       
  42 H42           -0.6595    -5.5014     1.8622 H       
  43 H43           -0.4699    -5.0476    -1.9962 H       
  44 H44           -0.7219    -5.8100    -0.4076 H       
  45 H45           -2.5191    -4.1175     0.0839 H       
  46 H46           -2.0864    -2.1946    -1.3048 H       
  47 H47           -1.7381    -3.2068    -2.7398 H       
  48 H48           -4.6854    -4.7723    -3.0708 H       
  49 H49           -5.1464    -4.4419    -1.3775 H       
  50 H50           -2.7044    -5.8437    -2.4497 H       
  51 H51           -3.5527    -6.0686    -0.8847 H       
  52 H52           -1.6088     2.4743    -0.9494 H       
  53 H53           -1.8955     2.1061     0.7839 H       
  54 H54           -0.8473     4.5392    -0.0813 H       
  55 H55           -0.4426     3.8232     1.5137 H       
  56 H56           -5.8379    -1.0143    -5.3633 H       
  57 H57           -6.2981     0.6280    -4.8537 H       
  58 H58           -4.7435    -0.0633    -4.3307 H       
  59 H59           -8.4080    -1.5863    -2.7317 H       
  60 H60           -8.4381    -0.2615    -3.9200 H       
  61 H61           -7.9779    -1.9037    -4.4295 H       
  62 H62           -5.3473     0.3821    -1.9475 H       
  63 H63           -6.9019     1.0734    -2.4706 H       
  64 H64           -6.8718    -0.2515    -1.2823 H       
@<TRIPOS>BOND
   1    1    2 ar
   2    1    6 ar
   3    1   24 1
   4    2    3 ar
   5    2   35 1
   6    3    4 ar
   7    3    8 1
   8    4    5 ar
   9    4    7 1
  10    5    6 ar
  11    5   36 1
  12    6   26 1
  13    7    9 1
  14    8    9 1
  15    8   11 1
  16    8   12 1
  17    9   37 1
  18    9   38 1
  19   10   11 ar
  20   10   13 1
  21   10   18 ar
  22   11   15 ar
  23   12   13 am
  24   12   14 2
  25   13   19 1
  26   15   16 ar
  27   15   39 1
  28   16   17 ar
  29   16   40 1
  30   17   18 ar
  31   17   41 1
  32   18   42 1
  33   19   20 1
  34   19   43 1
  35   19   44 1
  36   20   21 1
  37   20   23 1
  38   20   45 1
  39   21   27 1
  40   21   46 1
  41   21   47 1
  42   22   23 1
  43   22   27 1
  44   22   48 1
  45   22   49 1
  46   23   50 1
  47   23   51 1
  48   24   25 1
  49   24   52 1
  50   24   53 1
  51   25   26 1
  52   25   54 1
  53   25   55 1
  54   27   33 am
  55   28   29 1
  56   28   33 1
  57   29   30 1
  58   29   31 1
  59   29   32 1
  60   30   56 1
  61   30   57 1
  62   30   58 1
  63   31   59 1
  64   31   60 1
  65   31   61 1
  66   32   62 1
  67   32   63 1
  68   32   64 1
  69   33   34 2

#	End of record

