#	Name: ASD06020043
#	Creating user name:	WinNT
#	Creation time:	15. 06. 2019 21:04

#	Modifying user name:	WinNT
#	Modification time:	15. 06. 2019 21:04

#	Program:	/corina/corina34_cracker 3.40 0067  02.08.2006

@<TRIPOS>MOLECULE
ASD06020043
  40   43    0    0    0
SMALL
NO_CHARGES


@<TRIPOS>ATOM
   1 N1            -0.0167     1.3827     0.0096 N.pl3   
   2 C2             1.6751    -1.7552    -0.1802 C.ar    
   3 N3             1.4512    -0.4570    -0.1513 N.ar    
   4 C4             0.2152     0.0157    -0.0209 C.ar    
   5 C5            -0.8455    -0.8864     0.0853 C.ar    
   6 C6            -0.5627    -2.2377     0.0500 C.ar    
   7 N7             0.6961    -2.6317    -0.0824 N.ar    
   8 C8            -1.6716    -3.2520     0.1613 C.3     
   9 C9             1.0554     2.2707     0.0148 C.ar    
  10 C10            0.8193     3.6467    -0.0675 C.ar    
  11 C11            1.9014     4.5342    -0.0619 C.ar    
  12 C12            3.1988     3.9689     0.0294 C.ar    
  13 C13            3.3380     2.6190     0.1061 C.ar    
  14 N14            2.2910     1.8091     0.1028 N.ar    
  15 S15           -0.6658     4.5838    -0.1865 S.3     
  16 C16            0.2665     6.0751    -0.2192 C.2     
  17 N17            1.5314     5.8130    -0.1455 N.2     
  18 C18           -0.3112     7.4309    -0.3174 C.ar    
  19 C19            0.5258     8.5499    -0.3353 C.ar    
  20 C20           -0.0182     9.8140    -0.4271 C.ar    
  21 C21           -1.3957     9.9758    -0.5017 C.ar    
  22 C22           -2.2316     8.8668    -0.4838 C.ar    
  23 C23           -1.6963     7.5984    -0.3985 C.ar    
  24 O24           -1.9269    11.2224    -0.5919 O.3     
  25 C25           -3.3508    11.3171    -0.6653 C.3     
  26 Cl26          -2.7419     6.2127    -0.3846 Cl      
  27 Cl27           2.2476     8.3492    -0.2416 Cl      
  28 H28           -0.9260     1.7202     0.0234 H       
  29 H29            2.6889    -2.1107    -0.2916 H       
  30 H30           -1.8614    -0.5361     0.1927 H       
  31 H31           -2.0455    -3.4922    -0.8341 H       
  32 H32           -1.2902    -4.1570     0.6342 H       
  33 H33           -2.4813    -2.8406     0.7640 H       
  34 H34            4.0703     4.6067     0.0375 H       
  35 H35            4.3294     2.1961     0.1750 H       
  36 H36            0.6278    10.6794    -0.4407 H       
  37 H37           -3.3021     8.9975    -0.5413 H       
  38 H38           -3.6422    12.3652    -0.7337 H       
  39 H39           -3.7056    10.7831    -1.5468 H       
  40 H40           -3.7909    10.8753     0.2288 H       
@<TRIPOS>BOND
   1    1    4 1
   2    1    9 1
   3    1   28 1
   4    2    3 ar
   5    2    7 ar
   6    2   29 1
   7    3    4 ar
   8    4    5 ar
   9    5    6 ar
  10    5   30 1
  11    6    7 ar
  12    6    8 1
  13    8   31 1
  14    8   32 1
  15    8   33 1
  16    9   10 ar
  17    9   14 ar
  18   10   11 ar
  19   10   15 1
  20   11   12 ar
  21   11   17 1
  22   12   13 ar
  23   12   34 1
  24   13   14 ar
  25   13   35 1
  26   15   16 1
  27   16   17 2
  28   16   18 1
  29   18   19 ar
  30   18   23 ar
  31   19   20 ar
  32   19   27 1
  33   20   21 ar
  34   20   36 1
  35   21   22 ar
  36   21   24 1
  37   22   23 ar
  38   22   37 1
  39   23   26 1
  40   24   25 1
  41   25   38 1
  42   25   39 1
  43   25   40 1

#	End of record

