#	Name: ASD00170566
#	Creating user name:	WinNT
#	Creation time:	15. 06. 2019 18:32

#	Modifying user name:	WinNT
#	Modification time:	15. 06. 2019 18:32

#	Program:	/corina/corina34_cracker 3.40 0067  02.08.2006

@<TRIPOS>MOLECULE
ASD00170566
  51   55    0    0    0
SMALL
NO_CHARGES


@<TRIPOS>ATOM
   1 N1             0.1115     1.1361     0.2011 N.3     
   2 C2             0.3572    -0.3112     0.2561 C.3     
   3 C3             1.1949    -0.6328     1.4668 C.2     
   4 C4             2.4765    -0.9584     1.4008 C.2     
   5 S5             3.1283    -1.2651     3.0005 S.3     
   6 C6             1.6340    -0.9439     3.7548 C.2     
   7 C7             0.6811    -0.6109     2.8202 C.2     
   8 C8            -0.7036    -0.2804     3.1564 C.2     
   9 O9            -1.0199     0.8769     3.3652 O.2     
  10 C10           -1.7194    -1.3517     3.2429 C.ar    
  11 C11           -3.0619    -1.0293     3.4492 C.ar    
  12 C12           -4.0047    -2.0326     3.5284 C.ar    
  13 C13           -3.6218    -3.3579     3.4043 C.ar    
  14 C14           -2.2911    -3.6839     3.1999 C.ar    
  15 C15           -1.3403    -2.6890     3.1127 C.ar    
  16 N16            1.4122    -1.0040     5.1157 N.pl3   
  17 Cl17          -4.8142    -4.6155     3.5057 Cl      
  18 C18            1.3927     1.8917     0.0319 C.3     
  19 C19            2.0524     1.2456    -1.2256 C.3     
  20 N20            1.2230     1.6944    -2.3698 N.3     
  21 C21            0.1180     2.5158    -1.7821 C.3     
  22 C22           -0.7287     1.4883    -0.9688 C.3     
  23 C23            0.8701     3.2302    -0.6025 C.3     
  24 C24            0.7133     0.6026    -3.0776 C.ar    
  25 C25           -0.4766     0.7251    -3.7835 C.ar    
  26 C26           -0.9780    -0.3557    -4.4820 C.ar    
  27 C27           -0.2960    -1.5597    -4.4792 C.ar    
  28 C28            0.8895    -1.6847    -3.7765 C.ar    
  29 C29            1.3987    -0.6055    -3.0812 C.ar    
  30 Cl30          -0.9291    -2.9161    -5.3584 Cl      
  31 H31           -0.5942    -0.8390     0.3219 H       
  32 H32            0.8850    -0.6246    -0.6446 H       
  33 H33            3.0445    -1.0265     0.4847 H       
  34 H34           -3.3616     0.0037     3.5469 H       
  35 H35           -5.0436    -1.7845     3.6880 H       
  36 H36           -1.9984    -4.7190     3.1042 H       
  37 H37           -0.3031    -2.9442     2.9530 H       
  38 H38            2.1133    -1.3180     5.7079 H       
  39 H39            0.5552    -0.7323     5.4799 H       
  40 H40            2.0224     1.9735     0.9178 H       
  41 H41            3.0772     1.5992    -1.3393 H       
  42 H42            2.0327     0.1587    -1.1471 H       
  43 H43           -0.4317     3.1494    -2.4780 H       
  44 H44           -0.9295     0.6023    -1.5711 H       
  45 H45           -1.6631     1.9435    -0.6404 H       
  46 H46            0.1891     3.7646     0.0598 H       
  47 H47            1.6820     3.8669    -0.9540 H       
  48 H48           -1.0095     1.6645    -3.7857 H       
  49 H49           -1.9034    -0.2611    -5.0307 H       
  50 H50            1.4194    -2.6258    -3.7755 H       
  51 H51            2.3242    -0.7035    -2.5333 H       
@<TRIPOS>BOND
   1    1    2 1
   2    1   18 1
   3    1   22 1
   4    2    3 1
   5    2   31 1
   6    2   32 1
   7    3    4 2
   8    3    7 1
   9    4    5 1
  10    4   33 1
  11    5    6 1
  12    6    7 2
  13    6   16 1
  14    7    8 1
  15    8    9 2
  16    8   10 1
  17   10   11 ar
  18   10   15 ar
  19   11   12 ar
  20   11   34 1
  21   12   13 ar
  22   12   35 1
  23   13   14 ar
  24   13   17 1
  25   14   15 ar
  26   14   36 1
  27   15   37 1
  28   16   38 1
  29   16   39 1
  30   18   19 1
  31   18   23 1
  32   18   40 1
  33   19   20 1
  34   19   41 1
  35   19   42 1
  36   20   21 1
  37   20   24 1
  38   21   22 1
  39   21   23 1
  40   21   43 1
  41   22   44 1
  42   22   45 1
  43   23   46 1
  44   23   47 1
  45   24   25 ar
  46   24   29 ar
  47   25   26 ar
  48   25   48 1
  49   26   27 ar
  50   26   49 1
  51   27   28 ar
  52   27   30 1
  53   28   29 ar
  54   28   50 1
  55   29   51 1

#	End of record

