#	Name: ASD00843480
#	Creating user name:	WinNT
#	Creation time:	15. 06. 2019 18:46

#	Modifying user name:	WinNT
#	Modification time:	15. 06. 2019 18:46

#	Program:	/corina/corina34_cracker 3.40 0067  02.08.2006

@<TRIPOS>MOLECULE
ASD00843480
  97  102    0    0    0
SMALL
NO_CHARGES


@<TRIPOS>ATOM
   1 F1             5.6092    -2.3681    -2.1892 F       
   2 N2             0.7574     1.1419    -0.6230 N.ar    
   3 C3             0.9635    -0.1481    -0.8288 C.ar    
   4 C4             0.8562    -1.0575     0.2158 C.ar    
   5 C5             0.5299    -0.5965     1.4790 C.ar    
   6 C6             0.3215     0.7650     1.6535 C.ar    
   7 C7             0.4450     1.6115     0.5701 C.ar    
   8 C8             1.0915    -2.5267    -0.0237 C.3     
   9 C9             0.7850    -3.3235     1.2265 C.2     
  10 C10            0.2410    -3.0203    -1.1958 C.3     
  11 C11           -1.2053    -2.6781    -0.9461 C.2     
  12 N12           -2.1530    -3.0815    -1.8154 N.am    
  13 O13           -1.5164    -2.0398     0.0370 O.2     
  14 C14           -3.5499    -2.6573    -1.6500 C.3     
  15 C15           -4.4445    -3.9008    -1.6359 C.3     
  16 C16           -4.1835    -4.7263    -2.8978 C.3     
  17 C17           -2.7228    -5.1824    -2.9182 C.3     
  18 C18           -1.8077    -3.9488    -2.9500 C.3     
  19 C19           -5.1001    -5.9514    -2.9041 C.3     
  20 C20           -6.5621    -5.4967    -2.8855 C.3     
  21 C21           -7.4738    -6.7240    -2.9533 C.3     
  22 N22           -7.1923    -7.4771    -4.1821 N.3     
  23 C23           -5.8072    -7.9645    -4.2007 C.3     
  24 C24           -4.8457    -6.7743    -4.1701 C.3     
  25 C25           -8.1425    -8.5848    -4.3500 C.3     
  26 O26           -0.2869    -3.3967     1.7893 O.2     
  27 N27            1.9233    -3.9350     1.5950 N.am    
  28 C28            2.5570    -2.7934    -0.2799 C.ar    
  29 C29            2.9822    -3.6448     0.7322 C.ar    
  30 C30            3.4291    -2.3656    -1.2554 C.ar    
  31 C31            4.7497    -2.7856    -1.2342 C.ar    
  32 C32            5.1854    -3.6349    -0.2297 C.ar    
  33 C33            4.3106    -4.0638     0.7487 C.ar    
  34 Cl34           6.8391    -4.1621    -0.2013 Cl      
  35 C35            1.6895    -6.5592     2.3911 C.ar    
  36 C36            0.4179    -6.8740     1.9352 C.ar    
  37 C37            2.6706    -7.5314     2.4244 C.ar    
  38 C38            2.3859    -8.8171     2.0033 C.ar    
  39 C39            1.1189    -9.1335     1.5484 C.ar    
  40 C40            0.1345    -8.1652     1.5136 C.ar    
  41 H41            0.8990   -10.1386     1.2200 H       
  42 O42           -0.5490    -5.9196     1.9019 O.3     
  43 C43           -1.8349    -6.3153     1.4206 C.3     
  44 C44           -2.7843    -5.1160     1.4568 C.3     
  45 C45           -7.8976    -9.2671    -5.6974 C.3     
  46 C46           -7.9474    -9.5996    -3.2217 C.3     
  47 S47            2.0554    -4.9189     2.9205 S.o2    
  48 O48            3.4277    -4.9130     3.2894 O.2     
  49 O49            1.0108    -4.5408     3.8066 O.2     
  50 O50            1.2824    -0.5875    -2.0722 O.3     
  51 C51            1.2874     0.3824    -3.1217 C.3     
  52 C52            1.7698    -0.2714    -4.4181 C.3     
  53 F53            3.0277    -0.8471    -4.2100 F       
  54 F54            0.8619    -1.2624    -4.8065 F       
  55 H55            0.4392    -1.2801     2.3101 H       
  56 H56            0.0651     1.1575     2.6264 H       
  57 H57            0.2842     2.6714     0.7006 H       
  58 H58            0.5748    -2.5389    -2.1150 H       
  59 H59            0.3473    -4.1008    -1.2922 H       
  60 H60           -3.6590    -2.1179    -0.7091 H       
  61 H61           -3.8361    -2.0106    -2.4795 H       
  62 H62           -4.2185    -4.5015    -0.7549 H       
  63 H63           -5.4907    -3.5960    -1.6104 H       
  64 H64           -4.3860    -4.1171    -3.7787 H       
  65 H65           -2.5130    -5.7711    -2.0251 H       
  66 H66           -2.5436    -5.7898    -3.8053 H       
  67 H67           -1.9532    -3.4100    -3.8863 H       
  68 H68           -0.7675    -4.2632    -2.8648 H       
  69 H69           -4.8974    -6.5624    -2.0245 H       
  70 H70           -6.7604    -4.9465    -1.9657 H       
  71 H71           -6.7539    -4.8530    -3.7439 H       
  72 H72           -7.2912    -7.3604    -2.0874 H       
  73 H73           -8.5154    -6.4030    -2.9547 H       
  74 H74           -5.6324    -8.5951    -3.3289 H       
  75 H75           -5.6384    -8.5445    -5.1080 H       
  76 H76           -5.0106    -6.1507    -5.0487 H       
  77 H77           -3.8178    -7.1368    -4.1681 H       
  78 H78           -9.1610    -8.1978    -4.3185 H       
  79 H79            3.0846    -1.7040    -2.0364 H       
  80 H80            4.6571    -4.7258     1.5285 H       
  81 H81            3.6609    -7.2868     2.7792 H       
  82 H82            3.1544    -9.5755     2.0294 H       
  83 H83           -0.8550    -8.4130     1.1589 H       
  84 H84           -1.7442    -6.6761     0.3960 H       
  85 H85           -2.2303    -7.1108     2.0522 H       
  86 H86           -2.8750    -4.7552     2.4813 H       
  87 H87           -2.3889    -4.3205     0.8251 H       
  88 H88           -3.7652    -5.4178     1.0896 H       
  89 H89           -8.6026   -10.0890    -5.8220 H       
  90 H90           -8.0366    -8.5441    -6.5013 H       
  91 H91           -6.8791    -9.6541    -5.7289 H       
  92 H92           -8.1218    -9.1135    -2.2617 H       
  93 H93           -8.6524   -10.4215    -3.3462 H       
  94 H94           -6.9289    -9.9866    -3.2531 H       
  95 H95            0.2783     0.7694    -3.2635 H       
  96 H96            1.9565     1.2010    -2.8567 H       
  97 H97            1.8407     0.4835    -5.2012 H       
@<TRIPOS>BOND
   1    1   31 1
   2    2    3 ar
   3    2    7 ar
   4    3    4 ar
   5    3   50 1
   6    4    5 ar
   7    4    8 1
   8    5    6 ar
   9    5   55 1
  10    6    7 ar
  11    6   56 1
  12    7   57 1
  13    8    9 1
  14    8   10 1
  15    8   28 1
  16    9   26 2
  17    9   27 am
  18   10   11 1
  19   10   58 1
  20   10   59 1
  21   11   12 am
  22   11   13 2
  23   12   14 1
  24   12   18 1
  25   14   15 1
  26   14   60 1
  27   14   61 1
  28   15   16 1
  29   15   62 1
  30   15   63 1
  31   16   17 1
  32   16   19 1
  33   16   64 1
  34   17   18 1
  35   17   65 1
  36   17   66 1
  37   18   67 1
  38   18   68 1
  39   19   20 1
  40   19   24 1
  41   19   69 1
  42   20   21 1
  43   20   70 1
  44   20   71 1
  45   21   22 1
  46   21   72 1
  47   21   73 1
  48   22   23 1
  49   22   25 1
  50   23   24 1
  51   23   74 1
  52   23   75 1
  53   24   76 1
  54   24   77 1
  55   25   45 1
  56   25   46 1
  57   25   78 1
  58   27   47 am
  59   27   29 1
  60   28   29 ar
  61   28   30 ar
  62   29   33 ar
  63   30   31 ar
  64   30   79 1
  65   31   32 ar
  66   32   33 ar
  67   32   34 1
  68   33   80 1
  69   35   36 ar
  70   35   37 ar
  71   35   47 1
  72   36   42 1
  73   36   40 ar
  74   37   38 ar
  75   37   81 1
  76   38   39 ar
  77   38   82 1
  78   39   40 ar
  79   39   41 1
  80   40   83 1
  81   42   43 1
  82   43   44 1
  83   43   84 1
  84   43   85 1
  85   44   86 1
  86   44   87 1
  87   44   88 1
  88   45   89 1
  89   45   90 1
  90   45   91 1
  91   46   92 1
  92   46   93 1
  93   46   94 1
  94   47   48 2
  95   47   49 2
  96   50   51 1
  97   51   52 1
  98   51   95 1
  99   51   96 1
 100   52   53 1
 101   52   54 1
 102   52   97 1

#	End of record

