#	Name: ASD03731583
#	Creating user name:	WinNT
#	Creation time:	15. 06. 2019 20:46

#	Modifying user name:	WinNT
#	Modification time:	15. 06. 2019 20:46

#	Program:	/corina/corina34_cracker 3.40 0067  02.08.2006

@<TRIPOS>MOLECULE
ASD03731583
  36   37    0    0    0
SMALL
NO_CHARGES


@<TRIPOS>ATOM
   1 C1             0.3758     1.0941     1.9780 C.2     
   2 C2             0.2921    -0.2822     1.4515 C.ar    
   3 C3             1.3748    -0.8357     0.7623 C.ar    
   4 C4             1.2927    -2.1209     0.2728 C.ar    
   5 C5             0.1338    -2.8669     0.4636 C.ar    
   6 C6            -0.9442    -2.3192     1.1485 C.ar    
   7 C7            -0.8674    -1.0370     1.6457 C.ar    
   8 O8             1.3875     1.7478     1.8125 O.2     
   9 N9            -0.6712     1.6281     2.6375 N.am    
  10 S10           -0.5773     3.1723     3.2283 S.o2    
  11 O11           -1.8283     3.3788     3.8699 O.2     
  12 O12            0.6367     3.1918     3.9666 O.2     
  13 C13           -0.4402     4.2149     1.7502 C.3     
  14 O14            0.0558    -4.1323    -0.0206 O.3     
  15 C15           -1.1302    -4.7864     0.0914 C.ar    
  16 C16           -2.0846    -4.6708    -0.9094 C.ar    
  17 C17           -3.2890    -5.3367    -0.7939 C.ar    
  18 C18           -3.5447    -6.1184     0.3191 C.ar    
  19 C19           -2.5947    -6.2346     1.3182 C.ar    
  20 C20           -1.3861    -5.5750     1.2036 C.ar    
  21 C21           -4.3258    -5.2116    -1.8804 C.3     
  22 F22           -3.8421    -4.3756    -2.8925 F       
  23 F23           -4.5996    -6.4765    -2.4116 F       
  24 F24           -5.4981    -4.6665    -1.3458 F       
  25 Cl25          -5.0596    -6.9540     0.4622 Cl      
  26 Cl26           2.6364    -2.8101    -0.5835 Cl      
  27 H27            2.2742    -0.2567     0.6134 H       
  28 H28           -1.8423    -2.9012     1.2943 H       
  29 H29           -1.7044    -0.6139     2.1813 H       
  30 H30           -1.4798     1.1080     2.7661 H       
  31 H31           -1.3196     4.0723     1.1222 H       
  32 H32           -0.3726     5.2611     2.0486 H       
  33 H33            0.4539     3.9378     1.1918 H       
  34 H34           -1.8857    -4.0603    -1.7778 H       
  35 H35           -2.7962    -6.8448     2.1862 H       
  36 H36           -0.6431    -5.6695     1.9816 H       
@<TRIPOS>BOND
   1    1    2 1
   2    1    8 2
   3    1    9 am
   4    2    3 ar
   5    2    7 ar
   6    3    4 ar
   7    3   27 1
   8    4    5 ar
   9    4   26 1
  10    5    6 ar
  11    5   14 1
  12    6    7 ar
  13    6   28 1
  14    7   29 1
  15    9   10 am
  16    9   30 1
  17   10   11 2
  18   10   12 2
  19   10   13 1
  20   13   31 1
  21   13   32 1
  22   13   33 1
  23   14   15 1
  24   15   16 ar
  25   15   20 ar
  26   16   17 ar
  27   16   34 1
  28   17   18 ar
  29   17   21 1
  30   18   19 ar
  31   18   25 1
  32   19   20 ar
  33   19   35 1
  34   20   36 1
  35   21   22 1
  36   21   23 1
  37   21   24 1

#	End of record

