#	Name: ASD01920036
#	Creating user name:	WinNT
#	Creation time:	15. 06. 2019 20:11

#	Modifying user name:	WinNT
#	Modification time:	15. 06. 2019 20:11

#	Program:	/corina/corina34_cracker 3.40 0067  02.08.2006

@<TRIPOS>MOLECULE
ASD01920036
  53   55    0    0    0
SMALL
NO_CHARGES


@<TRIPOS>ATOM
   1 N1            -0.1166     1.4219    -0.8658 N.pl3   
   2 C2            -0.1056     0.0624    -0.9868 C.2     
   3 C3            -1.3509    -0.4070    -0.8022 C.2     
   4 C4            -2.2004     0.7637    -0.5457 C.2     
   5 C5            -1.3594     1.8594    -0.5963 C.2     
   6 C6             1.1100    -0.7784    -1.2812 C.3     
   7 C7            -1.7664     3.2963    -0.3940 C.3     
   8 C8             1.0607     2.2827    -1.0038 C.3     
   9 C9            -3.6414     0.7682    -0.2842 C.2     
  10 O10           -4.2191     1.8172    -0.0881 O.2     
  11 C11           -4.4067    -0.5297    -0.2586 C.3     
  12 S12           -6.1554    -0.1939     0.0876 S.3     
  13 C13           -6.8770    -1.8013     0.0783 C.ar    
  14 C14           -8.2383    -1.9532     0.3118 C.ar    
  15 C15           -8.8033    -3.2127     0.3045 C.ar    
  16 C16           -8.0113    -4.3278     0.0643 C.ar    
  17 C17           -6.6508    -4.1764    -0.1691 C.ar    
  18 C18           -6.0861    -2.9168    -0.1681 C.ar    
  19 N19           -8.5851    -5.6064     0.0579 N.am    
  20 C20           -9.8313    -5.7833    -0.4240 C.2     
  21 O21          -10.4881    -4.8254    -0.7735 O.2     
  22 C22          -10.4088    -7.1714    -0.5284 C.3     
  23 C23            1.2139     2.7066    -2.4659 C.3     
  24 O24            0.1583     3.6194    -2.8379 O.3     
  25 C25            2.5181     3.5119    -2.6585 C.3     
  26 C26            2.1403     4.5970    -3.6915 C.3     
  27 C27            0.6525     4.3190    -4.0008 C.3     
  28 H28           -1.6650    -1.4398    -0.8360 H       
  29 H29            1.5860    -1.0693    -0.3448 H       
  30 H30            0.8099    -1.6716    -1.8291 H       
  31 H31            1.8132    -0.2023    -1.8827 H       
  32 H32           -1.6856     3.5515     0.6627 H       
  33 H33           -1.1111     3.9448    -0.9755 H       
  34 H34           -2.7967     3.4318    -0.7228 H       
  35 H35            0.9388     3.1679    -0.3797 H       
  36 H36            1.9496     1.7358    -0.6891 H       
  37 H37           -4.3162    -1.0240    -1.2259 H       
  38 H38           -3.9999    -1.1760     0.5192 H       
  39 H39           -8.8542    -1.0861     0.4993 H       
  40 H40           -9.8614    -3.3309     0.4860 H       
  41 H41           -6.0351    -5.0440    -0.3555 H       
  42 H42           -5.0280    -2.7991    -0.3499 H       
  43 H43           -8.0854    -6.3640     0.4003 H       
  44 H44          -10.9280    -7.4195     0.3973 H       
  45 H45          -11.1113    -7.2109    -1.3609 H       
  46 H46           -9.6047    -7.8877    -0.6973 H       
  47 H47            1.2084     1.8321    -3.1164 H       
  48 H48            2.8264     3.9700    -1.7188 H       
  49 H49            3.3084     2.8710    -3.0495 H       
  50 H50            2.2618     5.5916    -3.2624 H       
  51 H51            2.7438     4.4926    -4.5932 H       
  52 H52            0.5600     3.6928    -4.8881 H       
  53 H53            0.1121     5.2556    -4.1383 H       
@<TRIPOS>BOND
   1    1    2 1
   2    1    8 1
   3    1    5 1
   4    2    3 2
   5    2    6 1
   6    3    4 1
   7    3   28 1
   8    4    5 2
   9    4    9 1
  10    5    7 1
  11    6   29 1
  12    6   30 1
  13    6   31 1
  14    7   32 1
  15    7   33 1
  16    7   34 1
  17    8   23 1
  18    8   35 1
  19    8   36 1
  20    9   10 2
  21    9   11 1
  22   11   12 1
  23   11   37 1
  24   11   38 1
  25   12   13 1
  26   13   14 ar
  27   13   18 ar
  28   14   15 ar
  29   14   39 1
  30   15   16 ar
  31   15   40 1
  32   16   17 ar
  33   16   19 1
  34   17   18 ar
  35   17   41 1
  36   18   42 1
  37   19   20 am
  38   19   43 1
  39   20   21 2
  40   20   22 1
  41   22   44 1
  42   22   45 1
  43   22   46 1
  44   23   25 1
  45   23   24 1
  46   23   47 1
  47   24   27 1
  48   25   26 1
  49   25   48 1
  50   25   49 1
  51   26   27 1
  52   26   50 1
  53   26   51 1
  54   27   52 1
  55   27   53 1

#	End of record

