#	Name: ASD01730080
#	Creating user name:	WinNT
#	Creation time:	15. 06. 2019 19:23

#	Modifying user name:	WinNT
#	Modification time:	15. 06. 2019 19:23

#	Program:	/corina/corina34_cracker 3.40 0067  02.08.2006

@<TRIPOS>MOLECULE
ASD01730080
  34   34    0    0    0
SMALL
NO_CHARGES


@<TRIPOS>ATOM
   1 C1            -0.1644     1.5021    -0.5475 C.2     
   2 C2            -0.1399    -0.0047    -0.5438 C.3     
   3 C3             1.1247    -0.4959    -1.2513 C.3     
   4 C4            -0.1461    -0.5113     0.8998 C.3     
   5 C5            -1.3733    -0.5366    -1.2763 C.3     
   6 O6             0.7405     2.1221    -1.0649 O.2     
   7 N7            -1.1946     2.1607     0.0195 N.am    
   8 C8            -1.1628     3.5499     0.1193 C.ar    
   9 C9            -2.3525     4.2918     0.0189 C.ar    
  10 C10           -2.3076     5.6870     0.1208 C.ar    
  11 C11           -1.0970     6.3232     0.3189 C.ar    
  12 C12            0.0756     5.5829     0.4168 C.ar    
  13 C13            0.0427     4.2061     0.3240 C.ar    
  14 O14           -1.0525     7.6786     0.4180 O.3     
  15 C15            0.2311     8.2723     0.6225 C.3     
  16 F16            1.0717     7.9458    -0.4471 F       
  17 F17            0.0948     9.6625     0.7009 F       
  18 F18            0.7836     7.7900     1.8138 F       
  19 C19           -3.6338     3.6077    -0.1920 C.2     
  20 O20           -4.6581     4.2516    -0.2781 O.2     
  21 H21            2.0034    -0.1169    -0.7294 H       
  22 H22            1.1424    -1.5857    -1.2486 H       
  23 H23            1.1291    -0.1349    -2.2798 H       
  24 H24           -1.0470    -0.1614     1.4039 H       
  25 H25           -0.1283    -1.6012     0.9025 H       
  26 H26            0.7327    -0.1324     1.4217 H       
  27 H27           -1.3689    -0.1756    -2.3048 H       
  28 H28           -1.3556    -1.6264    -1.2737 H       
  29 H29           -2.2742    -0.1866    -0.7723 H       
  30 H30           -1.9581     1.6675     0.3580 H       
  31 H31           -3.2167     6.2649     0.0444 H       
  32 H32            1.0177     6.0878     0.5713 H       
  33 H33            0.9578     3.6386     0.4060 H       
  34 H34           -3.6645     2.5310    -0.2705 H       
@<TRIPOS>BOND
   1    1    2 1
   2    1    6 2
   3    1    7 am
   4    2    3 1
   5    2    4 1
   6    2    5 1
   7    3   21 1
   8    3   22 1
   9    3   23 1
  10    4   24 1
  11    4   25 1
  12    4   26 1
  13    5   27 1
  14    5   28 1
  15    5   29 1
  16    7    8 1
  17    7   30 1
  18    8    9 ar
  19    8   13 ar
  20    9   10 ar
  21    9   19 1
  22   10   11 ar
  23   10   31 1
  24   11   12 ar
  25   11   14 1
  26   12   13 ar
  27   12   32 1
  28   13   33 1
  29   14   15 1
  30   15   16 1
  31   15   17 1
  32   15   18 1
  33   19   20 2
  34   19   34 1

#	End of record

