#	Name: ASD07300825
#	Creating user name:	WinNT
#	Creation time:	15. 06. 2019 21:10

#	Modifying user name:	WinNT
#	Modification time:	15. 06. 2019 21:10

#	Program:	/corina/corina34_cracker 3.40 0067  02.08.2006

@<TRIPOS>MOLECULE
ASD07300825
  57   61    0    0    0
SMALL
NO_CHARGES


@<TRIPOS>ATOM
   1 C1            -0.0034     1.3925     0.2414 C.2     
   2 C2             0.0021    -0.0041     0.0020 C.2     
   3 N3             1.1924     2.0682     0.2265 N.pl3   
   4 N4             1.1445    -0.6201    -0.2278 N.2     
   5 C5             2.3036     0.0470    -0.2402 C.2     
   6 C6             2.3502     1.3752    -0.0186 C.2     
   7 N7            -0.9664     2.2611     0.5003 N.2     
   8 C8            -0.4399     3.4745     0.6479 C.2     
   9 C9             0.9142     3.3817     0.4819 C.2     
  10 N10           -1.1860    -0.7178     0.0100 N.pl3   
  11 C11           -2.4813    -0.0311     0.1360 C.3     
  12 C12           -3.4038    -0.5300    -0.9821 C.3     
  13 O13           -3.4381    -1.9591    -0.9615 O.3     
  14 C14           -2.1747    -2.5786    -1.2141 C.3     
  15 C15           -1.1896    -2.1841    -0.1135 C.3     
  16 N16            3.6712     5.6703     1.0582 N.pl3   
  17 N17            2.8222     6.4631     0.2768 N.2     
  18 C18            1.7581     5.7656    -0.0207 C.2     
  19 C19            1.8916     4.4906     0.5659 C.2     
  20 C20            3.0871     4.4651     1.2263 C.2     
  21 C21            4.9723     6.0765     1.5953 C.3     
  22 C22            5.8658     6.5643     0.4532 C.3     
  23 C23            7.2637     6.8705     0.9944 C.3     
  24 C24            5.9611     5.4775    -0.6196 C.3     
  25 O25            5.3058     7.7488    -0.1172 O.3     
  26 C26            6.0676     8.2894    -1.1987 C.3     
  27 C27           -1.2059     4.7364     0.9508 C.3     
  28 C28           -2.2758     5.1714    -0.0527 C.3     
  29 C29           -2.6881     4.5956     1.3036 C.3     
  30 H30            3.2209    -0.4898    -0.4320 H       
  31 H31            3.2977     1.8932    -0.0336 H       
  32 H32           -2.9242    -0.2578     1.1059 H       
  33 H33           -2.3372     1.0450     0.0402 H       
  34 H34           -4.4093    -0.1394    -0.8259 H       
  35 H35           -3.0254    -0.1888    -1.9457 H       
  36 H36           -2.2959    -3.6617    -1.2248 H       
  37 H37           -1.7918    -2.2448    -2.1785 H       
  38 H38           -0.1904    -2.5330    -0.3744 H       
  39 H39           -1.5001    -2.6313     0.8308 H       
  40 H40            0.9216     6.1065    -0.6127 H       
  41 H41            3.4916     3.6319     1.7818 H       
  42 H42            4.8322     6.8819     2.3164 H       
  43 H43            5.4437     5.2259     2.0876 H       
  44 H44            7.6909     5.9670     1.4295 H       
  45 H45            7.9003     7.2180     0.1807 H       
  46 H46            7.1959     7.6448     1.7586 H       
  47 H47            4.9652     5.2593    -1.0052 H       
  48 H48            6.5977     5.8249    -1.4333 H       
  49 H49            6.3883     4.5740    -0.1845 H       
  50 H50            7.0677     8.5434    -0.8473 H       
  51 H51            6.1396     7.5509    -1.9972 H       
  52 H52            5.5765     9.1862    -1.5764 H       
  53 H53           -0.6405     5.5201     1.4550 H       
  54 H54           -2.4145     6.2413    -0.2084 H       
  55 H55           -2.4256     4.5449    -0.9320 H       
  56 H56           -3.1090     3.5903     1.3166 H       
  57 H57           -3.0979     5.2867     2.0401 H       
@<TRIPOS>BOND
   1    1    2 1
   2    1    3 1
   3    1    7 2
   4    2    4 2
   5    2   10 1
   6    3    6 1
   7    3    9 1
   8    4    5 1
   9    5    6 2
  10    5   30 1
  11    6   31 1
  12    7    8 1
  13    8    9 2
  14    8   27 1
  15    9   19 1
  16   10   11 1
  17   10   15 1
  18   11   12 1
  19   11   32 1
  20   11   33 1
  21   12   13 1
  22   12   34 1
  23   12   35 1
  24   13   14 1
  25   14   15 1
  26   14   36 1
  27   14   37 1
  28   15   38 1
  29   15   39 1
  30   16   17 1
  31   16   20 1
  32   16   21 1
  33   17   18 2
  34   18   19 1
  35   18   40 1
  36   19   20 2
  37   20   41 1
  38   21   22 1
  39   21   42 1
  40   21   43 1
  41   22   23 1
  42   22   24 1
  43   22   25 1
  44   23   44 1
  45   23   45 1
  46   23   46 1
  47   24   47 1
  48   24   48 1
  49   24   49 1
  50   25   26 1
  51   26   50 1
  52   26   51 1
  53   26   52 1
  54   27   28 1
  55   27   29 1
  56   27   53 1
  57   28   29 1
  58   28   54 1
  59   28   55 1
  60   29   56 1
  61   29   57 1

#	End of record

