#	Name: ASD02500771
#	Creating user name:	WinNT
#	Creation time:	15. 06. 2019 20:23

#	Modifying user name:	WinNT
#	Modification time:	15. 06. 2019 20:23

#	Program:	/corina/corina34_cracker 3.40 0067  02.08.2006

@<TRIPOS>MOLECULE
ASD02500771
  53   55    0    0    0
SMALL
NO_CHARGES


@<TRIPOS>ATOM
   1 O1            -0.0164     1.3569     0.0095 O.3     
   2 C2             0.0021    -0.0041     0.0020 C.ar    
   3 C3             1.1496    -0.6980    -0.3644 C.ar    
   4 O4             2.2825    -0.0325    -0.7194 O.3     
   5 C5             2.1357     1.3497    -1.0629 C.3     
   6 C6             1.2537     2.0177     0.0009 C.3     
   7 C7             1.1451    -2.0846    -0.3687 C.ar    
   8 C8             0.0032    -2.7746    -0.0070 C.ar    
   9 C9            -1.1371    -2.0847     0.3592 C.ar    
  10 C10           -1.1397    -0.7023     0.3645 C.ar    
  11 S11            0.0010    -4.5366    -0.0137 S.o2    
  12 O12           -1.3555    -4.9357    -0.1538 O.2     
  13 O13            1.0256    -4.9357    -0.9138 O.2     
  14 N14            0.4814    -5.0330     1.4914 N.am    
  15 C15           -0.3527    -4.7410     2.6599 C.3     
  16 C16            0.1005    -5.6048     3.8386 C.3     
  17 C17           -0.7706    -5.2999     5.0589 C.3     
  18 C18           -0.3174    -6.1637     6.2376 C.3     
  19 C19           -1.1884    -5.8588     7.4580 C.3     
  20 S20           -1.2531    -6.3183    10.1224 S.o2    
  21 O21           -0.6988    -7.3126    10.9730 O.2     
  22 O22           -1.0202    -4.9276    10.2978 O.2     
  23 N23           -0.7545    -6.6859     8.5866 N.am    
  24 C24           -3.0004    -6.5401    10.1706 C.ar    
  25 C25           -3.5332    -7.7709    10.5132 C.ar    
  26 C26           -4.9066    -7.9441    10.5507 C.ar    
  27 C27           -5.7452    -6.8886    10.2462 C.ar    
  28 C28           -5.2144    -5.6593     9.9039 C.ar    
  29 C29           -3.8414    -5.4822     9.8713 C.ar    
  30 F30           -3.3229    -4.2788     9.5426 F       
  31 F31           -2.7136    -8.8029    10.8105 F       
  32 H32            3.1142     1.8295    -1.0831 H       
  33 H33            1.6625     1.4372    -2.0409 H       
  34 H34            1.1182     3.0714    -0.2428 H       
  35 H35            1.7236     1.9238     0.9800 H       
  36 H36            2.0346    -2.6260    -0.6551 H       
  37 H37           -2.0275    -2.6266     0.6418 H       
  38 H38           -2.0319    -0.1657     0.6516 H       
  39 H39            1.3150    -5.5171     1.5993 H       
  40 H40           -0.2544    -3.6877     2.9224 H       
  41 H41           -1.3944    -4.9618     2.4270 H       
  42 H42            0.0022    -6.6582     3.5761 H       
  43 H43            1.1422    -5.3841     4.0715 H       
  44 H44           -0.6723    -4.2466     5.3214 H       
  45 H45           -1.8123    -5.5207     4.8260 H       
  46 H46           -0.4156    -7.2170     5.9751 H       
  47 H47            0.7243    -5.9429     6.4705 H       
  48 H48           -1.0902    -4.8054     7.7205 H       
  49 H49           -2.2301    -6.0795     7.2251 H       
  50 H50           -0.1751    -7.4488     8.4343 H       
  51 H51           -5.3224    -8.9043    10.8177 H       
  52 H52           -6.8162    -7.0247    10.2754 H       
  53 H53           -5.8707    -4.8353     9.6658 H       
@<TRIPOS>BOND
   1    1    2 1
   2    1    6 1
   3    2    3 ar
   4    2   10 ar
   5    3    4 1
   6    3    7 ar
   7    4    5 1
   8    5    6 1
   9    5   32 1
  10    5   33 1
  11    6   34 1
  12    6   35 1
  13    7    8 ar
  14    7   36 1
  15    8    9 ar
  16    8   11 1
  17    9   10 ar
  18    9   37 1
  19   10   38 1
  20   11   12 2
  21   11   13 2
  22   11   14 am
  23   14   15 1
  24   14   39 1
  25   15   16 1
  26   15   40 1
  27   15   41 1
  28   16   17 1
  29   16   42 1
  30   16   43 1
  31   17   18 1
  32   17   44 1
  33   17   45 1
  34   18   19 1
  35   18   46 1
  36   18   47 1
  37   19   23 1
  38   19   48 1
  39   19   49 1
  40   20   21 2
  41   20   22 2
  42   20   23 am
  43   20   24 1
  44   23   50 1
  45   24   25 ar
  46   24   29 ar
  47   25   26 ar
  48   25   31 1
  49   26   27 ar
  50   26   51 1
  51   27   28 ar
  52   27   52 1
  53   28   29 ar
  54   28   53 1
  55   29   30 1

#	End of record

