#	Name: ASD01380010
#	Creating user name:	WinNT
#	Creation time:	15. 06. 2019 19:16

#	Modifying user name:	WinNT
#	Modification time:	15. 06. 2019 19:16

#	Program:	/corina/corina34_cracker 3.40 0067  02.08.2006

@<TRIPOS>MOLECULE
ASD01380010
  62   65    0    0    0
SMALL
NO_CHARGES


@<TRIPOS>ATOM
   1 O1            -0.0173     1.4248     0.0099 O.3     
   2 C2             0.0021    -0.0041     0.0020 C.3     
   3 C3            -1.4364    -0.5762     0.0127 C.3     
   4 O4            -2.3719     0.4104     0.5223 O.3     
   5 C5            -2.6168     0.3942     1.8475 C.2     
   6 O6            -2.0636    -0.4222     2.5576 O.2     
   7 C7            -3.5549     1.3659     2.4350 C.ar    
   8 C8            -4.1936     2.3067     1.6225 C.ar    
   9 C9            -5.0699     3.2128     2.1784 C.ar    
  10 C10           -5.7573     4.2262     1.3001 C.3     
  11 C11           -5.3230     3.1970     3.5408 C.ar    
  12 C12           -4.7003     2.2749     4.3570 C.ar    
  13 C13           -3.8178     1.3492     3.8145 C.ar    
  14 N14           -3.1904     0.4201     4.6334 N.2     
  15 C15           -1.7312    -0.8846    -1.4681 C.3     
  16 O16           -0.5826    -0.4719    -2.2274 O.3     
  17 C17            0.5556    -0.5423    -1.3419 C.3     
  18 N18            1.6427     0.3096    -1.8304 N.pl3   
  19 C19            1.5137     1.3884    -2.6532 C.2     
  20 N20            2.6842     1.9099    -2.8830 N.2     
  21 C21            3.6282     1.1989    -2.2237 C.2     
  22 C22            2.9721     0.1713    -1.5391 C.2     
  23 N23            3.6834    -0.6895    -0.7976 N.2     
  24 C24            4.9795    -0.5881    -0.7011 C.2     
  25 N25            5.6776     0.3851    -1.3387 N.am    
  26 C26            5.0370     1.2967    -2.1042 C.2     
  27 O27            5.6550     2.1747    -2.6815 O.2     
  28 C28           -2.9653    -0.1048    -1.9262 C.3     
  29 O29           -3.2997    -0.4847    -3.2626 O.3     
  30 P30           -4.5484     0.1390    -4.0650 P.3     
  31 O31           -4.4365     1.6147    -4.0820 O.2     
  32 O32           -4.5469    -0.4168    -5.5761 O.3     
  33 P33           -5.2165     0.0832    -6.9523 P.3     
  34 O34           -5.0147     1.5421    -7.0976 O.2     
  35 O35           -4.5287    -0.6799    -8.1919 O.3     
  36 P36           -4.4246    -0.3812    -9.7706 P.3     
  37 S37           -3.5663     1.2511   -10.0387 S.2     
  38 O38           -3.5832    -1.5536   -10.4843 O.3     
  39 O39           -5.9036    -0.3202   -10.4038 O.3     
  40 O40           -6.7934    -0.2410    -6.9307 O.3     
  41 O41           -5.9203    -0.2868    -3.3379 O.3     
  42 H42            0.8606     1.8301     0.0037 H       
  43 H43            0.5796    -0.3880     0.8429 H       
  44 H44           -1.4804    -1.4867     0.6102 H       
  45 H45           -4.0001     2.3236     0.5601 H       
  46 H46           -6.6985     3.8135     0.9370 H       
  47 H47           -5.9551     5.1308     1.8753 H       
  48 H48           -5.1154     4.4675     0.4528 H       
  49 H49           -6.0120     3.9114     3.9667 H       
  50 H50           -4.9029     2.2697     5.4178 H       
  51 H51           -3.3677     0.4161     5.5871 H       
  52 H52           -1.8967    -1.9541    -1.5981 H       
  53 H53            0.8937    -1.5728    -1.2326 H       
  54 H54            0.5806     1.7552    -3.0548 H       
  55 H55            5.5152    -1.3022    -0.0933 H       
  56 H56            6.6418     0.4288    -1.2423 H       
  57 H57           -3.8024    -0.3281    -1.2648 H       
  58 H58           -2.7523     0.9637    -1.8947 H       
  59 H59           -3.4803    -1.4387   -11.4389 H       
  60 H60           -6.4096    -1.1378   -10.3009 H       
  61 H61           -7.0004    -1.1810    -6.8376 H       
  62 H62           -6.0602    -1.2425    -3.2906 H       
@<TRIPOS>BOND
   1    1    2 1
   2    1   42 1
   3    2    3 1
   4    2   17 1
   5    2   43 1
   6    3    4 1
   7    3   15 1
   8    3   44 1
   9    4    5 1
  10    5    6 2
  11    5    7 1
  12    7    8 ar
  13    7   13 ar
  14    8    9 ar
  15    8   45 1
  16    9   10 1
  17    9   11 ar
  18   10   46 1
  19   10   47 1
  20   10   48 1
  21   11   12 ar
  22   11   49 1
  23   12   13 ar
  24   12   50 1
  25   13   14 1
  26   14   51 1
  27   15   16 1
  28   15   28 1
  29   15   52 1
  30   16   17 1
  31   17   18 1
  32   17   53 1
  33   18   19 1
  34   18   22 1
  35   19   20 2
  36   19   54 1
  37   20   21 1
  38   21   22 2
  39   21   26 1
  40   22   23 1
  41   23   24 2
  42   24   25 1
  43   24   55 1
  44   25   26 am
  45   25   56 1
  46   26   27 2
  47   28   29 1
  48   28   57 1
  49   28   58 1
  50   29   30 1
  51   30   31 2
  52   30   32 1
  53   30   41 1
  54   32   33 1
  55   33   34 2
  56   33   35 1
  57   33   40 1
  58   35   36 1
  59   36   37 2
  60   36   38 1
  61   36   39 1
  62   38   59 1
  63   39   60 1
  64   40   61 1
  65   41   62 1

#	End of record

