#	Name: ASD07301064
#	Creating user name:	WinNT
#	Creation time:	15. 06. 2019 21:10

#	Modifying user name:	WinNT
#	Modification time:	15. 06. 2019 21:10

#	Program:	/corina/corina34_cracker 3.40 0067  02.08.2006

@<TRIPOS>MOLECULE
ASD07301064
  33   34    0    0    0
SMALL
NO_CHARGES


@<TRIPOS>ATOM
   1 C1            -1.3940     0.5437     0.1922 C.3     
   2 C2            -0.0025    -0.0037     0.0051 C.2     
   3 C3             0.6922    -0.6357     1.1275 C.2     
   4 C4             0.6404    -2.0886     1.2957 C.2     
   5 C5             1.3557    -2.7394     2.4514 C.3     
   6 O6             0.5421     0.0795    -1.0763 O.2     
   7 O7             0.0213    -2.7694     0.5043 O.2     
   8 N8             1.3676     0.1069     1.9908 N.2     
   9 N9             1.5003     1.3736     1.7865 N.pl3   
  10 C10            2.2988     2.1373     2.6374 C.ar    
  11 C11            2.4422     3.5028     2.4174 C.ar    
  12 C12            3.2323     4.2576     3.2595 C.ar    
  13 C13            3.8847     3.6537     4.3270 C.ar    
  14 C14            3.7420     2.2897     4.5474 C.ar    
  15 C15            2.9476     1.5346     3.7095 C.ar    
  16 N16            4.6878     4.4212     5.1819 N.pl3   
  17 N17            4.9319     5.8015     5.0942 N.2     
  18 C18            5.7303     6.1079     6.0834 C.2     
  19 N19            5.9987     5.0052     6.7817 N.2     
  20 C20            5.3744     3.9828     6.2549 C.2     
  21 H21           -1.3978     1.2509     1.0216 H       
  22 H22           -1.7104     1.0510    -0.7193 H       
  23 H23           -2.0803    -0.2747     0.4094 H       
  24 H24            1.8519    -1.9745     3.0488 H       
  25 H25            0.6349    -3.2733     3.0707 H       
  26 H26            2.0978    -3.4412     2.0707 H       
  27 H27            1.0447     1.7950     1.0410 H       
  28 H28            1.9353     3.9724     1.5873 H       
  29 H29            3.3440     5.3181     3.0886 H       
  30 H30            4.2495     1.8209     5.3775 H       
  31 H31            2.8329     0.4749     3.8838 H       
  32 H32            6.1108     7.0953     6.2996 H       
  33 H33            5.4060     2.9654     6.6158 H       
@<TRIPOS>BOND
   1    1    2 1
   2    1   21 1
   3    1   22 1
   4    1   23 1
   5    2    3 1
   6    2    6 2
   7    3    4 1
   8    3    8 2
   9    4    5 1
  10    4    7 2
  11    5   24 1
  12    5   25 1
  13    5   26 1
  14    8    9 1
  15    9   10 1
  16    9   27 1
  17   10   11 ar
  18   10   15 ar
  19   11   12 ar
  20   11   28 1
  21   12   13 ar
  22   12   29 1
  23   13   14 ar
  24   13   16 1
  25   14   15 ar
  26   14   30 1
  27   15   31 1
  28   16   17 1
  29   16   20 1
  30   17   18 2
  31   18   19 1
  32   18   32 1
  33   19   20 2
  34   20   33 1

#	End of record

