#	Name: ASD02500132
#	Creating user name:	WinNT
#	Creation time:	15. 06. 2019 20:22

#	Modifying user name:	WinNT
#	Modification time:	15. 06. 2019 20:22

#	Program:	/corina/corina34_cracker 3.40 0067  02.08.2006

@<TRIPOS>MOLECULE
ASD02500132
  60   64    0    0    0
SMALL
NO_CHARGES


@<TRIPOS>ATOM
   1 N1            -3.9862     5.7112    -1.7292 N.ar    
   2 C2            -5.1651     6.2593    -1.8962 C.ar    
   3 C3            -6.1885     6.0955    -0.9649 C.ar    
   4 C4            -5.9755     5.3469     0.1573 C.ar    
   5 C5            -4.7083     4.7593     0.3331 C.ar    
   6 C6            -4.4153     3.9771     1.4615 C.ar    
   7 C7            -3.1772     3.4262     1.5952 C.ar    
   8 C8            -2.1962     3.6287     0.6269 C.ar    
   9 C9            -2.4461     4.3813    -0.4793 C.ar    
  10 C10           -3.7121     4.9667    -0.6531 C.ar    
  11 S11           -1.1870     4.6218    -1.6882 S.o2    
  12 O12           -1.1561     6.0155    -1.9636 O.2     
  13 O13           -0.0533     3.8933    -1.2372 O.2     
  14 N14           -1.6954     3.8814    -3.0795 N.am    
  15 C15           -1.8669     2.5019    -3.1102 C.ar    
  16 C16           -3.0201     1.9575    -3.6686 C.ar    
  17 C17           -3.1927     0.5927    -3.7005 C.ar    
  18 C18           -2.2085    -0.2474    -3.1715 C.ar    
  19 C19           -1.0516     0.3023    -2.6115 C.ar    
  20 C20           -0.8823     1.6678    -2.5877 C.ar    
  21 C21           -2.3906    -1.7110    -3.2036 C.2     
  22 O22           -1.4610    -2.4327    -3.5093 O.2     
  23 N23           -3.5874    -2.2481    -2.8943 N.am    
  24 C24           -3.7590    -3.7064    -2.8316 C.3     
  25 C25           -4.3212    -4.0749    -1.4531 C.3     
  26 N26           -5.4778    -3.2128    -1.1718 N.am    
  27 C27           -5.3061    -1.7546    -1.2345 C.3     
  28 C28           -4.7425    -1.3860    -2.6076 C.3     
  29 C29           -6.6745    -3.7500    -0.8625 C.2     
  30 C30           -7.8019    -2.8730    -0.4807 C.ar    
  31 C31           -9.1045    -3.2007    -0.8602 C.ar    
  32 C32          -10.1521    -2.3783    -0.5003 C.ar    
  33 C33           -9.9137    -1.2307     0.2349 C.ar    
  34 C34           -8.6248    -0.9002     0.6143 C.ar    
  35 C35           -7.5690    -1.7169     0.2658 C.ar    
  36 O36           -6.8270    -4.9554    -0.8973 O.2     
  37 H37           -5.3480     6.8541    -2.7790 H       
  38 H38           -7.1492     6.5604    -1.1302 H       
  39 H39           -6.7573     5.2097     0.8896 H       
  40 H40           -5.1673     3.8136     2.2192 H       
  41 H41           -2.9526     2.8246     2.4636 H       
  42 H42           -1.2217     3.1816     0.7563 H       
  43 H43           -1.8736     4.4101    -3.8730 H       
  44 H44           -3.7803     2.6071    -4.0768 H       
  45 H45           -4.0878     0.1709    -4.1334 H       
  46 H46           -0.2896    -0.3441    -2.2017 H       
  47 H47            0.0134     2.0929    -2.1595 H       
  48 H48           -4.4542    -4.0266    -3.6077 H       
  49 H49           -2.7953    -4.1947    -2.9761 H       
  50 H50           -4.6345    -5.1189    -1.4529 H       
  51 H51           -3.5559    -3.9199    -0.6926 H       
  52 H52           -6.2698    -1.2662    -1.0900 H       
  53 H53           -4.6109    -1.4344    -0.4584 H       
  54 H54           -4.4282    -0.3423    -2.6041 H       
  55 H55           -5.5093    -1.5372    -3.3673 H       
  56 H56           -9.2919    -4.0958    -1.4347 H       
  57 H57          -11.1605    -2.6307    -0.7934 H       
  58 H58          -10.7372    -0.5899     0.5135 H       
  59 H59           -8.4455    -0.0029     1.1881 H       
  60 H60           -6.5640    -1.4601     0.5664 H       
@<TRIPOS>BOND
   1    1    2 ar
   2    1   10 ar
   3    2    3 ar
   4    2   37 1
   5    3    4 ar
   6    3   38 1
   7    4    5 ar
   8    4   39 1
   9    5    6 ar
  10    5   10 ar
  11    6    7 ar
  12    6   40 1
  13    7    8 ar
  14    7   41 1
  15    8    9 ar
  16    8   42 1
  17    9   10 ar
  18    9   11 1
  19   11   12 2
  20   11   13 2
  21   11   14 am
  22   14   15 1
  23   14   43 1
  24   15   16 ar
  25   15   20 ar
  26   16   17 ar
  27   16   44 1
  28   17   18 ar
  29   17   45 1
  30   18   19 ar
  31   18   21 1
  32   19   20 ar
  33   19   46 1
  34   20   47 1
  35   21   22 2
  36   21   23 am
  37   23   24 1
  38   23   28 1
  39   24   25 1
  40   24   48 1
  41   24   49 1
  42   25   26 1
  43   25   50 1
  44   25   51 1
  45   26   27 1
  46   26   29 am
  47   27   28 1
  48   27   52 1
  49   27   53 1
  50   28   54 1
  51   28   55 1
  52   29   30 1
  53   29   36 2
  54   30   31 ar
  55   30   35 ar
  56   31   32 ar
  57   31   56 1
  58   32   33 ar
  59   32   57 1
  60   33   34 ar
  61   33   58 1
  62   34   35 ar
  63   34   59 1
  64   35   60 1

#	End of record

