#	Name: ASD01810311
#	Creating user name:	WinNT
#	Creation time:	15. 06. 2019 19:24

#	Modifying user name:	WinNT
#	Modification time:	15. 06. 2019 19:24

#	Program:	/corina/corina34_cracker 3.40 0067  02.08.2006

@<TRIPOS>MOLECULE
ASD01810311
  43   46    0    0    0
SMALL
NO_CHARGES


@<TRIPOS>ATOM
   1 C1             0.1038     1.4771     0.3904 C.ar    
   2 C2             0.0849     0.0899     0.3823 C.ar    
   3 C3             1.2535    -0.6295     0.2403 C.ar    
   4 C4             2.4697     0.0388     0.1031 C.ar    
   5 C5             2.4840     1.4435     0.1118 C.ar    
   6 C6             1.2941     2.1570     0.2563 C.ar    
   7 N7             3.6451    -0.6678    -0.0386 N.pl3   
   8 C8             4.8373    -0.0734    -0.1722 C.2     
   9 C9             4.9780     1.2999    -0.1780 C.2     
  10 C10            3.7768     2.1382    -0.0343 C.2     
  11 O11            3.8478     3.3547    -0.0335 O.2     
  12 C12            3.5871    -2.1316    -0.0427 C.3     
  13 C13            3.4445    -2.6248    -1.4595 C.ar    
  14 C14            4.5665    -2.7659    -2.2562 C.ar    
  15 C15            4.4418    -3.2176    -3.5544 C.ar    
  16 C16            3.1828    -3.5316    -4.0621 C.ar    
  17 C17            2.0560    -3.3875    -3.2552 C.ar    
  18 C18            2.1929    -2.9400    -1.9568 C.ar    
  19 C19            3.0424    -4.0172    -5.4573 C.ar    
  20 C20            6.3048     1.9145    -0.3260 C.2     
  21 O21            6.4292     3.2568    -0.3301 O.3     
  22 O22            7.2900     1.2124    -0.4447 O.2     
  23 F23            1.2196    -1.9801     0.2347 F       
  24 C24            4.1630    -4.1641    -6.2717 C.ar    
  25 N25            4.0398    -4.5955    -7.5104 N.ar    
  26 C26            2.8659    -4.9032    -8.0268 C.ar    
  27 C27            1.7062    -4.7840    -7.2824 C.ar    
  28 C28            1.7845    -4.3402    -5.9736 C.ar    
  29 H29           -0.8198     2.0265     0.4979 H       
  30 H30           -0.8544    -0.4323     0.4887 H       
  31 H31            1.3061     3.2369     0.2625 H       
  32 H32            5.7183    -0.6888    -0.2787 H       
  33 H33            4.5030    -2.5327     0.3912 H       
  34 H34            2.7311    -2.4629     0.5452 H       
  35 H35            5.5418    -2.5219    -1.8617 H       
  36 H36            5.3184    -3.3272    -4.1756 H       
  37 H37            1.0778    -3.6291    -3.6439 H       
  38 H38            1.3202    -2.8280    -1.3305 H       
  39 H39            7.3220     3.6146    -0.4301 H       
  40 H40            5.1415    -3.9217    -5.8843 H       
  41 H41            2.8091    -5.2535    -9.0468 H       
  42 H42            0.7505    -5.0383    -7.7163 H       
  43 H43            0.8951    -4.2377    -5.3696 H       
@<TRIPOS>BOND
   1    1    2 ar
   2    1    6 ar
   3    1   29 1
   4    2    3 ar
   5    2   30 1
   6    3    4 ar
   7    3   23 1
   8    4    5 ar
   9    4    7 1
  10    5    6 ar
  11    5   10 1
  12    6   31 1
  13    7    8 1
  14    7   12 1
  15    8    9 2
  16    8   32 1
  17    9   10 1
  18    9   20 1
  19   10   11 2
  20   12   13 1
  21   12   33 1
  22   12   34 1
  23   13   14 ar
  24   13   18 ar
  25   14   15 ar
  26   14   35 1
  27   15   16 ar
  28   15   36 1
  29   16   17 ar
  30   16   19 1
  31   17   18 ar
  32   17   37 1
  33   18   38 1
  34   19   24 ar
  35   19   28 ar
  36   20   21 1
  37   20   22 2
  38   21   39 1
  39   24   25 ar
  40   24   40 1
  41   25   26 ar
  42   26   27 ar
  43   26   41 1
  44   27   28 ar
  45   27   42 1
  46   28   43 1

#	End of record

