#	Name: ASD00071072
#	Creating user name:	WinNT
#	Creation time:	15. 06. 2019 18:30

#	Modifying user name:	WinNT
#	Modification time:	15. 06. 2019 18:30

#	Program:	/corina/corina34_cracker 3.40 0067  02.08.2006

@<TRIPOS>MOLECULE
ASD00071072
  40   41    0    0    0
SMALL
NO_CHARGES


@<TRIPOS>ATOM
   1 N1            -0.0178     1.4648     0.0101 N.3     
   2 C2             0.0021    -0.0041     0.0020 C.3     
   3 C3            -1.4117    -0.5257     0.0127 C.ar    
   4 C4            -2.0746    -0.7596    -1.1822 C.ar    
   5 C5            -3.3765    -1.2399    -1.1697 C.ar    
   6 C6            -4.0121    -1.4850     0.0324 C.ar    
   7 C7            -3.3536    -1.2527     1.2247 C.ar    
   8 C8            -2.0497    -0.7778     1.2175 C.ar    
   9 O9            -1.4006    -0.5548     2.3904 O.3     
  10 C10           -2.1189    -0.8366     3.5931 C.3     
  11 O11           -1.4501    -0.5183    -2.3648 O.3     
  12 C12           -2.1933    -0.7818    -3.5566 C.3     
  13 C13            1.3463     2.0098    -0.0000 C.3     
  14 C14            1.2856     3.5156     0.0087 C.ar    
  15 C15            1.0603     4.1957     1.1990 C.ar    
  16 C16            1.0051     5.5835     1.2025 C.ar    
  17 C17            1.1743     6.2828     0.0235 C.ar    
  18 C18            1.3984     5.6028    -1.1594 C.ar    
  19 C19            1.4596     4.2211    -1.1655 C.ar    
  20 N20            0.8892     3.4854     2.3894 N.pl3   
  21 H21           -0.5563     1.8234    -0.7642 H       
  22 H22            0.5123    -0.3556    -0.8948 H       
  23 H23            0.5293    -0.3651     0.8851 H       
  24 H24           -3.8934    -1.4219    -2.1004 H       
  25 H25           -5.0255    -1.8585     0.0401 H       
  26 H26           -3.8526    -1.4450     2.1630 H       
  27 H27           -1.4875    -0.6157     4.4537 H       
  28 H28           -3.0166    -0.2196     3.6332 H       
  29 H29           -2.4007    -1.8894     3.6099 H       
  30 H30           -3.0916    -0.1647    -3.5685 H       
  31 H31           -1.5799    -0.5475    -4.4266 H       
  32 H32           -2.4751    -1.8344    -3.5837 H       
  33 H33            1.8828     1.6627     0.8830 H       
  34 H34            1.8658     1.6723    -0.8968 H       
  35 H35            0.8297     6.1152     2.1261 H       
  36 H36            1.1312     7.3619     0.0254 H       
  37 H37            1.5304     6.1521    -2.0799 H       
  38 H38            1.6392     3.6932    -2.0904 H       
  39 H39            0.9276     2.5161     2.3857 H       
  40 H40            0.7319     3.9613     3.2199 H       
@<TRIPOS>BOND
   1    1    2 1
   2    1   13 1
   3    1   21 1
   4    2    3 1
   5    2   22 1
   6    2   23 1
   7    3    4 ar
   8    3    8 ar
   9    4    5 ar
  10    4   11 1
  11    5    6 ar
  12    5   24 1
  13    6    7 ar
  14    6   25 1
  15    7    8 ar
  16    7   26 1
  17    8    9 1
  18    9   10 1
  19   10   27 1
  20   10   28 1
  21   10   29 1
  22   11   12 1
  23   12   30 1
  24   12   31 1
  25   12   32 1
  26   13   14 1
  27   13   33 1
  28   13   34 1
  29   14   15 ar
  30   14   19 ar
  31   15   16 ar
  32   15   20 1
  33   16   17 ar
  34   16   35 1
  35   17   18 ar
  36   17   36 1
  37   18   19 ar
  38   18   37 1
  39   19   38 1
  40   20   39 1
  41   20   40 1

#	End of record

