#	Name: ASD06170161
#	Creating user name:	WinNT
#	Creation time:	15. 06. 2019 21:05

#	Modifying user name:	WinNT
#	Modification time:	15. 06. 2019 21:05

#	Program:	/corina/corina34_cracker 3.40 0067  02.08.2006

@<TRIPOS>MOLECULE
ASD06170161
  69   73    0    0    0
SMALL
NO_CHARGES


@<TRIPOS>ATOM
   1 N1            -1.9485     3.1472    -4.6782 N.am    
   2 C2            -2.2888     2.3731    -5.8798 C.3     
   3 C3            -2.3037     3.3167    -7.0864 C.3     
   4 C4            -0.9640     4.0518    -7.1708 C.3     
   5 C5            -0.7587     4.8884    -5.9058 C.3     
   6 C6            -0.7263     3.9625    -4.6858 C.3     
   7 C7            -2.7454     3.1144    -3.5918 C.2     
   8 O8            -3.7985     2.5079    -3.6283 O.2     
   9 N9            -2.3748     3.7540    -2.4647 N.am    
  10 C10           -3.2501     3.8215    -1.3817 C.ar    
  11 C11           -4.6061     3.6004    -1.5794 C.ar    
  12 C12           -5.4668     3.6710    -0.4903 C.ar    
  13 C13           -4.9279     3.9628     0.7627 C.ar    
  14 C14           -3.5704     4.1702     0.8799 C.ar    
  15 N15           -2.7786     4.0907    -0.1737 N.ar    
  16 O16           -6.7992     3.4615    -0.6424 O.3     
  17 C17           -7.6218     4.5445    -0.6258 C.ar    
  18 C18           -9.0002     4.3704    -0.6593 C.ar    
  19 C19           -9.8358     5.4713    -0.6420 C.ar    
  20 C20           -9.2971     6.7504    -0.5911 C.ar    
  21 C21           -7.9199     6.9224    -0.5577 C.ar    
  22 C22           -7.0852     5.8216    -0.5697 C.ar    
  23 F23           -9.5231     3.1258    -0.7093 F       
  24 C24          -11.3630     7.7786    -0.0083 C.2     
  25 O25          -11.6914     6.7626     0.5755 O.2     
  26 N26          -10.1428     7.8664    -0.5740 N.am    
  27 N27          -14.0991    10.1726     0.1320 N.pl3   
  28 N28          -13.1771    10.9303    -0.5962 N.am    
  29 C29          -12.0556    10.1987    -0.7621 C.2     
  30 C30          -12.2959     8.9085    -0.0965 C.2     
  31 C31          -13.5720     8.9693     0.4283 C.2     
  32 C32          -13.3828    12.2289    -1.0732 C.ar    
  33 C33          -12.3523    13.1588    -1.0268 C.ar    
  34 C34          -12.5586    14.4401    -1.4991 C.ar    
  35 C35          -13.7897    14.7977    -2.0174 C.ar    
  36 C36          -14.8180    13.8743    -2.0647 C.ar    
  37 C37          -14.6164    12.5896    -1.5997 C.ar    
  38 O38          -11.0444    10.5388    -1.3474 O.2     
  39 C39          -14.2589     7.8737     1.2021 C.3     
  40 C40          -15.4379    10.6233     0.5206 C.3     
  41 H41           -1.5434     1.5931    -6.0351 H       
  42 H42           -3.2732     1.9215    -5.7568 H       
  43 H43           -2.4600     2.7395    -7.9978 H       
  44 H44           -3.1097     4.0415    -6.9715 H       
  45 H45           -0.1563     3.3254    -7.2608 H       
  46 H46           -0.9629     4.7057    -8.0428 H       
  47 H47            0.1846     5.4298    -5.9769 H       
  48 H48           -1.5793     5.5983    -5.8021 H       
  49 H49           -0.6797     4.5597    -3.7751 H       
  50 H50            0.1465     3.3121    -4.7438 H       
  51 H51           -1.4992     4.1672    -2.4072 H       
  52 H52           -4.9868     3.3771    -2.5651 H       
  53 H53           -5.5671     4.0259     1.6309 H       
  54 H54           -3.1479     4.3968     1.8477 H       
  55 H55          -10.9071     5.3369    -0.6684 H       
  56 H56           -7.5009     7.9171    -0.5181 H       
  57 H57           -6.0141     5.9560    -0.5392 H       
  58 H58           -9.8505     8.7026    -0.9692 H       
  59 H59          -11.3907    12.8803    -0.6214 H       
  60 H60          -11.7576    15.1637    -1.4632 H       
  61 H61          -13.9486    15.8004    -2.3858 H       
  62 H62          -15.7786    14.1569    -2.4695 H       
  63 H63          -15.4184    11.8675    -1.6414 H       
  64 H64          -14.8030     7.2281     0.5126 H       
  65 H65          -13.5142     7.2862     1.7389 H       
  66 H66          -14.9565     8.3143     1.9143 H       
  67 H67          -16.1634    10.2880    -0.2205 H       
  68 H68          -15.6935    10.2054     1.4943 H       
  69 H69          -15.4527    11.7117     0.5771 H       
@<TRIPOS>BOND
   1    1    2 1
   2    1    6 1
   3    1    7 am
   4    2    3 1
   5    2   41 1
   6    2   42 1
   7    3    4 1
   8    3   43 1
   9    3   44 1
  10    4    5 1
  11    4   45 1
  12    4   46 1
  13    5    6 1
  14    5   47 1
  15    5   48 1
  16    6   49 1
  17    6   50 1
  18    7    8 2
  19    7    9 am
  20    9   10 1
  21    9   51 1
  22   10   11 ar
  23   10   15 ar
  24   11   12 ar
  25   11   52 1
  26   12   13 ar
  27   12   16 1
  28   13   14 ar
  29   13   53 1
  30   14   15 ar
  31   14   54 1
  32   16   17 1
  33   17   18 ar
  34   17   22 ar
  35   18   19 ar
  36   18   23 1
  37   19   20 ar
  38   19   55 1
  39   20   21 ar
  40   20   26 1
  41   21   22 ar
  42   21   56 1
  43   22   57 1
  44   24   25 2
  45   24   26 am
  46   24   30 1
  47   26   58 1
  48   27   28 1
  49   27   31 1
  50   27   40 1
  51   28   29 am
  52   28   32 1
  53   29   30 1
  54   29   38 2
  55   30   31 2
  56   31   39 1
  57   32   33 ar
  58   32   37 ar
  59   33   34 ar
  60   33   59 1
  61   34   35 ar
  62   34   60 1
  63   35   36 ar
  64   35   61 1
  65   36   37 ar
  66   36   62 1
  67   37   63 1
  68   39   64 1
  69   39   65 1
  70   39   66 1
  71   40   67 1
  72   40   68 1
  73   40   69 1

#	End of record

