#	Name: ASD08170708
#	Creating user name:	WinNT
#	Creation time:	15. 06. 2019 21:17

#	Modifying user name:	WinNT
#	Modification time:	15. 06. 2019 21:17

#	Program:	/corina/corina34_cracker 3.40 0067  02.08.2006

@<TRIPOS>MOLECULE
ASD08170708
  68   73    0    0    0
SMALL
NO_CHARGES


@<TRIPOS>ATOM
   1 N1            -0.0155     1.2910     0.0091 N.2     
   2 C2             0.0021    -0.0041     0.0020 C.2     
   3 C3            -1.2027    -0.9094     0.0082 C.3     
   4 C4            -1.6240    -1.2075    -1.4321 C.3     
   5 C5            -2.8471    -2.1267    -1.4258 C.3     
   6 C6            -3.2684    -2.4248    -2.8661 C.3     
   7 C7            -4.4732    -3.3301    -2.8599 C.2     
   8 N8            -5.7122    -2.9529    -2.8465 N.2     
   9 N9            -6.5814    -3.8685    -2.8439 N.2     
  10 C10           -6.1623    -5.0979    -2.8548 C.2     
  11 S11           -4.4493    -5.0938    -2.8774 S.3     
  12 N12           -6.9703    -6.2299    -2.8539 N.am    
  13 S13            1.6895    -0.5178    -0.0169 S.3     
  14 C14            2.1699     1.1266    -0.0126 C.2     
  15 N15            1.1058     1.8712     0.0015 N.2     
  16 N16            3.4819     1.5878    -0.0231 N.am    
  17 C17            3.7307     2.9124    -0.0183 C.2     
  18 O18            2.8104     3.7021    -0.0049 O.2     
  19 C19            5.1524     3.4121    -0.0296 C.3     
  20 C20            5.1552     4.9191    -0.0214 C.ar    
  21 C21            5.2474     5.6100    -1.1910 C.ar    
  22 C22            5.2518     7.0034    -1.1997 C.ar    
  23 C23            5.1642     7.7132    -0.0419 C.ar    
  24 C24            5.0670     7.0357     1.1860 C.ar    
  25 C25            5.0569     5.6188     1.1919 C.ar    
  26 N26            4.9795     7.7062     2.3392 N.ar    
  27 C27            4.8886     7.0792     3.4868 C.ar    
  28 C28            4.8786     5.6881     3.5636 C.ar    
  29 C29            4.9596     4.9419     2.4224 C.ar    
  30 C30           -8.3117    -6.1002    -2.8415 C.2     
  31 O31           -8.8143    -4.9965    -2.8311 O.2     
  32 C32           -9.1873    -7.3268    -2.8406 C.3     
  33 C33          -10.6355    -6.9102    -2.8257 C.ar    
  34 C34          -11.2954    -6.6067    -4.0273 C.ar    
  35 C35          -12.6572    -6.2164    -3.9991 C.ar    
  36 C36          -13.3211    -6.1415    -2.7623 C.ar    
  37 C37          -12.6510    -6.4430    -1.6168 C.ar    
  38 C38          -11.3132    -6.8313    -1.6474 C.ar    
  39 C39          -10.6322    -6.6810    -5.2668 C.ar    
  40 C40          -11.3375    -6.3710    -6.3945 C.ar    
  41 C41          -12.6753    -5.9943    -6.2964 C.ar    
  42 N42          -13.2896    -5.9257    -5.1405 N.ar    
  43 H43           -0.9537    -1.8421     0.5144 H       
  44 H44           -2.0229    -0.4191     0.5326 H       
  45 H45           -1.8730    -0.2749    -1.9383 H       
  46 H46           -0.8038    -1.6978    -1.9565 H       
  47 H47           -2.5981    -3.0593    -0.9196 H       
  48 H48           -3.6673    -1.6364    -0.9014 H       
  49 H49           -3.5174    -1.4921    -3.3723 H       
  50 H50           -2.4482    -2.9151    -3.3905 H       
  51 H51           -6.5684    -7.1126    -2.8623 H       
  52 H52            4.2180     0.9561    -0.0338 H       
  53 H53            5.6743     3.0430     0.8532 H       
  54 H54            5.6567     3.0527    -0.9266 H       
  55 H55            5.3185     5.0711    -2.1242 H       
  56 H56            5.3263     7.5285    -2.1405 H       
  57 H57            5.1697     8.7929    -0.0663 H       
  58 H58            4.8200     7.6564     4.3971 H       
  59 H59            4.8027     5.2002     4.5241 H       
  60 H60            4.9529     3.8627     2.4633 H       
  61 H61           -8.9880    -7.9162    -3.7356 H       
  62 H62           -8.9724    -7.9259    -1.9557 H       
  63 H63          -14.3590    -5.8454    -2.7212 H       
  64 H64          -13.1654    -6.3836    -0.6690 H       
  65 H65          -10.8049    -7.0651    -0.7236 H       
  66 H66           -9.5945    -6.9747    -5.3243 H       
  67 H67          -10.8585    -6.4175    -7.3614 H       
  68 H68          -13.2204    -5.7516    -7.1966 H       
@<TRIPOS>BOND
   1    1    2 2
   2    1   15 1
   3    2    3 1
   4    2   13 1
   5    3    4 1
   6    3   43 1
   7    3   44 1
   8    4    5 1
   9    4   45 1
  10    4   46 1
  11    5    6 1
  12    5   47 1
  13    5   48 1
  14    6    7 1
  15    6   49 1
  16    6   50 1
  17    7    8 2
  18    7   11 1
  19    8    9 1
  20    9   10 2
  21   10   11 1
  22   10   12 1
  23   12   30 am
  24   12   51 1
  25   13   14 1
  26   14   15 2
  27   14   16 1
  28   16   17 am
  29   16   52 1
  30   17   18 2
  31   17   19 1
  32   19   20 1
  33   19   53 1
  34   19   54 1
  35   20   21 ar
  36   20   25 ar
  37   21   22 ar
  38   21   55 1
  39   22   23 ar
  40   22   56 1
  41   23   24 ar
  42   23   57 1
  43   24   25 ar
  44   24   26 ar
  45   25   29 ar
  46   26   27 ar
  47   27   28 ar
  48   27   58 1
  49   28   29 ar
  50   28   59 1
  51   29   60 1
  52   30   31 2
  53   30   32 1
  54   32   33 1
  55   32   61 1
  56   32   62 1
  57   33   34 ar
  58   33   38 ar
  59   34   35 ar
  60   34   39 ar
  61   35   36 ar
  62   35   42 ar
  63   36   37 ar
  64   36   63 1
  65   37   38 ar
  66   37   64 1
  67   38   65 1
  68   39   40 ar
  69   39   66 1
  70   40   41 ar
  71   40   67 1
  72   41   42 ar
  73   41   68 1

#	End of record

