#	Name: ASD01880192
#	Creating user name:	WinNT
#	Creation time:	15. 06. 2019 19:40

#	Modifying user name:	WinNT
#	Modification time:	15. 06. 2019 19:40

#	Program:	/corina/corina34_cracker 3.40 0067  02.08.2006

@<TRIPOS>MOLECULE
ASD01880192
  52   57    0    0    0
SMALL
NO_CHARGES


@<TRIPOS>ATOM
   1 C1            -0.0184     1.5028     0.0103 C.2     
   2 C2             0.0021    -0.0041     0.0020 C.3     
   3 N3             0.0213    -0.5011     1.3842 N.3     
   4 C4            -0.1992    -1.9697     1.4250 C.3     
   5 C5            -0.6849    -2.2503     2.8633 C.3     
   6 C6            -1.2839    -0.9153     3.3517 C.3     
   7 C7            -1.1096     0.0596     2.1675 C.3     
   8 C8            -2.1829    -2.1374     3.1536 C.3     
   9 H9            -1.0915    -0.5322     4.3538 H       
  10 H10           -0.0467    -2.8610     3.5018 H       
  11 C11           -2.7124    -2.8341     4.4086 C.3     
  12 O12           -4.1361    -2.7195     4.4522 O.3     
  13 C13           -4.7688    -3.2893     5.5115 C.ar    
  14 C14           -6.1501    -3.2160     5.6173 C.ar    
  15 C15           -6.7909    -3.7959     6.6951 C.ar    
  16 C16           -6.0567    -4.4489     7.6678 C.ar    
  17 C17           -4.6798    -4.5229     7.5649 C.ar    
  18 C18           -4.0349    -3.9500     6.4859 C.ar    
  19 N19            1.0505     2.2687     0.0042 N.2     
  20 C20            0.6883     3.5760     0.0162 C.ar    
  21 C21           -0.7000     3.5741     0.0318 C.ar    
  22 N22           -1.1298     2.2543     0.0191 N.pl3   
  23 C23            1.3166     4.8256     0.0164 C.ar    
  24 C24            0.5572     5.9651     0.0318 C.ar    
  25 C25           -0.8373     5.9347     0.0489 C.ar    
  26 C26           -1.4769     4.7260     0.0503 C.ar    
  27 C27           -2.9649     4.5009     0.0759 C.3     
  28 C28           -3.2946     3.1700    -0.6079 C.3     
  29 C29           -2.5679     1.9784     0.0234 C.3     
  30 H30           -0.8875    -0.3767    -0.5057 H       
  31 H31            0.8922    -0.3525    -0.5218 H       
  32 H32           -0.9622    -2.2598     0.7027 H       
  33 H33            0.7328    -2.4997     1.2283 H       
  34 H34           -0.8632     1.0577     2.5298 H       
  35 H35           -2.0151     0.0872     1.5613 H       
  36 H36           -2.8608    -2.1293     2.3001 H       
  37 H37           -2.4332    -3.8875     4.3846 H       
  38 H38           -2.2828    -2.3645     5.2935 H       
  39 H39           -6.7240    -2.7057     4.8579 H       
  40 H40           -7.8662    -3.7388     6.7781 H       
  41 H41           -6.5594    -4.9016     8.5096 H       
  42 H42           -4.1085    -5.0329     8.3264 H       
  43 H43           -2.9594    -4.0081     6.4059 H       
  44 H44            2.3945     4.8914     0.0048 H       
  45 H45            1.0565     6.9228     0.0311 H       
  46 H46           -1.4045     6.8538     0.0605 H       
  47 H47           -3.3102     4.4733     1.1094 H       
  48 H48           -3.4641     5.3136    -0.4518 H       
  49 H49           -4.3695     3.0000    -0.5466 H       
  50 H50           -3.0103     3.2345    -1.6582 H       
  51 H51           -2.7717     1.0771    -0.5547 H       
  52 H52           -2.9088     1.8435     1.0499 H       
@<TRIPOS>BOND
   1    1    2 1
   2    1   19 2
   3    1   22 1
   4    2    3 1
   5    2   30 1
   6    2   31 1
   7    3    4 1
   8    3    7 1
   9    4    5 1
  10    4   32 1
  11    4   33 1
  12    5    6 1
  13    5   10 1
  14    5    8 1
  15    6    7 1
  16    6    9 1
  17    6    8 1
  18    7   34 1
  19    7   35 1
  20    8   11 1
  21    8   36 1
  22   11   12 1
  23   11   37 1
  24   11   38 1
  25   12   13 1
  26   13   14 ar
  27   13   18 ar
  28   14   15 ar
  29   14   39 1
  30   15   16 ar
  31   15   40 1
  32   16   17 ar
  33   16   41 1
  34   17   18 ar
  35   17   42 1
  36   18   43 1
  37   19   20 1
  38   20   21 ar
  39   20   23 ar
  40   21   22 1
  41   21   26 ar
  42   22   29 1
  43   23   24 ar
  44   23   44 1
  45   24   25 ar
  46   24   45 1
  47   25   26 ar
  48   25   46 1
  49   26   27 1
  50   27   28 1
  51   27   47 1
  52   27   48 1
  53   28   29 1
  54   28   49 1
  55   28   50 1
  56   29   51 1
  57   29   52 1

#	End of record

