#	Name: ASD07930675
#	Creating user name:	WinNT
#	Creation time:	15. 06. 2019 21:12

#	Modifying user name:	WinNT
#	Modification time:	15. 06. 2019 21:12

#	Program:	/corina/corina34_cracker 3.40 0067  02.08.2006

@<TRIPOS>MOLECULE
ASD07930675
  40   42    0    0    0
SMALL
NO_CHARGES


@<TRIPOS>ATOM
   1 C1            -0.0178     1.4608     0.0101 C.3     
   2 N2             0.8031    -0.4153    -2.1619 N.2     
   3 N3            -0.8796    -1.7833    -1.2911 N.pl3   
   4 C4            -0.9005    -2.8248    -0.2586 C.3     
   5 C5            -1.2102    -2.1834     1.1010 C.3     
   6 S6             0.0275    -0.8859     1.4156 S.o2    
   7 N7             0.0021    -0.0041     0.0020 N.am    
   8 C8             0.0002    -0.7257    -1.1832 C.2     
   9 C9             0.4646    -3.5132    -0.1997 C.3     
  10 O10           -0.4323     0.0192     2.4099 O.2     
  11 O11            1.3354    -1.4387     1.4687 O.2     
  12 C12           -1.9634    -3.8404    -0.5898 C.2     
  13 S13           -3.3416    -4.2315     0.4300 S.3     
  14 C14           -3.9138    -5.4119    -0.7417 C.2     
  15 C15           -3.0713    -5.4460    -1.7932 C.2     
  16 C16           -2.0037    -4.5753    -1.7054 C.2     
  17 C17           -5.1307    -6.2391    -0.5955 C.ar    
  18 C18           -5.4831    -7.1429    -1.5942 C.ar    
  19 C19           -6.6319    -7.9202    -1.4494 C.ar    
  20 C20           -7.4218    -7.7866    -0.3020 C.ar    
  21 C21           -7.0639    -6.8854     0.6852 C.ar    
  22 C22           -5.9250    -6.1190     0.5478 C.ar    
  23 C23           -7.0022    -8.8520    -2.4718 C.1     
  24 N24           -7.2960    -9.5911    -3.2828 N.1     
  25 Cl25          -0.7963    -4.4525    -2.9467 Cl      
  26 F26           -8.5354    -8.5379    -0.1582 F       
  27 H27            1.0048     1.8381     0.0023 H       
  28 H28           -0.5450     1.8219    -0.8730 H       
  29 H29           -0.5280     1.8123     0.9069 H       
  30 H30            0.7883    -0.9307    -2.9835 H       
  31 H31           -1.4804    -1.8399    -2.0505 H       
  32 H32           -2.2071    -1.7432     1.0811 H       
  33 H33           -1.1573    -2.9394     1.8845 H       
  34 H34            1.2322    -2.7780     0.0418 H       
  35 H35            0.4485    -4.2871     0.5677 H       
  36 H36            0.6857    -3.9650    -1.1667 H       
  37 H37           -3.2217    -6.1002    -2.6393 H       
  38 H38           -4.8696    -7.2414    -2.4776 H       
  39 H39           -7.6764    -6.7845     1.5690 H       
  40 H40           -5.6514    -5.4175     1.3221 H       
@<TRIPOS>BOND
   1    1    7 1
   2    1   27 1
   3    1   28 1
   4    1   29 1
   5    2    8 2
   6    2   30 1
   7    3    4 1
   8    3    8 1
   9    3   31 1
  10    4    5 1
  11    4    9 1
  12    4   12 1
  13    5    6 1
  14    5   32 1
  15    5   33 1
  16    6    7 am
  17    6   10 2
  18    6   11 2
  19    7    8 1
  20    9   34 1
  21    9   35 1
  22    9   36 1
  23   12   13 1
  24   12   16 2
  25   13   14 1
  26   14   15 2
  27   14   17 1
  28   15   16 1
  29   15   37 1
  30   16   25 1
  31   17   18 ar
  32   17   22 ar
  33   18   19 ar
  34   18   38 1
  35   19   20 ar
  36   19   23 1
  37   20   21 ar
  38   20   26 1
  39   21   22 ar
  40   21   39 1
  41   22   40 1
  42   23   24 3

#	End of record

