#	Name: ASD07930791
#	Creating user name:	WinNT
#	Creation time:	15. 06. 2019 21:13

#	Modifying user name:	WinNT
#	Modification time:	15. 06. 2019 21:13

#	Program:	/corina/corina34_cracker 3.40 0067  02.08.2006

@<TRIPOS>MOLECULE
ASD07930791
  46   49    0    0    0
SMALL
NO_CHARGES


@<TRIPOS>ATOM
   1 C1             2.9714    -1.1786    -1.4901 C.3     
   2 N2             2.4546    -3.0909     0.7430 N.2     
   3 N3             0.4221    -3.4517    -0.3526 N.pl3   
   4 C4            -0.9005    -2.8248    -0.2586 C.3     
   5 C5            -0.9791    -1.6578    -1.2527 C.3     
   6 S6             0.3867    -0.5089    -0.8938 S.o2    
   7 N7             1.7095    -1.5201    -0.8289 N.am    
   8 C8             1.5566    -2.7020    -0.1180 C.2     
   9 C9            -1.1179    -2.3011     1.1624 C.3     
  10 C10           -1.9634    -3.8404    -0.5898 C.ar    
  11 C11           -2.7940    -3.6310    -1.6684 C.ar    
  12 C12           -3.7774    -4.5640    -1.9802 C.ar    
  13 C13           -3.9132    -5.7177    -1.1855 C.ar    
  14 C14           -3.0623    -5.9171    -0.0939 C.ar    
  15 C15           -2.0921    -4.9823     0.1933 C.ar    
  16 F16           -1.2676    -5.1712     1.2467 F       
  17 N17           -4.7338    -4.6303    -2.9709 N.pl3   
  18 C18           -5.4702    -5.7857    -2.8310 C.2     
  19 C19           -5.0158    -6.4864    -1.7618 C.2     
  20 C20           -6.5841    -6.1991    -3.7110 C.ar    
  21 C21           -6.6653    -7.5155    -4.1674 C.ar    
  22 C22           -7.7073    -7.8947    -4.9883 C.ar    
  23 C23           -8.6704    -6.9732    -5.3591 C.ar    
  24 C24           -8.5955    -5.6666    -4.9105 C.ar    
  25 C25           -7.5621    -5.2759    -4.0841 C.ar    
  26 Cl26          -5.6270    -8.0063    -1.1871 Cl      
  27 O27            0.6386     0.3383    -2.0064 O.2     
  28 O28            0.2724     0.0151     0.4222 O.2     
  29 H29            3.6040    -0.6209    -0.7996 H       
  30 H30            3.4819    -2.0927    -1.7930 H       
  31 H31            2.7670    -0.5680    -2.3696 H       
  32 H32            3.2460    -2.5512     0.8956 H       
  33 H33            0.4991    -4.3926    -0.5753 H       
  34 H34           -0.8838    -2.0353    -2.2708 H       
  35 H35           -1.9326    -1.1421    -1.1391 H       
  36 H36           -0.3497    -1.5652     1.3999 H       
  37 H37           -2.1009    -1.8353     1.2315 H       
  38 H38           -1.0579    -3.1296     1.8681 H       
  39 H39           -2.6819    -2.7423    -2.2719 H       
  40 H40           -3.1629    -6.8010     0.5186 H       
  41 H41           -4.8678    -3.9635    -3.6625 H       
  42 H42           -5.9139    -8.2356    -3.8789 H       
  43 H43           -7.7711    -8.9130    -5.3425 H       
  44 H44           -9.4841    -7.2752    -6.0019 H       
  45 H45           -9.3501    -4.9519    -5.2042 H       
  46 H46           -7.5048    -4.2557    -3.7346 H       
@<TRIPOS>BOND
   1    1    7 1
   2    1   29 1
   3    1   30 1
   4    1   31 1
   5    2    8 2
   6    2   32 1
   7    3    4 1
   8    3    8 1
   9    3   33 1
  10    4    5 1
  11    4    9 1
  12    4   10 1
  13    5    6 1
  14    5   34 1
  15    5   35 1
  16    6    7 am
  17    6   27 2
  18    6   28 2
  19    7    8 1
  20    9   36 1
  21    9   37 1
  22    9   38 1
  23   10   11 ar
  24   10   15 ar
  25   11   12 ar
  26   11   39 1
  27   12   13 ar
  28   12   17 1
  29   13   14 ar
  30   13   19 1
  31   14   15 ar
  32   14   40 1
  33   15   16 1
  34   17   18 1
  35   17   41 1
  36   18   19 2
  37   18   20 1
  38   19   26 1
  39   20   21 ar
  40   20   25 ar
  41   21   22 ar
  42   21   42 1
  43   22   23 ar
  44   22   43 1
  45   23   24 ar
  46   23   44 1
  47   24   25 ar
  48   24   45 1
  49   25   46 1

#	End of record

