#	Name: ASD01140548
#	Creating user name:	WinNT
#	Creation time:	15. 06. 2019 19:01

#	Modifying user name:	WinNT
#	Modification time:	15. 06. 2019 19:01

#	Program:	/corina/corina34_cracker 3.40 0067  02.08.2006

@<TRIPOS>MOLECULE
ASD01140548
  33   34    0    0    0
SMALL
NO_CHARGES


@<TRIPOS>ATOM
   1 Cl1            0.0000     0.0000     0.0000 Cl      
   2 H2             0.0000     1.3700     0.0000 H       
   3 C3             6.8479    16.8792     8.1136 C.3     
   4 C4             6.8684    15.3724     8.1053 C.2     
   5 N5             6.8746    14.5894     7.0174 N.pl3   
   6 C6             6.8627    15.0715     5.6340 C.3     
   7 N7             6.8950    13.2427     7.3990 N.2     
   8 C8             6.9016    13.1707     8.7139 C.ar    
   9 C9             6.9203    12.0796     9.6901 C.ar    
  10 C10            6.9210    12.3944    11.0343 C.ar    
  11 C11            6.9045    13.7168    11.4702 C.ar    
  12 C12            6.8868    14.7672    10.6129 C.ar    
  13 C13            6.8901    14.5525     9.2186 C.ar    
  14 C14            6.9375    10.6676     9.2448 C.ar    
  15 C15            5.8541     9.8335     9.5199 C.ar    
  16 C16            5.8754     8.5185     9.1027 C.ar    
  17 C17            6.9697     8.0257     8.4123 C.ar    
  18 Cl18           6.9889     6.3700     7.8907 Cl      
  19 C19            8.0487     8.8483     8.1358 C.ar    
  20 C20            8.0361    10.1674     8.5428 C.ar    
  21 Cl21           9.3862    11.1999     8.1895 Cl      
  22 H22            7.8705    17.2565     8.1058 H       
  23 H23            6.3207    17.2403     7.2305 H       
  24 H24            6.3377    17.2307     9.0104 H       
  25 H25            7.8873    15.2048     5.2869 H       
  26 H26            6.3561    14.3438     5.0000 H       
  27 H27            6.3359    16.0245     5.5859 H       
  28 H28            6.9343    11.5978    11.7635 H       
  29 H29            6.9054    13.9134    12.5322 H       
  30 H30            6.8741    15.7753    11.0002 H       
  31 H31            5.0000    10.2162    10.0589 H       
  32 H32            5.0368     7.8721     9.3154 H       
  33 H33            8.8998     8.4584     7.5973 H       
@<TRIPOS>BOND
   1    1    2 1
   2    3    4 1
   3    3   22 1
   4    3   23 1
   5    3   24 1
   6    4   13 2
   7    4    5 1
   8    5    6 1
   9    5    7 1
  10    6   25 1
  11    6   26 1
  12    6   27 1
  13    7    8 2
  14    8   13 ar
  15    8    9 ar
  16    9   10 ar
  17    9   14 1
  18   10   11 ar
  19   10   28 1
  20   11   12 ar
  21   11   29 1
  22   12   13 ar
  23   12   30 1
  24   14   20 ar
  25   14   15 ar
  26   15   16 ar
  27   15   31 1
  28   16   17 ar
  29   16   32 1
  30   17   18 1
  31   17   19 ar
  32   19   20 ar
  33   19   33 1
  34   20   21 1

#	End of record

