#	Name: ASD02198226
#	Creating user name:	WinNT
#	Creation time:	15. 06. 2019 20:19

#	Modifying user name:	WinNT
#	Modification time:	15. 06. 2019 20:19

#	Program:	/corina/corina34_cracker 3.40 0067  02.08.2006

@<TRIPOS>MOLECULE
ASD02198226
  44   46    0    0    0
SMALL
NO_CHARGES


@<TRIPOS>ATOM
   1 C1            -0.0166     1.3753     0.0096 C.2     
   2 C2             0.0021    -0.0041     0.0020 C.2     
   3 C3            -1.1878    -0.8008     0.0091 C.1     
   4 S4             1.5675     2.0054    -0.0021 S.3     
   5 C5             2.2772     0.3990    -0.0175 C.2     
   6 C6             1.2824    -0.5520    -0.0132 C.2     
   7 C7             3.6579     0.1249    -0.0322 C.2     
   8 C8             4.6308     1.2351    -0.0350 C.2     
   9 O9             4.0505    -1.0301    -0.0426 O.2     
  10 N10            1.5294    -1.9154    -0.0224 N.pl3   
  11 N11           -1.1593     2.1393     0.0194 N.pl3   
  12 N12           -2.1317    -1.4328     0.0147 N.1     
  13 C13           -1.0630     3.6011     0.0268 C.3     
  14 C14           -2.3370     4.1992    -0.5733 C.3     
  15 O15            4.3523     2.5520    -0.0242 O.3     
  16 C16           -2.4382     3.8077    -2.0489 C.3     
  17 C17           -0.8970     4.0939     1.4658 C.3     
  18 N18            5.3581     3.2224    -0.0300 N.2     
  19 C19            6.4373     2.4802    -0.0451 C.2     
  20 C20            5.9936     1.1303    -0.0430 C.2     
  21 C21            7.8438     2.9548    -0.0560 C.ar    
  22 C22            8.1210     4.3201    -0.0499 C.ar    
  23 C23            8.8914     2.0365    -0.0666 C.ar    
  24 C24           10.1973     2.4832    -0.0768 C.ar    
  25 C25           10.4668     3.8399    -0.0760 C.ar    
  26 C26            9.4306     4.7559    -0.0602 C.ar    
  27 H27            2.4424    -2.2428    -0.0326 H       
  28 H28            0.7893    -2.5424    -0.0187 H       
  29 H29           -2.0294     1.7105     0.0213 H       
  30 H30           -0.2021     3.9115    -0.5652 H       
  31 H31           -3.2054     3.8180    -0.0359 H       
  32 H32           -2.3042     5.2852    -0.4869 H       
  33 H33           -3.3458     4.2338    -2.4764 H       
  34 H34           -1.5698     4.1888    -2.5862 H       
  35 H35           -2.4710     2.7216    -2.1353 H       
  36 H36            0.0106     3.6678     1.8933 H       
  37 H37           -0.8254     5.1815     1.4713 H       
  38 H38           -1.7579     3.7835     2.0578 H       
  39 H39            6.5928     0.2319    -0.0522 H       
  40 H40            7.3126     5.0362    -0.0376 H       
  41 H41            8.6821     0.9770    -0.0665 H       
  42 H42           11.0102     1.7721    -0.0850 H       
  43 H43           11.4901     4.1851    -0.0832 H       
  44 H44            9.6465     5.8141    -0.0596 H       
@<TRIPOS>BOND
   1    1    2 2
   2    1    4 1
   3    1   11 1
   4    2    3 1
   5    2    6 1
   6    3   12 3
   7    4    5 1
   8    5    6 2
   9    5    7 1
  10    6   10 1
  11    7    8 1
  12    7    9 2
  13    8   15 1
  14    8   20 2
  15   10   27 1
  16   10   28 1
  17   11   13 1
  18   11   29 1
  19   13   14 1
  20   13   17 1
  21   13   30 1
  22   14   16 1
  23   14   31 1
  24   14   32 1
  25   15   18 1
  26   16   33 1
  27   16   34 1
  28   16   35 1
  29   17   36 1
  30   17   37 1
  31   17   38 1
  32   18   19 2
  33   19   20 1
  34   19   21 1
  35   20   39 1
  36   21   22 ar
  37   21   23 ar
  38   22   26 ar
  39   22   40 1
  40   23   24 ar
  41   23   41 1
  42   24   25 ar
  43   24   42 1
  44   25   26 ar
  45   25   43 1
  46   26   44 1

#	End of record

