#	Name: ASD05730126
#	Creating user name:	WinNT
#	Creation time:	15. 06. 2019 21:02

#	Modifying user name:	WinNT
#	Modification time:	15. 06. 2019 21:02

#	Program:	/corina/corina34_cracker 3.40 0067  02.08.2006

@<TRIPOS>MOLECULE
ASD05730126
  75   81    0    0    0
SMALL
NO_CHARGES


@<TRIPOS>ATOM
   1 N1             2.0940     1.1052     0.7306 N.3     
   2 C2             1.8424    -0.2689     0.6369 C.ar    
   3 C3             2.7493    -1.0983    -0.0084 C.ar    
   4 C4             2.5015    -2.4540    -0.1005 C.ar    
   5 C5             1.3451    -2.9878     0.4522 C.ar    
   6 C6             0.4368    -2.1587     1.0977 C.ar    
   7 C7             0.6871    -0.8037     1.1951 C.ar    
   8 N8             1.0943    -4.3626     0.3585 N.pl3   
   9 C9             0.4447    -5.0178     1.3864 C.ar    
  10 N10            0.1231    -6.2927     1.2278 N.ar    
  11 C11           -0.5016    -6.9562     2.1940 C.ar    
  12 C12           -0.8149    -6.2759     3.3907 C.ar    
  13 C13           -0.4529    -4.9256     3.5097 C.ar    
  14 N14            0.1702    -4.3473     2.5001 N.ar    
  15 N15           -0.8389    -8.2770     2.0380 N.am    
  16 C16           -1.4731    -8.9448     3.0208 C.2     
  17 C17           -1.8127    -8.2688     4.2747 C.2     
  18 C18           -1.4789    -6.9513     4.4399 C.2     
  19 C19           -0.5063    -8.9677     0.7896 C.3     
  20 O20           -1.7661   -10.1170     2.8657 O.2     
  21 C21           -2.5112    -9.0041     5.3549 C.ar    
  22 C22            1.1194     1.8739    -0.0560 C.3     
  23 C23            0.5368   -10.0721     1.0585 C.3     
  24 C24           -1.8112    -9.4111     6.4918 C.ar    
  25 C25           -2.4683   -10.0960     7.4947 C.ar    
  26 C26           -3.8172   -10.3785     7.3738 C.ar    
  27 C27           -4.5156    -9.9779     6.2490 C.ar    
  28 C28           -3.8717    -9.2873     5.2425 C.ar    
  29 S29           -4.6489   -11.2529     8.6577 S.o2    
  30 C30           -5.2518    -9.9549     9.7723 C.3     
  31 O31           -5.7357   -11.8903     8.0006 O.2     
  32 O32           -3.6247   -12.0125     9.2848 O.2     
  33 C33            3.4678     1.4187     0.3134 C.3     
  34 C34            3.7276     2.9147     0.5054 C.3     
  35 N35            2.7530     3.6834    -0.2812 N.3     
  36 C36            1.3792     3.3700     0.1360 C.3     
  37 Cl37          -0.4477     0.2331     2.0017 Cl      
  38 C38           -1.7546    -9.6697     0.2269 C.3     
  39 C39           -1.4265   -11.1762     0.1734 C.3     
  40 C40           -0.3080   -11.3591     1.2291 C.3     
  41 Cl41          -0.1184    -9.0576     6.6443 Cl      
  42 C42           -5.9289   -10.3973    11.0710 C.3     
  43 C43           -4.5294    -9.7803    11.1096 C.3     
  44 H44            3.6488    -0.6834    -0.4389 H       
  45 H45            3.2072    -3.0989    -0.6030 H       
  46 H46           -0.4628    -2.5739     1.5274 H       
  47 H47            1.3768    -4.8547    -0.4283 H       
  48 H48           -0.6763    -4.3721     4.4098 H       
  49 H49           -1.7205    -6.4354     5.3575 H       
  50 H50           -0.1180    -8.2558     0.0613 H       
  51 H51            1.2219     1.6195    -1.1109 H       
  52 H52            0.1106     1.6340     0.2800 H       
  53 H53            1.2151   -10.1706     0.2110 H       
  54 H54            1.0933    -9.8573     1.9708 H       
  55 H55           -1.9282   -10.4120     8.3750 H       
  56 H56           -5.5684   -10.2019     6.1605 H       
  57 H57           -4.4186    -8.9749     4.3651 H       
  58 H58           -5.6343    -9.0576     9.2856 H       
  59 H59            4.1711     0.8468     0.9187 H       
  60 H60            3.5970     1.1591    -0.7373 H       
  61 H61            3.6252     3.1691     1.5604 H       
  62 H62            4.7364     3.1547     0.1695 H       
  63 H63            2.9343     4.6737    -0.2136 H       
  64 H64            0.6759     3.9418    -0.4693 H       
  65 H65            1.2501     3.6295     1.1868 H       
  66 H66           -2.6079    -9.4965     0.8826 H       
  67 H67           -1.9717    -9.2991    -0.7749 H       
  68 H68           -2.3028   -11.7671     0.4398 H       
  69 H69           -1.0652   -11.4530    -0.8170 H       
  70 H70            0.2887   -12.2446     1.0103 H       
  71 H71           -0.7294   -11.4142     2.2328 H       
  72 H72           -6.7566    -9.7909    11.4390 H       
  73 H73           -6.0121   -11.4683    11.2557 H       
  74 H74           -3.6918   -10.4454    11.3197 H       
  75 H75           -4.4363    -8.7681    11.5030 H       
@<TRIPOS>BOND
   1    1    2 1
   2    1   22 1
   3    1   33 1
   4    2    3 ar
   5    2    7 ar
   6    3    4 ar
   7    3   44 1
   8    4    5 ar
   9    4   45 1
  10    5    6 ar
  11    5    8 1
  12    6    7 ar
  13    6   46 1
  14    7   37 1
  15    8    9 1
  16    8   47 1
  17    9   10 ar
  18    9   14 ar
  19   10   11 ar
  20   11   12 ar
  21   11   15 1
  22   12   13 ar
  23   12   18 1
  24   13   14 ar
  25   13   48 1
  26   15   16 am
  27   15   19 1
  28   16   17 1
  29   16   20 2
  30   17   18 2
  31   17   21 1
  32   18   49 1
  33   19   38 1
  34   19   23 1
  35   19   50 1
  36   21   24 ar
  37   21   28 ar
  38   22   36 1
  39   22   51 1
  40   22   52 1
  41   23   40 1
  42   23   53 1
  43   23   54 1
  44   24   25 ar
  45   24   41 1
  46   25   26 ar
  47   25   55 1
  48   26   27 ar
  49   26   29 1
  50   27   28 ar
  51   27   56 1
  52   28   57 1
  53   29   30 1
  54   29   31 2
  55   29   32 2
  56   30   42 1
  57   30   43 1
  58   30   58 1
  59   33   34 1
  60   33   59 1
  61   33   60 1
  62   34   35 1
  63   34   61 1
  64   34   62 1
  65   35   36 1
  66   35   63 1
  67   36   64 1
  68   36   65 1
  69   38   39 1
  70   38   66 1
  71   38   67 1
  72   39   40 1
  73   39   68 1
  74   39   69 1
  75   40   70 1
  76   40   71 1
  77   42   43 1
  78   42   72 1
  79   42   73 1
  80   43   74 1
  81   43   75 1

#	End of record

