#	Name: ASD01812426
#	Creating user name:	WinNT
#	Creation time:	15. 06. 2019 19:28

#	Modifying user name:	WinNT
#	Modification time:	15. 06. 2019 19:28

#	Program:	/corina/corina34_cracker 3.40 0067  02.08.2006

@<TRIPOS>MOLECULE
ASD01812426
  69   74    0    0    0
SMALL
NO_CHARGES


@<TRIPOS>ATOM
   1 C1            -0.0183     1.4531     0.0251 C.ar    
   2 C2            -0.0845     0.1339     0.4308 C.ar    
   3 C3             1.0775    -0.5903     0.6221 C.ar    
   4 C4             2.3061     0.0015     0.4063 C.ar    
   5 C5             2.3822     1.3291    -0.0035 C.ar    
   6 C6             1.2128     2.0558    -0.1919 C.ar    
   7 N7             3.6442     1.8923    -0.2175 N.3     
   8 C8             3.6085     3.3590    -0.1807 C.3     
   9 C9             2.4846     3.8448    -1.1052 C.3     
  10 O10            1.2437     3.3600    -0.5817 O.3     
  11 C11            4.6253     1.3654     0.7405 C.3     
  12 C12            5.9922     1.9058     0.4082 C.ar    
  13 C13            6.7599     1.2895    -0.5665 C.ar    
  14 C14            6.4745     3.0206     1.0743 C.ar    
  15 C15            7.7271     3.5207     0.7726 C.ar    
  16 C16            8.5062     2.9007    -0.2041 C.ar    
  17 C17            8.0141     1.7814    -0.8753 C.ar    
  18 N18            3.4991     6.0229    -1.6927 N.am    
  19 C19            2.4692     5.3513    -1.1407 C.2     
  20 C20            3.4841     7.4875    -1.7272 C.3     
  21 C21            4.3602     7.9794    -2.8810 C.3     
  22 C22            4.3445     9.5089    -2.9170 C.3     
  23 C23            4.8875    10.0558    -1.5953 C.3     
  24 C24            4.0114     9.5638    -0.4414 C.3     
  25 C25            4.0270     8.0343    -0.4054 C.3     
  26 O26            3.8530     7.4687    -4.1155 O.3     
  27 O27            1.5300     5.9593    -0.6725 O.2     
  28 C28            9.8489     3.4322    -0.5314 C.ar    
  29 C29           10.0294     4.7740    -0.8018 C.ar    
  30 C30           11.2862     5.2878    -1.1105 C.ar    
  31 C31           12.3988     4.5149    -1.1649 C.ar    
  32 C32           12.3228     3.1302    -0.9048 C.ar    
  33 C33           11.0144     2.5474    -0.5691 C.ar    
  34 C34           11.2249     1.2022    -0.3594 C.2     
  35 N35           12.5312     0.9564    -0.5379 N.pl3   
  36 N36           13.1964     2.1398    -0.8792 N.2     
  37 F37            6.2820     0.2054    -1.2159 F       
  38 F38            5.7189     3.6202     2.0202 F       
  39 C39           13.1657    -0.3575    -0.4064 C.3     
  40 H40           -0.9274     2.0156    -0.1278 H       
  41 H41           -1.0445    -0.3315     0.5989 H       
  42 H42            1.0241    -1.6207     0.9411 H       
  43 H43            3.2114    -0.5679     0.5564 H       
  44 H44            3.4150     3.6948     0.8381 H       
  45 H45            4.5631     3.7570    -0.5247 H       
  46 H46            2.6384     3.4539    -2.1110 H       
  47 H47            4.3488     1.6719     1.7493 H       
  48 H48            4.6410     0.2770     0.6829 H       
  49 H49            8.1019     4.3903     1.2920 H       
  50 H50            8.6119     1.3000    -1.6351 H       
  51 H51            4.2502     5.5367    -2.0671 H       
  52 H52            2.4619     7.8370    -1.8725 H       
  53 H53            5.3823     7.6299    -2.7357 H       
  54 H54            4.9686     9.8594    -3.7390 H       
  55 H55            3.3223     9.8585    -3.0623 H       
  56 H56            5.9096     9.7063    -1.4500 H       
  57 H57            4.8763    11.1454    -1.6209 H       
  58 H58            4.3982     9.9534     0.5002 H       
  59 H59            2.9892     9.9134    -0.5867 H       
  60 H60            3.4029     7.6838     0.4166 H       
  61 H61            5.0492     7.6848    -0.2601 H       
  62 H62            4.3608     7.7410    -4.8920 H       
  63 H63            9.1784     5.4385    -0.7737 H       
  64 H64           11.3784     6.3443    -1.3152 H       
  65 H65           13.3508     4.9626    -1.4095 H       
  66 H66           10.4712     0.4742    -0.0975 H       
  67 H67           13.1525    -0.8655    -1.3707 H       
  68 H68           14.1967    -0.2317    -0.0760 H       
  69 H69           12.6198    -0.9530     0.3254 H       
@<TRIPOS>BOND
   1    1    2 ar
   2    1    6 ar
   3    1   40 1
   4    2    3 ar
   5    2   41 1
   6    3    4 ar
   7    3   42 1
   8    4    5 ar
   9    4   43 1
  10    5    7 1
  11    5    6 ar
  12    6   10 1
  13    7   11 1
  14    7    8 1
  15    8    9 1
  16    8   44 1
  17    8   45 1
  18    9   10 1
  19    9   19 1
  20    9   46 1
  21   11   12 1
  22   11   47 1
  23   11   48 1
  24   12   14 ar
  25   12   13 ar
  26   13   17 ar
  27   13   37 1
  28   14   15 ar
  29   14   38 1
  30   15   16 ar
  31   15   49 1
  32   16   17 ar
  33   16   28 1
  34   17   50 1
  35   18   19 am
  36   18   20 1
  37   18   51 1
  38   19   27 2
  39   20   21 1
  40   20   25 1
  41   20   52 1
  42   21   22 1
  43   21   26 1
  44   21   53 1
  45   22   23 1
  46   22   54 1
  47   22   55 1
  48   23   24 1
  49   23   56 1
  50   23   57 1
  51   24   25 1
  52   24   58 1
  53   24   59 1
  54   25   60 1
  55   25   61 1
  56   26   62 1
  57   28   29 ar
  58   28   33 ar
  59   29   30 ar
  60   29   63 1
  61   30   31 ar
  62   30   64 1
  63   31   32 ar
  64   31   65 1
  65   32   36 2
  66   32   33 ar
  67   33   34 2
  68   34   35 1
  69   34   66 1
  70   35   36 1
  71   35   39 1
  72   39   67 1
  73   39   68 1
  74   39   69 1

#	End of record

