#	Name: ASD01410986
#	Creating user name:	WinNT
#	Creation time:	15. 06. 2019 19:19

#	Modifying user name:	WinNT
#	Modification time:	15. 06. 2019 19:19

#	Program:	/corina/corina34_cracker 3.40 0067  02.08.2006

@<TRIPOS>MOLECULE
ASD01410986
  62   66    0    0    0
SMALL
NO_CHARGES


@<TRIPOS>ATOM
   1 C1            -0.0225     1.8097     0.0120 C.ar    
   2 P2             0.0021    -0.0041     0.0020 P.3     
   3 N3             0.0243    -0.5590     1.5451 N.pl3   
   4 O4            -1.2061    -0.5101    -0.6869 O.2     
   5 C5             0.0452    -1.9289     1.7920 C.2     
   6 C6             0.0645    -2.4575     3.0622 C.2     
   7 S7             0.0864    -4.2131     2.9703 S.3     
   8 C8             0.0687    -4.1611     1.2134 C.2     
   9 C9             0.0426    -2.8675     0.7867 C.2     
  10 C10            0.0670    -1.7050     4.2569 C.2     
  11 O11            0.0514    -0.4885     4.2102 O.2     
  12 O12            0.0867    -2.3345     5.4513 O.3     
  13 C13            0.0763    -5.3449     0.3302 C.ar    
  14 C14            0.0986    -6.6283     0.8816 C.ar    
  15 C15            0.1057    -7.7310     0.0574 C.ar    
  16 C16            0.0906    -7.5672    -1.3277 C.ar    
  17 C17            0.0683    -6.2863    -1.8794 C.ar    
  18 C18            0.0553    -5.1822    -1.0572 C.ar    
  19 O19            1.3165    -0.5187    -0.7723 O.3     
  20 C20            1.5888    -0.2019    -2.1389 C.3     
  21 C21            1.1649     2.5170     0.0045 C.ar    
  22 C22            1.1461     3.8994     0.0121 C.ar    
  23 C23           -0.0600     4.5741     0.0268 C.ar    
  24 C24           -1.2478     3.8666     0.0335 C.ar    
  25 C25           -1.2291     2.4847     0.0214 C.ar    
  26 C26           -0.0805     6.0810     0.0362 C.3     
  27 C27            2.4800     1.7814    -0.0116 C.3     
  28 C28            0.0988    -8.7560    -2.2146 C.2     
  29 N29            0.1194   -10.0161    -1.8147 N.2     
  30 N30            0.1200   -10.8460    -2.9417 N.pl3   
  31 C31            0.0989   -10.0440    -4.0551 C.2     
  32 C32            0.0798    -8.7304    -3.6117 C.2     
  33 C33            0.1362   -12.2037    -3.0844 C.2     
  34 C34            0.1312   -12.7366    -4.3306 C.2     
  35 C35            0.1094   -11.8853    -5.4449 C.2     
  36 N36            0.0930   -10.5835    -5.2826 N.2     
  37 C37            0.1036   -12.4683    -6.8345 C.3     
  38 H38            0.0227     0.0673     2.2858 H       
  39 H39            0.0247    -2.5999    -0.2594 H       
  40 H40            0.0869    -1.7364     6.2111 H       
  41 H41            0.1107    -6.7554     1.9541 H       
  42 H42            0.1234    -8.7233     0.4834 H       
  43 H43            0.0566    -6.1608    -2.9520 H       
  44 H44            0.0332    -4.1906    -1.4846 H       
  45 H45            1.6589     0.8797    -2.2541 H       
  46 H46            2.5312    -0.6610    -2.4375 H       
  47 H47            0.7839    -0.5828    -2.7675 H       
  48 H48            2.0740     4.4521     0.0069 H       
  49 H49           -2.1903     4.3939     0.0453 H       
  50 H50           -2.1570     1.9320     0.0227 H       
  51 H51           -0.0945     6.4505    -0.9892 H       
  52 H52           -0.9707     6.4290     0.5600 H       
  53 H53            0.8090     6.4533     0.5445 H       
  54 H54            2.7875     1.6092    -1.0431 H       
  55 H55            3.2364     2.3781     0.4982 H       
  56 H56            2.3675     0.8247     0.4985 H       
  57 H57            0.0568    -7.8476    -4.2333 H       
  58 H58            0.1532   -12.8448    -2.2155 H       
  59 H59            0.1441   -13.8082    -4.4644 H       
  60 H60           -0.9253   -12.6222    -7.1597 H       
  61 H61            0.6020   -11.7816    -7.5187 H       
  62 H62            0.6299   -13.4228    -6.8303 H       
@<TRIPOS>BOND
   1    1    2 1
   2    1   21 ar
   3    1   25 ar
   4    2    3 1
   5    2    4 2
   6    2   19 1
   7    3    5 1
   8    3   38 1
   9    5    6 2
  10    5    9 1
  11    6    7 1
  12    6   10 1
  13    7    8 1
  14    8    9 2
  15    8   13 1
  16    9   39 1
  17   10   11 2
  18   10   12 1
  19   12   40 1
  20   13   14 ar
  21   13   18 ar
  22   14   15 ar
  23   14   41 1
  24   15   16 ar
  25   15   42 1
  26   16   17 ar
  27   16   28 1
  28   17   18 ar
  29   17   43 1
  30   18   44 1
  31   19   20 1
  32   20   45 1
  33   20   46 1
  34   20   47 1
  35   21   22 ar
  36   21   27 1
  37   22   23 ar
  38   22   48 1
  39   23   24 ar
  40   23   26 1
  41   24   25 ar
  42   24   49 1
  43   25   50 1
  44   26   51 1
  45   26   52 1
  46   26   53 1
  47   27   54 1
  48   27   55 1
  49   27   56 1
  50   28   29 2
  51   28   32 1
  52   29   30 1
  53   30   33 1
  54   30   31 1
  55   31   32 2
  56   31   36 1
  57   32   57 1
  58   33   34 2
  59   33   58 1
  60   34   35 1
  61   34   59 1
  62   35   36 2
  63   35   37 1
  64   37   60 1
  65   37   61 1
  66   37   62 1

#	End of record

