#	Name: ASD01880330
#	Creating user name:	WinNT
#	Creation time:	15. 06. 2019 19:40

#	Modifying user name:	WinNT
#	Modification time:	15. 06. 2019 19:40

#	Program:	/corina/corina34_cracker 3.40 0067  02.08.2006

@<TRIPOS>MOLECULE
ASD01880330
  39   40    0    0    0
SMALL
NO_CHARGES


@<TRIPOS>ATOM
   1 C1            -0.8739     1.0122    -0.3635 C.ar    
   2 N2            -0.6822    -0.2986    -0.3186 N.ar    
   3 C3            -1.7030    -1.1415    -0.3534 C.ar    
   4 C4            -3.0209    -0.6238    -0.4404 C.ar    
   5 C5            -3.1702     0.7645    -0.4850 C.ar    
   6 N6            -2.0791     1.5401    -0.4395 N.ar    
   7 C7            -4.2991    -1.3097    -0.4945 C.2     
   8 C8            -5.3494    -0.5171    -0.5743 C.2     
   9 S9            -4.8768     1.1714    -0.5917 S.3     
  10 C10           -6.7751    -1.0007    -0.6420 C.3     
  11 N11           -1.4873    -2.5068    -0.3062 N.pl3   
  12 C12           -0.1219    -3.0300    -0.2169 C.3     
  13 C13           -0.1630    -4.5590    -0.1796 C.3     
  14 C14            0.9831    -6.8732     3.0592 C.2     
  15 C15            0.6697    -6.0395     2.0732 C.2     
  16 C16            1.5992    -5.8471     0.9492 C.2     
  17 C17            1.2416    -5.0973    -0.0878 C.2     
  18 O18            0.2021     1.8349    -0.3246 O.3     
  19 C19           -0.0534     3.2399    -0.3756 C.3     
  20 C20            2.2906    -7.6217     3.0261 C.3     
  21 H21           -4.3831    -2.3862    -0.4715 H       
  22 H22           -7.1766    -1.0905     0.3674 H       
  23 H23           -7.3740    -0.2880    -1.2091 H       
  24 H24           -6.8060    -1.9732    -1.1332 H       
  25 H25           -2.2402    -3.1179    -0.3321 H       
  26 H26            0.4500    -2.7030    -1.0852 H       
  27 H27            0.3515    -2.6571     0.6914 H       
  28 H28           -0.7349    -4.8861     0.6887 H       
  29 H29           -0.6364    -4.9320    -1.0879 H       
  30 H30            0.3007    -7.0145     3.8843 H       
  31 H31           -0.2673    -5.5031     2.0969 H       
  32 H32            2.5723    -6.3153     0.9669 H       
  33 H33            1.9575    -4.8735    -0.8648 H       
  34 H34           -0.5732     3.4813    -1.3028 H       
  35 H35           -0.6729     3.5277     0.4738 H       
  36 H36            0.8911     3.7826    -0.3368 H       
  37 H37            2.3304    -8.2442     2.1322 H       
  38 H38            3.1163    -6.9103     3.0104 H       
  39 H39            2.3709    -8.2521     3.9117 H       
@<TRIPOS>BOND
   1    1    2 ar
   2    1   18 1
   3    1    6 ar
   4    2    3 ar
   5    3    4 ar
   6    3   11 1
   7    4    5 ar
   8    4    7 1
   9    5    6 ar
  10    5    9 1
  11    7    8 2
  12    7   21 1
  13    8    9 1
  14    8   10 1
  15   10   22 1
  16   10   23 1
  17   10   24 1
  18   11   12 1
  19   11   25 1
  20   12   13 1
  21   12   26 1
  22   12   27 1
  23   13   17 1
  24   13   28 1
  25   13   29 1
  26   14   15 2
  27   14   20 1
  28   14   30 1
  29   15   16 1
  30   15   31 1
  31   16   17 2
  32   16   32 1
  33   17   33 1
  34   18   19 1
  35   19   34 1
  36   19   35 1
  37   19   36 1
  38   20   37 1
  39   20   38 1
  40   20   39 1

#	End of record

