#	Name: ASD01881514
#	Creating user name:	WinNT
#	Creation time:	15. 06. 2019 19:42

#	Modifying user name:	WinNT
#	Modification time:	15. 06. 2019 19:42

#	Program:	/corina/corina34_cracker 3.40 0067  02.08.2006

@<TRIPOS>MOLECULE
ASD01881514
  57   60    0    0    0
SMALL
NO_CHARGES


@<TRIPOS>ATOM
   1 C1             0.1133     1.0165     0.0082 C.ar    
   2 C2             0.0152    -0.3726    -0.0723 C.ar    
   3 C3             1.1732    -1.1502    -0.1397 C.ar    
   4 C4             2.4048    -0.5447    -0.1265 C.ar    
   5 C5             2.5093     0.8480    -0.0459 C.ar    
   6 C6             1.3487     1.6239     0.0214 C.ar    
   7 C7             3.8158    -1.0751    -0.1839 C.3     
   8 N8             4.6969     0.0969    -0.1307 N.am    
   9 C9             3.9397     1.2044    -0.0512 C.2     
  10 N10            6.0973     0.0665    -0.1576 N.2     
  11 C11            6.7137    -1.0553    -0.1359 C.2     
  12 C12            8.8287    -1.7355     0.9655 C.3     
  13 C13            8.2133    -1.0939    -0.2797 C.3     
  14 O14            4.3729     2.3391     0.0077 O.2     
  15 C15            1.4495     3.1250     0.1080 C.3     
  16 C16           -1.3173    -1.0230    -0.0858 C.ar    
  17 C17           -2.4729    -0.2487    -0.0182 C.ar    
  18 C18           -3.7162    -0.8635    -0.0312 C.ar    
  19 C19           -3.8054    -2.2481    -0.1115 C.ar    
  20 C20           -2.6579    -3.0156    -0.1786 C.ar    
  21 C21           -1.4169    -2.4114    -0.1720 C.ar    
  22 N22           -4.8783    -0.0912     0.0369 N.am    
  23 C23           10.3512    -1.7748     0.8195 C.3     
  24 C24           10.7241    -2.5976    -0.4154 C.3     
  25 C25           10.1087    -1.9559    -1.6606 C.3     
  26 C26            8.5862    -1.9167    -1.5146 C.3     
  27 S27           -5.3902     0.7534    -1.2923 S.o2    
  28 O28           -6.5716     1.4114    -0.8558 O.2     
  29 O29           -4.2472     1.4933    -1.6990 O.2     
  30 C30           -5.7889    -0.5256    -2.5154 C.3     
  31 H31           -0.7827     1.6176     0.0557 H       
  32 H32            1.0998    -2.2260    -0.2017 H       
  33 H33            4.0063    -1.7261     0.6693 H       
  34 H34            3.9735    -1.6204    -1.1144 H       
  35 H35            6.1590    -1.9740    -0.0146 H       
  36 H36            8.5631    -1.1494     1.8452 H       
  37 H37            8.4481    -2.7508     1.0768 H       
  38 H38            8.5939    -0.0786    -0.3911 H       
  39 H39            1.4547     3.5474    -0.8969 H       
  40 H40            0.5956     3.5152     0.6617 H       
  41 H41            2.3712     3.3982     0.6217 H       
  42 H42           -2.4012     0.8271     0.0445 H       
  43 H43           -4.7741    -2.7256    -0.1212 H       
  44 H44           -2.7326    -4.0912    -0.2409 H       
  45 H45           -0.5225    -3.0145    -0.2245 H       
  46 H46           -5.3854    -0.0498     0.8628 H       
  47 H47           10.7318    -0.7595     0.7081 H       
  48 H48           10.7896    -2.2319     1.7066 H       
  49 H49           11.8088    -2.6255    -0.5194 H       
  50 H50           10.3435    -3.6129    -0.3040 H       
  51 H51           10.4893    -0.9406    -1.7720 H       
  52 H52           10.3744    -2.5421    -2.5404 H       
  53 H53            8.2056    -2.9320    -1.4032 H       
  54 H54            8.1478    -1.4596    -2.4017 H       
  55 H55           -6.6290    -1.1209    -2.1579 H       
  56 H56           -6.0545    -0.0535    -3.4613 H       
  57 H57           -4.9226    -1.1707    -2.6620 H       
@<TRIPOS>BOND
   1    1    2 ar
   2    1    6 ar
   3    1   31 1
   4    2    3 ar
   5    2   16 1
   6    3    4 ar
   7    3   32 1
   8    4    5 ar
   9    4    7 1
  10    5    6 ar
  11    5    9 1
  12    6   15 1
  13    7    8 1
  14    7   33 1
  15    7   34 1
  16    8    9 am
  17    8   10 1
  18    9   14 2
  19   10   11 2
  20   11   13 1
  21   11   35 1
  22   12   13 1
  23   12   23 1
  24   12   36 1
  25   12   37 1
  26   13   26 1
  27   13   38 1
  28   15   39 1
  29   15   40 1
  30   15   41 1
  31   16   17 ar
  32   16   21 ar
  33   17   18 ar
  34   17   42 1
  35   18   19 ar
  36   18   22 1
  37   19   20 ar
  38   19   43 1
  39   20   21 ar
  40   20   44 1
  41   21   45 1
  42   22   27 am
  43   22   46 1
  44   23   24 1
  45   23   47 1
  46   23   48 1
  47   24   25 1
  48   24   49 1
  49   24   50 1
  50   25   26 1
  51   25   51 1
  52   25   52 1
  53   26   53 1
  54   26   54 1
  55   27   28 2
  56   27   29 2
  57   27   30 1
  58   30   55 1
  59   30   56 1
  60   30   57 1

#	End of record

