#	Name: ASD01209067
#	Creating user name:	WinNT
#	Creation time:	15. 06. 2019 19:10

#	Modifying user name:	WinNT
#	Modification time:	15. 06. 2019 19:10

#	Program:	/corina/corina34_cracker 3.40 0067  02.08.2006

@<TRIPOS>MOLECULE
ASD01209067
  47   48    0    0    0
SMALL
NO_CHARGES


@<TRIPOS>ATOM
   1 C1             1.1716     1.2146    -0.6008 C.ar    
   2 S2             3.8138     4.5132    -2.2283 S.o2    
   3 O3             3.2002     5.7108    -1.7718 O.2     
   4 O4             5.1225     4.1538    -1.8069 O.2     
   5 N5             0.3553     0.1954    -0.0980 N.am    
   6 C6             0.8238    -1.0658    -0.0185 C.2     
   7 C7            -0.0063    -2.1378     0.6394 C.3     
   8 O8             1.9134    -1.3380    -0.4764 O.2     
   9 C9            -1.1083    -2.5906    -0.3205 C.3     
  10 C10            0.8859    -3.3301     0.9905 C.3     
  11 C11           -1.0086     0.4993     0.3420 C.3     
  12 C12           -0.9575     1.3088     1.6393 C.3     
  13 C13           -2.3833     1.6682     2.0928 C.3     
  14 C14           -2.5795     1.0250     3.4812 C.3     
  15 C15           -1.1406     0.8600     4.0301 C.3     
  16 C16           -0.3370     0.4596     2.7679 C.3     
  17 C17            2.5113     0.9649    -0.8682 C.ar    
  18 C18            3.3143     1.9729    -1.3649 C.ar    
  19 C19            2.7857     3.2297    -1.5956 C.ar    
  20 C20            1.4521     3.4815    -1.3304 C.ar    
  21 C21            0.6425     2.4762    -0.8390 C.ar    
  22 C22            3.6628     4.3674    -4.0301 C.3     
  23 H23           -0.4572    -1.7412     1.5491 H       
  24 H24           -0.6571    -2.9983    -1.2252 H       
  25 H25           -1.7160    -3.3575     0.1597 H       
  26 H26           -1.7367    -1.7387    -0.5801 H       
  27 H27            1.3369    -3.7268     0.0808 H       
  28 H28            1.6710    -3.0075     1.6744 H       
  29 H29            0.2855    -4.1055     1.4663 H       
  30 H30           -1.5182     1.0787    -0.4279 H       
  31 H31           -1.5503    -0.4306     0.5151 H       
  32 H32           -0.3732     2.2167     1.4898 H       
  33 H33           -2.4907     2.7506     2.1643 H       
  34 H34           -3.1117     1.2660     1.3887 H       
  35 H35           -3.1613     1.6823     4.1274 H       
  36 H36           -3.0653     0.0539     3.3865 H       
  37 H37           -0.7731     1.8009     4.4396 H       
  38 H38           -1.1014     0.0697     4.7798 H       
  39 H39           -0.4607    -0.6028     2.5580 H       
  40 H40            0.7177     0.7043     2.8936 H       
  41 H41            2.9249    -0.0163    -0.6876 H       
  42 H42            4.3562     1.7794    -1.5730 H       
  43 H43            1.0423     4.4641    -1.5117 H       
  44 H44           -0.3990     2.6735    -0.6321 H       
  45 H45            4.2738     5.1325    -4.5090 H       
  46 H46            4.0034     3.3809    -4.3446 H       
  47 H47            2.6204     4.5012    -4.3193 H       
@<TRIPOS>BOND
   1    1    5 1
   2    1   17 ar
   3    1   21 ar
   4    2    3 2
   5    2    4 2
   6    2   19 1
   7    2   22 1
   8    5    6 am
   9    5   11 1
  10    6    7 1
  11    6    8 2
  12    7    9 1
  13    7   10 1
  14    7   23 1
  15    9   24 1
  16    9   25 1
  17    9   26 1
  18   10   27 1
  19   10   28 1
  20   10   29 1
  21   11   12 1
  22   11   30 1
  23   11   31 1
  24   12   13 1
  25   12   16 1
  26   12   32 1
  27   13   14 1
  28   13   33 1
  29   13   34 1
  30   14   15 1
  31   14   35 1
  32   14   36 1
  33   15   16 1
  34   15   37 1
  35   15   38 1
  36   16   39 1
  37   16   40 1
  38   17   18 ar
  39   17   41 1
  40   18   19 ar
  41   18   42 1
  42   19   20 ar
  43   20   21 ar
  44   20   43 1
  45   21   44 1
  46   22   45 1
  47   22   46 1
  48   22   47 1

#	End of record

