#	Name: ASD02560485
#	Creating user name:	WinNT
#	Creation time:	15. 06. 2019 20:25

#	Modifying user name:	WinNT
#	Modification time:	15. 06. 2019 20:25

#	Program:	/corina/corina34_cracker 3.40 0067  02.08.2006

@<TRIPOS>MOLECULE
ASD02560485
  44   47    0    0    0
SMALL
NO_CHARGES


@<TRIPOS>ATOM
   1 C1            -0.0036     1.4179     0.0747 C.2     
   2 C2             0.0095     0.0135     0.0013 C.2     
   3 C3             1.1789    -0.6565    -0.0209 C.2     
   4 N4             2.3695     0.0179     0.0270 N.pl3   
   5 C5             2.3881     1.3921     0.0987 C.2     
   6 C6             1.1694     2.1031     0.1230 C.2     
   7 C7             3.6693    -0.4068     0.0189 C.2     
   8 C8             4.4583     0.7221     0.0862 C.2     
   9 N9             3.6477     1.7950     0.1332 N.2     
  10 C10            5.9399     0.7489     0.1031 C.ar    
  11 N11            4.1121    -1.7287    -0.0444 N.3     
  12 C12            2.9887    -2.6668     0.0817 C.3     
  13 C13            2.3641    -2.9542    -1.3062 C.3     
  14 C14            6.6173     1.9668     0.1738 C.ar    
  15 C15            3.4874    -4.0444     0.5647 C.3     
  16 C16            2.6550    -5.1003    -0.1836 C.3     
  17 C17            1.6796    -4.3275    -1.0952 C.3     
  18 C18            6.6619    -0.4432     0.0542 C.ar    
  19 C19            8.0418    -0.4152     0.0706 C.ar    
  20 C20            8.7128     0.7920     0.1359 C.ar    
  21 C21            8.0035     1.9837     0.1897 C.ar    
  22 F22            5.9246     3.1256     0.2262 F       
  23 O23            8.6682     3.1681     0.2533 O.3     
  24 C24           10.0960     3.1111     0.2611 C.3     
  25 H25           -0.9430     1.9507     0.0882 H       
  26 H26           -0.9224    -0.5311    -0.0371 H       
  27 H27            1.1767    -1.7351    -0.0767 H       
  28 H28            1.1687     3.1816     0.1788 H       
  29 H29            4.6296    -1.8963    -0.8942 H       
  30 H30            2.2378    -2.2716     0.7658 H       
  31 H31            1.6291    -2.1919    -1.5644 H       
  32 H32            3.1374    -3.0216    -2.0714 H       
  33 H33            4.5441    -4.1639     0.3256 H       
  34 H34            3.3341    -4.1412     1.6395 H       
  35 H35            3.3078    -5.7322    -0.7858 H       
  36 H36            2.0978    -5.7095     0.5281 H       
  37 H37            0.7155    -4.2016    -0.6025 H       
  38 H38            1.5577    -4.8434    -2.0477 H       
  39 H39            6.1415    -1.3882     0.0039 H       
  40 H40            8.5993    -1.3394     0.0327 H       
  41 H41            9.7926     0.8075     0.1491 H       
  42 H42           10.4997     4.1222     0.3142 H       
  43 H43           10.4322     2.5398     1.1263 H       
  44 H44           10.4453     2.6279    -0.6514 H       
@<TRIPOS>BOND
   1    1    2 1
   2    1    6 2
   3    1   25 1
   4    2    3 2
   5    2   26 1
   6    3    4 1
   7    3   27 1
   8    4    5 1
   9    4    7 1
  10    5    6 1
  11    5    9 2
  12    6   28 1
  13    7    8 2
  14    7   11 1
  15    8    9 1
  16    8   10 1
  17   10   14 ar
  18   10   18 ar
  19   11   12 1
  20   11   29 1
  21   12   15 1
  22   12   13 1
  23   12   30 1
  24   13   17 1
  25   13   31 1
  26   13   32 1
  27   14   22 1
  28   14   21 ar
  29   15   16 1
  30   15   33 1
  31   15   34 1
  32   16   17 1
  33   16   35 1
  34   16   36 1
  35   17   37 1
  36   17   38 1
  37   18   19 ar
  38   18   39 1
  39   19   20 ar
  40   19   40 1
  41   20   21 ar
  42   20   41 1
  43   21   23 1
  44   23   24 1
  45   24   42 1
  46   24   43 1
  47   24   44 1

#	End of record

