#	Name: ASD01816547
#	Creating user name:	WinNT
#	Creation time:	15. 06. 2019 19:35

#	Modifying user name:	WinNT
#	Modification time:	15. 06. 2019 19:35

#	Program:	/corina/corina34_cracker 3.40 0067  02.08.2006

@<TRIPOS>MOLECULE
ASD01816547
  48   52    0    0    0
SMALL
NO_CHARGES


@<TRIPOS>ATOM
   1 C1            -0.0167     1.3813     0.0096 C.ar    
   2 C2             0.0021    -0.0041     0.0020 C.ar    
   3 C3             1.1984    -0.6909    -0.0131 C.ar    
   4 C4             2.4015     0.0059    -0.0209 C.ar    
   5 C5             2.3790     1.4106    -0.0132 C.ar    
   6 C6             1.1663     2.0916     0.0022 C.ar    
   7 N7             3.6053    -0.6772    -0.0356 N.pl3   
   8 C8             4.7970    -0.0586    -0.0437 C.2     
   9 C9             4.9000     1.3103    -0.0378 C.2     
  10 C10            3.6670     2.1301    -0.0217 C.2     
  11 C11            5.9971     2.2729    -0.0436 C.2     
  12 N12            5.4245     3.4961    -0.0323 N.am    
  13 N13            4.0323     3.3799    -0.0193 N.2     
  14 C14            6.1264     4.7082    -0.0328 C.ar    
  15 O15            7.1914     2.0229    -0.0556 O.2     
  16 C16            3.5779    -2.1419    -0.0422 C.3     
  17 C17            3.5549    -2.6375    -1.4652 C.ar    
  18 C18            4.7411    -2.8871    -2.1293 C.ar    
  19 C19            4.7200    -3.3418    -3.4348 C.ar    
  20 C20            3.5127    -3.5471    -4.0756 C.ar    
  21 C21            2.3262    -3.2983    -3.4110 C.ar    
  22 C22            2.3472    -2.8479    -2.1045 C.ar    
  23 C23            6.5546     5.2637    -1.2306 C.ar    
  24 C24            7.2468     6.4595    -1.2280 C.ar    
  25 C25            7.5142     7.1036    -0.0343 C.ar    
  26 C26            7.0902     6.5541     1.1621 C.ar    
  27 C27            6.3911     5.3611     1.1668 C.ar    
  28 F28            5.9768     4.8242     2.3352 F       
  29 C29            6.0133    -3.6130    -4.1592 C.3     
  30 O30            6.4036    -4.9708    -3.9449 O.3     
  31 H31           -0.9602     1.9068     0.0170 H       
  32 H32           -0.9289    -0.5516     0.0083 H       
  33 H33            1.2004    -1.7709    -0.0186 H       
  34 H34            1.1506     3.1715     0.0077 H       
  35 H35            5.6983    -0.6536    -0.0548 H       
  36 H36            4.4658    -2.5242     0.4614 H       
  37 H37            2.6862    -2.4910     0.4786 H       
  38 H38            5.6844    -2.7267    -1.6285 H       
  39 H39            3.4962    -3.9016    -5.0957 H       
  40 H40            1.3828    -3.4584    -3.9119 H       
  41 H41            1.4203    -2.6536    -1.5853 H       
  42 H42            6.3472     4.7614    -2.1639 H       
  43 H43            7.5799     6.8916    -2.1600 H       
  44 H44            8.0558     8.0380    -0.0359 H       
  45 H45            7.3010     7.0596     2.0929 H       
  46 H46            5.8755    -3.4387    -5.2263 H       
  47 H47            6.7888    -2.9477    -3.7796 H       
  48 H48            7.2299    -5.2164    -4.3831 H       
@<TRIPOS>BOND
   1    1    2 ar
   2    1    6 ar
   3    1   31 1
   4    2    3 ar
   5    2   32 1
   6    3    4 ar
   7    3   33 1
   8    4    5 ar
   9    4    7 1
  10    5    6 ar
  11    5   10 1
  12    6   34 1
  13    7    8 1
  14    7   16 1
  15    8    9 2
  16    8   35 1
  17    9   10 1
  18    9   11 1
  19   10   13 2
  20   11   12 am
  21   11   15 2
  22   12   13 1
  23   12   14 1
  24   14   23 ar
  25   14   27 ar
  26   16   17 1
  27   16   36 1
  28   16   37 1
  29   17   18 ar
  30   17   22 ar
  31   18   19 ar
  32   18   38 1
  33   19   20 ar
  34   19   29 1
  35   20   21 ar
  36   20   39 1
  37   21   22 ar
  38   21   40 1
  39   22   41 1
  40   23   24 ar
  41   23   42 1
  42   24   25 ar
  43   24   43 1
  44   25   26 ar
  45   25   44 1
  46   26   27 ar
  47   26   45 1
  48   27   28 1
  49   29   30 1
  50   29   46 1
  51   29   47 1
  52   30   48 1

#	End of record

