#	Name: ASD01910746
#	Creating user name:	WinNT
#	Creation time:	15. 06. 2019 19:56

#	Modifying user name:	WinNT
#	Modification time:	15. 06. 2019 19:56

#	Program:	/corina/corina34_cracker 3.40 0067  02.08.2006

@<TRIPOS>MOLECULE
ASD01910746
  51   54    0    0    0
SMALL
NO_CHARGES


@<TRIPOS>ATOM
   1 C1            12.4210    -2.2992     4.1748 C.ar    
   2 N2            12.9657    -2.4597     2.9805 N.ar    
   3 C3            12.2898    -2.1321     1.8957 C.ar    
   4 C4            11.0008    -1.6166     2.0101 C.ar    
   5 N5            10.4582    -1.4572     3.2104 N.ar    
   6 C6            11.1424    -1.7880     4.2924 C.ar    
   7 N7            10.2852    -1.2696     0.8701 N.3     
   8 C8             8.9566    -0.7500     1.2204 C.3     
   9 C9             8.2729    -0.2127    -0.0414 C.3     
  10 N10            8.2773    -1.2717    -1.0621 N.am    
  11 C11            9.5526    -1.9367    -1.3694 C.3     
  12 C12           10.1859    -2.4061    -0.0553 C.3     
  13 C13            7.1426    -1.6236    -1.6985 C.2     
  14 C14            7.1894    -2.6011    -2.8071 C.ar    
  15 O15            6.0808    -1.1376    -1.3613 O.2     
  16 C16            6.1831    -3.5608    -2.9367 C.ar    
  17 C17            6.2245    -4.4750    -3.9713 C.ar    
  18 C18            7.2593    -4.4476    -4.8842 C.ar    
  19 C19            8.2740    -3.4925    -4.7666 C.ar    
  20 C20            8.2344    -2.5629    -3.7277 C.ar    
  21 C21            9.3475    -3.4652    -5.7140 C.1     
  22 C22           10.2275    -3.4427    -6.4907 C.1     
  23 C23           11.3010    -3.4154    -7.4381 C.ar    
  24 C24            7.2959    -5.4491    -6.0097 C.3     
  25 C25           12.3155    -2.4618    -7.3219 C.ar    
  26 C26           13.3470    -2.4412    -8.2376 C.ar    
  27 C27           13.3788    -3.3615    -9.2699 C.ar    
  28 C28           12.3766    -4.3097    -9.3923 C.ar    
  29 C29           11.3418    -4.3459    -8.4797 C.ar    
  30 Cl30          12.4257    -5.4592   -10.6923 Cl      
  31 H31           12.9752    -2.5726     5.0605 H       
  32 H32           12.7353    -2.2630     0.9206 H       
  33 H33           10.7013    -1.6586     5.2697 H       
  34 H34            8.3536    -1.5513     1.6476 H       
  35 H35            9.0610     0.0547     1.9482 H       
  36 H36            7.2456     0.0684     0.1902 H       
  37 H37            8.8183     0.6553    -0.4120 H       
  38 H38            9.3713    -2.7954    -2.0158 H       
  39 H39           10.2210    -1.2345    -1.8676 H       
  40 H40           11.1819    -2.8025    -0.2527 H       
  41 H41            9.5658    -3.1844     0.3896 H       
  42 H42            5.3705    -3.5885    -2.2259 H       
  43 H43            5.4437    -5.2150    -4.0661 H       
  44 H44            9.0152    -1.8229    -3.6317 H       
  45 H45            6.7658    -5.0457    -6.8724 H       
  46 H46            8.3317    -5.6520    -6.2819 H       
  47 H47            6.8167    -6.3740    -5.6887 H       
  48 H48           12.2920    -1.7420    -6.5170 H       
  49 H49           14.1317    -1.7044    -8.1485 H       
  50 H50           14.1888    -3.3402    -9.9841 H       
  51 H51           10.5609    -5.0858    -8.5756 H       
@<TRIPOS>BOND
   1    1    2 ar
   2    1    6 ar
   3    1   31 1
   4    2    3 ar
   5    3    4 ar
   6    3   32 1
   7    4    5 ar
   8    4    7 1
   9    5    6 ar
  10    6   33 1
  11    7    8 1
  12    7   12 1
  13    8    9 1
  14    8   34 1
  15    8   35 1
  16    9   10 1
  17    9   36 1
  18    9   37 1
  19   10   11 1
  20   10   13 am
  21   11   12 1
  22   11   38 1
  23   11   39 1
  24   12   40 1
  25   12   41 1
  26   13   14 1
  27   13   15 2
  28   14   16 ar
  29   14   20 ar
  30   16   17 ar
  31   16   42 1
  32   17   18 ar
  33   17   43 1
  34   18   19 ar
  35   18   24 1
  36   19   20 ar
  37   19   21 1
  38   20   44 1
  39   21   22 3
  40   22   23 1
  41   23   25 ar
  42   23   29 ar
  43   24   45 1
  44   24   46 1
  45   24   47 1
  46   25   26 ar
  47   25   48 1
  48   26   27 ar
  49   26   49 1
  50   27   28 ar
  51   27   50 1
  52   28   29 ar
  53   28   30 1
  54   29   51 1

#	End of record

