#	Name: ASD01209049
#	Creating user name:	WinNT
#	Creation time:	15. 06. 2019 19:10

#	Modifying user name:	WinNT
#	Modification time:	15. 06. 2019 19:10

#	Program:	/corina/corina34_cracker 3.40 0067  02.08.2006

@<TRIPOS>MOLECULE
ASD01209049
  59   63    0    0    0
SMALL
NO_CHARGES


@<TRIPOS>ATOM
   1 C1            -0.0187     1.5275     0.0104 C.3     
   2 C2             0.0021    -0.0041     0.0020 C.3     
   3 C3            -1.4312    -0.5350    -0.0664 C.3     
   4 C4            -1.4162    -2.0604     0.0508 C.3     
   5 C5            -2.8132    -2.5927    -0.1394 C.2     
   6 N6            -3.4713    -2.3612    -1.2925 N.am    
   7 C7            -4.7706    -2.8562    -1.4694 C.2     
   8 N8            -0.9239    -2.4435     1.3763 N.pl3   
   9 C9             0.1873    -3.2073     1.6216 C.ar    
  10 C10            0.2935    -3.3308     3.0207 C.ar    
  11 C11           -0.8296    -2.5886     3.5841 C.2     
  12 N12           -1.5091    -2.0834     2.5946 N.2     
  13 C13            1.8169    -2.5444     5.9078 C.3     
  14 O14           -3.3452    -3.2294     0.7453 O.2     
  15 C15            1.1348    -3.8215     0.8069 C.ar    
  16 C16            2.1549    -4.5356     1.3693 C.ar    
  17 C17            2.2614    -4.6585     2.7490 C.ar    
  18 C18            1.3479    -4.0664     3.5725 C.ar    
  19 C19            2.1128    -2.3597     7.3975 C.3     
  20 C20            3.2381    -2.2176     6.3707 C.3     
  21 C21            0.7862    -0.4864    -1.2223 C.3     
  22 C22            2.1942     0.1136    -1.1856 C.3     
  23 O23            2.1023     1.5392    -1.1479 O.3     
  24 C24            1.4204     2.0497    -0.0005 C.3     
  25 C25           -5.5026    -3.6046    -0.5336 C.2     
  26 C26           -6.7062    -3.8895    -1.0804 C.2     
  27 N27           -6.7396    -3.3446    -2.3147 N.pl3   
  28 N28           -5.5177    -2.6965    -2.5362 N.2     
  29 C29           -7.8601    -3.4139    -3.2560 C.3     
  30 S30            1.4941    -4.2302     5.3208 S.o2    
  31 O31            2.6411    -5.0493     5.5013 O.2     
  32 O32            0.2086    -4.6668     5.7406 O.2     
  33 H33           -0.5443     1.8896    -0.8732 H       
  34 H34           -0.5273     1.8800     0.9078 H       
  35 H35            0.4824    -0.3672     0.9106 H       
  36 H36           -2.0143    -0.1134     0.7523 H       
  37 H37           -1.8799    -0.2481    -1.0175 H       
  38 H38           -0.7613    -2.4772    -0.7145 H       
  39 H39           -3.0458    -1.8520    -2.0000 H       
  40 H40           -1.0545    -2.4748     4.6343 H       
  41 H41            1.2575    -1.7560     5.4043 H       
  42 H42            1.0634    -3.7340    -0.2672 H       
  43 H43            2.8873    -5.0106     0.7334 H       
  44 H44            3.0752    -5.2272     3.1741 H       
  45 H45            1.7484    -1.4496     7.8740 H       
  46 H46            2.1135    -3.2511     8.0248 H       
  47 H47            3.9791    -3.0156     6.3225 H       
  48 H48            3.6140    -1.2141     6.1716 H       
  49 H49            0.8533    -1.5742    -1.2065 H       
  50 H50            0.2769    -0.1650    -2.1308 H       
  51 H51            2.7172    -0.2406    -0.2973 H       
  52 H52            2.7428    -0.1919    -2.0766 H       
  53 H53            1.4115     3.1390    -0.0377 H       
  54 H54            1.9333     1.7209     0.9033 H       
  55 H55           -5.1643    -3.9004     0.4484 H       
  56 H56           -7.4997    -4.4533    -0.6125 H       
  57 H57           -8.5222    -2.5630    -3.0959 H       
  58 H58           -7.4789    -3.3905    -4.2769 H       
  59 H59           -8.4127    -4.3396    -3.0956 H       
@<TRIPOS>BOND
   1    1    2 1
   2    1   24 1
   3    1   33 1
   4    1   34 1
   5    2    3 1
   6    2   21 1
   7    2   35 1
   8    3    4 1
   9    3   36 1
  10    3   37 1
  11    4    5 1
  12    4    8 1
  13    4   38 1
  14    5    6 am
  15    5   14 2
  16    6    7 1
  17    6   39 1
  18    7   25 1
  19    7   28 2
  20    8    9 1
  21    8   12 1
  22    9   10 ar
  23    9   15 ar
  24   10   11 1
  25   10   18 ar
  26   11   12 2
  27   11   40 1
  28   13   19 1
  29   13   30 1
  30   13   20 1
  31   13   41 1
  32   15   16 ar
  33   15   42 1
  34   16   17 ar
  35   16   43 1
  36   17   18 ar
  37   17   44 1
  38   18   30 1
  39   19   20 1
  40   19   45 1
  41   19   46 1
  42   20   47 1
  43   20   48 1
  44   21   22 1
  45   21   49 1
  46   21   50 1
  47   22   23 1
  48   22   51 1
  49   22   52 1
  50   23   24 1
  51   24   53 1
  52   24   54 1
  53   25   26 2
  54   25   55 1
  55   26   27 1
  56   26   56 1
  57   27   28 1
  58   27   29 1
  59   29   57 1
  60   29   58 1
  61   29   59 1
  62   30   31 2
  63   30   32 2

#	End of record

