#	Name: ASD07301115
#	Creating user name:	WinNT
#	Creation time:	15. 06. 2019 21:11

#	Modifying user name:	WinNT
#	Modification time:	15. 06. 2019 21:11

#	Program:	/corina/corina34_cracker 3.40 0067  02.08.2006

@<TRIPOS>MOLECULE
ASD07301115
  45   46    0    0    0
SMALL
NO_CHARGES


@<TRIPOS>ATOM
   1 C1            -0.0341     1.4625    -0.1356 C.2     
   2 C2            -0.0011    -0.0025    -0.0193 C.2     
   3 C3             1.2779    -0.7088    -0.0454 C.2     
   4 C4             1.3118    -2.2107     0.0738 C.3     
   5 O5             1.0028     2.0969    -0.1226 O.2     
   6 O6            -1.2141     2.1022    -0.2622 O.3     
   7 O7             2.3130    -0.0858    -0.1632 O.2     
   8 O8             2.6666    -2.6622     0.0222 O.3     
   9 C9             2.8112    -4.0800     0.1274 C.3     
  10 N10           -1.1288    -0.6813     0.1090 N.2     
  11 N11           -2.2378    -0.0561     0.3171 N.pl3   
  12 C12           -3.4438    -0.7585     0.3261 C.ar    
  13 C13           -4.6411    -0.0839     0.5507 C.ar    
  14 C14           -5.8348    -0.7800     0.5595 C.ar    
  15 C15           -5.8403    -2.1522     0.3447 C.ar    
  16 C16           -4.6441    -2.8267     0.1207 C.ar    
  17 C17           -3.4508    -2.1309     0.1051 C.ar    
  18 N18           -7.0486    -2.8563     0.3542 N.3     
  19 C19           -7.7269    -2.7215     1.6515 C.3     
  20 C20           -9.0692    -3.4557     1.5983 C.3     
  21 O21           -8.8453    -4.8230     1.2438 O.3     
  22 C22           -8.1870    -4.9912    -0.0146 C.3     
  23 C23           -6.8357    -4.2726     0.0223 C.3     
  24 F24           -4.6503    -4.1615    -0.0877 F       
  25 F25           -4.6356     1.2507     0.7605 F       
  26 C26           -1.1709     3.5494    -0.3722 C.3     
  27 H27            0.8650    -2.5101     1.0219 H       
  28 H28            0.7497    -2.6533    -0.7486 H       
  29 H29            2.3955    -4.4182     1.0765 H       
  30 H30            2.2803    -4.5613    -0.6939 H       
  31 H31            3.8682    -4.3419     0.0798 H       
  32 H32           -2.2335     0.9022     0.4674 H       
  33 H33           -6.7635    -0.2571     0.7337 H       
  34 H34           -2.5230    -2.6538    -0.0740 H       
  35 H35           -7.1051    -3.1562     2.4342 H       
  36 H36           -7.8973    -1.6663     1.8652 H       
  37 H37           -9.5498    -3.4070     2.5754 H       
  38 H38           -9.7112    -2.9868     0.8525 H       
  39 H39           -8.0295    -6.0530    -0.2040 H       
  40 H40           -8.8033    -4.5670    -0.8073 H       
  41 H41           -6.3557    -4.3496    -0.9533 H       
  42 H42           -6.1997    -4.7320     0.7789 H       
  43 H43           -2.1852     3.9369    -0.4684 H       
  44 H44           -0.7052     3.9678     0.5201 H       
  45 H45           -0.5900     3.8299    -1.2508 H       
@<TRIPOS>BOND
   1    1    2 1
   2    1    5 2
   3    1    6 1
   4    2    3 1
   5    2   10 2
   6    3    4 1
   7    3    7 2
   8    4    8 1
   9    4   27 1
  10    4   28 1
  11    6   26 1
  12    8    9 1
  13    9   29 1
  14    9   30 1
  15    9   31 1
  16   10   11 1
  17   11   12 1
  18   11   32 1
  19   12   13 ar
  20   12   17 ar
  21   13   14 ar
  22   13   25 1
  23   14   15 ar
  24   14   33 1
  25   15   16 ar
  26   15   18 1
  27   16   17 ar
  28   16   24 1
  29   17   34 1
  30   18   19 1
  31   18   23 1
  32   19   20 1
  33   19   35 1
  34   19   36 1
  35   20   21 1
  36   20   37 1
  37   20   38 1
  38   21   22 1
  39   22   23 1
  40   22   39 1
  41   22   40 1
  42   23   41 1
  43   23   42 1
  44   26   43 1
  45   26   44 1
  46   26   45 1

#	End of record

