#	Name: ASD03330182
#	Creating user name:	WinNT
#	Creation time:	15. 06. 2019 20:36

#	Modifying user name:	WinNT
#	Modification time:	15. 06. 2019 20:36

#	Program:	/corina/corina34_cracker 3.40 0067  02.08.2006

@<TRIPOS>MOLECULE
ASD03330182
  52   55    0    0    0
SMALL
NO_CHARGES


@<TRIPOS>ATOM
   1 C1            -0.5998     0.6167    -2.9898 C.ar    
   2 C2            -1.9091     0.8584    -3.3633 C.ar    
   3 C3            -2.9488     0.3519    -2.6083 C.ar    
   4 C4            -2.6782    -0.4007    -1.4730 C.ar    
   5 C5            -1.3623    -0.6415    -1.1007 C.ar    
   6 C6            -0.3270    -0.1371    -1.8631 C.ar    
   7 N7            -3.7294    -0.9148    -0.7057 N.am    
   8 C8            -4.8841    -0.2280    -0.5983 C.2     
   9 N9            -5.9331    -0.7707     0.0508 N.am    
  10 O10           -4.9793     0.8813    -1.0870 O.2     
  11 C11           -7.0946    -0.0174     0.2566 C.ar    
  12 C12           -8.3333    -0.6400     0.2601 C.ar    
  13 C13           -9.4863     0.1138     0.4653 C.ar    
  14 C14           -9.3884     1.4896     0.6658 C.ar    
  15 C15           -8.1509     2.1020     0.6609 C.ar    
  16 C16           -7.0060     1.3540     0.4631 C.ar    
  17 C17          -10.8151    -0.5458     0.4698 C.ar    
  18 N18          -10.8990    -1.8568     0.2775 N.ar    
  19 C19          -11.9610     0.2146     0.6812 C.ar    
  20 C20          -13.1981    -0.4115     0.6840 C.ar    
  21 C21          -13.2492    -1.7787     0.4751 C.ar    
  22 C22          -12.0646    -2.4820     0.2748 C.ar    
  23 N23          -12.1077    -3.8552     0.0639 N.3     
  24 C24          -10.7521    -4.4035    -0.1253 C.3     
  25 C25          -10.5510    -5.5029     0.9387 C.3     
  26 C26          -12.0040    -5.9069     1.3028 C.3     
  27 C27          -12.7401    -4.5472     1.2071 C.3     
  28 C28            0.5322     1.1708    -3.8160 C.3     
  29 H29           -2.1189     1.4440    -4.2461 H       
  30 H30           -3.9712     0.5413    -2.9003 H       
  31 H31           -1.1486    -1.2262    -0.2181 H       
  32 H32            0.6966    -0.3241    -1.5740 H       
  33 H33           -3.6271    -1.7655    -0.2510 H       
  34 H34           -5.8832    -1.6835     0.3754 H       
  35 H35           -8.4040    -1.7063     0.1039 H       
  36 H36          -10.2807     2.0768     0.8248 H       
  37 H37           -8.0772     3.1682     0.8165 H       
  38 H38           -6.0404     1.8377     0.4605 H       
  39 H39          -11.8876     1.2801     0.8417 H       
  40 H40          -14.1027     0.1557     0.8462 H       
  41 H41          -14.1977    -2.2952     0.4720 H       
  42 H42          -10.6616    -4.8323    -1.1233 H       
  43 H43          -10.0112    -3.6157     0.0107 H       
  44 H44          -10.0089    -6.3505     0.5194 H       
  45 H45          -10.0316    -5.1050     1.8106 H       
  46 H46          -12.4038    -6.6190     0.5810 H       
  47 H47          -12.0556    -6.3084     2.3149 H       
  48 H48          -12.5986    -3.9738     2.1232 H       
  49 H49          -13.8018    -4.7032     1.0162 H       
  50 H50            0.8010     2.1605    -3.4467 H       
  51 H51            1.3947     0.5085    -3.7412 H       
  52 H52            0.2198     1.2442    -4.8577 H       
@<TRIPOS>BOND
   1    1    2 ar
   2    1   28 1
   3    1    6 ar
   4    2    3 ar
   5    2   29 1
   6    3    4 ar
   7    3   30 1
   8    4    5 ar
   9    4    7 1
  10    5    6 ar
  11    5   31 1
  12    6   32 1
  13    7    8 am
  14    7   33 1
  15    8    9 am
  16    8   10 2
  17    9   11 1
  18    9   34 1
  19   11   12 ar
  20   11   16 ar
  21   12   13 ar
  22   12   35 1
  23   13   14 ar
  24   13   17 1
  25   14   15 ar
  26   14   36 1
  27   15   16 ar
  28   15   37 1
  29   16   38 1
  30   17   18 ar
  31   17   19 ar
  32   18   22 ar
  33   19   20 ar
  34   19   39 1
  35   20   21 ar
  36   20   40 1
  37   21   22 ar
  38   21   41 1
  39   22   23 1
  40   23   24 1
  41   23   27 1
  42   24   25 1
  43   24   42 1
  44   24   43 1
  45   25   26 1
  46   25   44 1
  47   25   45 1
  48   26   27 1
  49   26   46 1
  50   26   47 1
  51   27   48 1
  52   27   49 1
  53   28   50 1
  54   28   51 1
  55   28   52 1

#	End of record

