#	Name: ASD01910266
#	Creating user name:	WinNT
#	Creation time:	15. 06. 2019 19:55

#	Modifying user name:	WinNT
#	Modification time:	15. 06. 2019 19:55

#	Program:	/corina/corina34_cracker 3.40 0067  02.08.2006

@<TRIPOS>MOLECULE
ASD01910266
  48   51    0    0    0
SMALL
NO_CHARGES


@<TRIPOS>ATOM
   1 C1            -0.4488     1.8201    -0.4181 C.2     
   2 C2             0.7591     2.6899    -0.6532 C.3     
   3 C3             1.6215     2.7189     0.6108 C.3     
   4 C4             2.8315     3.6282     0.3841 C.3     
   5 C5             3.6766     3.0699    -0.7652 C.3     
   6 N6             2.8179     2.9025    -1.9457 N.am    
   7 C7             1.5807     2.1210    -1.8142 C.3     
   8 C8             3.1587     3.4554    -3.1266 C.2     
   9 O9             2.4792     3.2485    -4.1132 O.2     
  10 N10           -0.4390     0.5518    -0.1067 N.2     
  11 N11           -1.6429     0.1197     0.0208 N.2     
  12 C12           -2.4916     1.0979    -0.2044 C.2     
  13 N13           -1.7502     2.2135    -0.4854 N.pl3   
  14 C14            4.3578     4.3129    -3.2221 C.ar    
  15 C15            5.5313     3.9533    -2.5558 C.ar    
  16 C16            6.6472     4.7570    -2.6483 C.ar    
  17 C17            6.6061     5.9207    -3.4011 C.ar    
  18 C18            5.4435     6.2827    -4.0643 C.ar    
  19 C19            4.3237     5.4830    -3.9836 C.ar    
  20 F20            7.7028     6.7049    -3.4884 F       
  21 C21           -3.9675     1.0110    -0.1569 C.ar    
  22 C22           -2.2534     3.5524    -0.8026 C.3     
  23 C23           -4.5982    -0.2317    -0.2271 C.ar    
  24 C24           -5.9746    -0.3073    -0.1818 C.ar    
  25 C25           -6.7310     0.8482    -0.0669 C.ar    
  26 C26           -6.1095     2.0849     0.0028 C.ar    
  27 C27           -4.7335     2.1710    -0.0358 C.ar    
  28 F28           -8.0790     0.7688    -0.0230 F       
  29 H29            0.4366     3.7022    -0.8968 H       
  30 H30            1.0317     3.1004     1.4442 H       
  31 H31            1.9636     1.7097     0.8402 H       
  32 H32            2.4899     4.6317     0.1303 H       
  33 H33            3.4328     3.6669     1.2924 H       
  34 H34            4.4839     3.7648    -0.9962 H       
  35 H35            4.0935     2.1049    -0.4769 H       
  36 H36            1.8268     1.0787    -1.6114 H       
  37 H37            1.0052     2.1898    -2.7373 H       
  38 H38            5.5642     3.0473    -1.9689 H       
  39 H39            7.5551     4.4801    -2.1331 H       
  40 H40            5.4168     7.1903    -4.6490 H       
  41 H41            3.4187     5.7656    -4.5008 H       
  42 H42           -2.4621     4.0905     0.1221 H       
  43 H43           -1.5036     4.0955    -1.3778 H       
  44 H44           -3.1690     3.4672    -1.3879 H       
  45 H45           -4.0096    -1.1327    -0.3171 H       
  46 H46           -6.4638    -1.2686    -0.2365 H       
  47 H47           -6.7035     2.9825     0.0917 H       
  48 H48           -4.2501     3.1352     0.0189 H       
@<TRIPOS>BOND
   1    1   10 2
   2    1    2 1
   3    1   13 1
   4    2    3 1
   5    2    7 1
   6    2   29 1
   7    3    4 1
   8    3   30 1
   9    3   31 1
  10    4    5 1
  11    4   32 1
  12    4   33 1
  13    5    6 1
  14    5   34 1
  15    5   35 1
  16    6    7 1
  17    6    8 am
  18    7   36 1
  19    7   37 1
  20    8    9 2
  21    8   14 1
  22   10   11 1
  23   11   12 2
  24   12   13 1
  25   12   21 1
  26   13   22 1
  27   14   15 ar
  28   14   19 ar
  29   15   16 ar
  30   15   38 1
  31   16   17 ar
  32   16   39 1
  33   17   18 ar
  34   17   20 1
  35   18   19 ar
  36   18   40 1
  37   19   41 1
  38   21   23 ar
  39   21   27 ar
  40   22   42 1
  41   22   43 1
  42   22   44 1
  43   23   24 ar
  44   23   45 1
  45   24   25 ar
  46   24   46 1
  47   25   26 ar
  48   25   28 1
  49   26   27 ar
  50   26   47 1
  51   27   48 1

#	End of record

