#	Name: ASD01884374
#	Creating user name:	WinNT
#	Creation time:	15. 06. 2019 19:48

#	Modifying user name:	WinNT
#	Modification time:	15. 06. 2019 19:48

#	Program:	/corina/corina34_cracker 3.40 0067  02.08.2006

@<TRIPOS>MOLECULE
ASD01884374
  29   30    0    0    0
SMALL
NO_CHARGES


@<TRIPOS>ATOM
   1 C1             1.0496     1.1874     0.8337 C.ar    
   2 C2             1.0586    -0.1659     0.5643 C.ar    
   3 N3             1.2233    -0.6090    -0.6676 N.ar    
   4 C4             1.3853     0.2124    -1.6877 C.ar    
   5 C5             1.3887     1.5793    -1.5011 C.ar    
   6 C6             1.2173     2.0877    -0.2155 C.ar    
   7 O7             1.2143     3.4263     0.0088 O.3     
   8 C8             0.0309     4.0849    -0.0812 C.ar    
   9 C9            -0.0022     5.4729     0.0270 C.ar    
  10 C10           -1.1447     3.3735    -0.2869 C.ar    
  11 C11           -2.3475     4.0389    -0.3788 C.ar    
  12 C12           -2.3857     5.4289    -0.2652 C.ar    
  13 C13           -1.2033     6.1433    -0.0638 C.ar    
  14 B14           -3.7555     6.1890    -0.3697 Du      
  15 F15            1.1431     6.1625     0.2215 F       
  16 O16           -4.9568     5.4617    -0.5799 O.3     
  17 O17           -3.7931     7.6038    -0.2539 O.3     
  18 C18            1.5693    -0.3497    -3.0738 C.3     
  19 H19            0.9099     1.5436     1.8436 H       
  20 H20            0.9296    -0.8713     1.3719 H       
  21 H21            1.5224     2.2460    -2.3401 H       
  22 H22           -1.1155     2.2975    -0.3752 H       
  23 H23           -3.2605     3.4847    -0.5390 H       
  24 H24           -1.2300     7.2193     0.0245 H       
  25 H25           -5.7481     6.0153    -0.6305 H       
  26 H26           -4.6799     7.9813    -0.3313 H       
  27 H27            0.5963    -0.4634    -3.5519 H       
  28 H28            2.1862     0.3293    -3.6624 H       
  29 H29            2.0584    -1.3217    -3.0097 H       
@<TRIPOS>BOND
   1    1    2 ar
   2    1    6 ar
   3    1   19 1
   4    2    3 ar
   5    2   20 1
   6    3    4 ar
   7    4    5 ar
   8    4   18 1
   9    5    6 ar
  10    5   21 1
  11    6    7 1
  12    7    8 1
  13    8    9 ar
  14    8   10 ar
  15    9   15 1
  16    9   13 ar
  17   10   11 ar
  18   10   22 1
  19   11   12 ar
  20   11   23 1
  21   12   13 ar
  22   12   14 1
  23   13   24 1
  24   14   16 1
  25   14   17 1
  26   16   25 1
  27   17   26 1
  28   18   27 1
  29   18   28 1
  30   18   29 1

#	End of record

