#	Name: ASD07300507
#	Creating user name:	WinNT
#	Creation time:	15. 06. 2019 21:09

#	Modifying user name:	WinNT
#	Modification time:	15. 06. 2019 21:09

#	Program:	/corina/corina34_cracker 3.40 0067  02.08.2006

@<TRIPOS>MOLECULE
ASD07300507
  28   30    0    0    0
SMALL
NO_CHARGES


@<TRIPOS>ATOM
   1 C1            -0.0168     1.3865     0.0097 C.ar    
   2 C2             0.0021    -0.0041     0.0020 C.ar    
   3 C3             1.2002    -0.6829    -0.0131 C.ar    
   4 C4             2.3767     0.0578    -0.0203 C.ar    
   5 C5             2.2970     1.4364    -0.0121 C.ar    
   6 N6             1.1337     2.0539     0.0023 N.ar    
   7 N7            -1.3306     1.8466     0.0303 N.am    
   8 C8            -1.4399    -0.4518     0.0134 C.3     
   9 C9            -2.2242     0.8434     0.0374 C.2     
  10 O10           -3.4318     0.9542     0.0547 O.2     
  11 C11           -1.6818     3.2046     0.0428 C.ar    
  12 C12           -3.0197     3.5754     0.0633 C.ar    
  13 C13           -3.3656     4.9118     0.0761 C.ar    
  14 C14           -2.3752     5.8855     0.0684 C.ar    
  15 C15           -1.0369     5.5143     0.0480 C.ar    
  16 C16           -0.6914     4.1777     0.0405 C.ar    
  17 N17           -2.7253     7.2396     0.0809 N.pl3   
  18 H18            1.2252    -1.7626    -0.0187 H       
  19 H19            3.3368    -0.4367    -0.0318 H       
  20 H20            3.2061     2.0195    -0.0177 H       
  21 H21           -1.6686    -1.0273    -0.8837 H       
  22 H22           -1.6515    -1.0369     0.9084 H       
  23 H23           -3.7898     2.8182     0.0689 H       
  24 H24           -4.4063     5.2002     0.0916 H       
  25 H25           -0.2665     6.2713     0.0417 H       
  26 H26            0.3492     3.8890     0.0291 H       
  27 H27           -3.6600     7.4988     0.0949 H       
  28 H28           -2.0336     7.9196     0.0756 H       
@<TRIPOS>BOND
   1    1    2 ar
   2    1    6 ar
   3    1    7 1
   4    2    3 ar
   5    2    8 1
   6    3    4 ar
   7    3   18 1
   8    4    5 ar
   9    4   19 1
  10    5    6 ar
  11    5   20 1
  12    7    9 am
  13    7   11 1
  14    8    9 1
  15    8   21 1
  16    8   22 1
  17    9   10 2
  18   11   12 ar
  19   11   16 ar
  20   12   13 ar
  21   12   23 1
  22   13   14 ar
  23   13   24 1
  24   14   15 ar
  25   14   17 1
  26   15   16 ar
  27   15   25 1
  28   16   26 1
  29   17   27 1
  30   17   28 1

#	End of record

