#	Name: ASD03091475
#	Creating user name:	WinNT
#	Creation time:	15. 06. 2019 20:30

#	Modifying user name:	WinNT
#	Modification time:	15. 06. 2019 20:30

#	Program:	/corina/corina34_cracker 3.40 0067  02.08.2006

@<TRIPOS>MOLECULE
ASD03091475
  39   42    0    0    0
SMALL
NO_CHARGES


@<TRIPOS>ATOM
   1 N1            -0.0081     1.3352    -0.0510 N.pl3   
   2 C2             0.0156    -0.0207    -0.0620 C.2     
   3 C3             1.1510    -0.7223     0.2142 C.2     
   4 C4             2.3851     0.0176     0.5237 C.2     
   5 C5             2.3777     1.4603     0.2468 C.ar    
   6 C6             3.5475     2.2321     0.2599 C.ar    
   7 N7             3.4815     3.5293    -0.0028 N.ar    
   8 C8             2.3383     4.1330    -0.2802 C.ar    
   9 C9             1.1444     3.4467    -0.3106 C.ar    
  10 C10            1.1454     2.0780    -0.0416 C.ar    
  11 N11            4.7662     1.6421     0.5464 N.pl3   
  12 C12            5.9459     2.3863     0.4397 C.ar    
  13 C13            6.9978     2.1519     1.3158 C.ar    
  14 C14            8.1615     2.8878     1.2086 C.ar    
  15 C15            8.2800     3.8589     0.2286 C.ar    
  16 C16            7.2324     4.0947    -0.6457 C.ar    
  17 C17            6.0691     3.3569    -0.5461 C.ar    
  18 F18            9.4193     4.5777     0.1256 F       
  19 O19            3.3659    -0.5397     0.9877 O.2     
  20 C20            1.1429    -2.2051     0.2036 C.ar    
  21 C21            0.9063    -2.8946    -0.9845 C.ar    
  22 C22            0.9003    -4.2745    -0.9892 C.ar    
  23 C23            1.1288    -4.9740     0.1835 C.ar    
  24 C24            1.3643    -4.2940     1.3661 C.ar    
  25 C25            1.3777    -2.9142     1.3805 C.ar    
  26 Cl26           1.1194    -6.7100     0.1710 Cl      
  27 H27           -0.8637     1.7923    -0.0539 H       
  28 H28           -0.8907    -0.5596    -0.2958 H       
  29 H29            2.3406     5.1928    -0.4881 H       
  30 H30            0.2222     3.9602    -0.5392 H       
  31 H31            4.8023     0.7125     0.8212 H       
  32 H32            6.9056     1.3948     2.0805 H       
  33 H33            8.9796     2.7061     1.8899 H       
  34 H34            7.3267     4.8531    -1.4088 H       
  35 H35            5.2541     3.5378    -1.2312 H       
  36 H36            0.7276    -2.3499    -1.8998 H       
  37 H37            0.7167    -4.8097    -1.9091 H       
  38 H38            1.5417    -4.8443     2.2783 H       
  39 H39            1.5659    -2.3846     2.3027 H       
@<TRIPOS>BOND
   1    1    2 1
   2    1   10 1
   3    1   27 1
   4    2    3 2
   5    2   28 1
   6    3    4 1
   7    3   20 1
   8    4    5 1
   9    4   19 2
  10    5    6 ar
  11    5   10 ar
  12    6    7 ar
  13    6   11 1
  14    7    8 ar
  15    8    9 ar
  16    8   29 1
  17    9   10 ar
  18    9   30 1
  19   11   12 1
  20   11   31 1
  21   12   13 ar
  22   12   17 ar
  23   13   14 ar
  24   13   32 1
  25   14   15 ar
  26   14   33 1
  27   15   16 ar
  28   15   18 1
  29   16   17 ar
  30   16   34 1
  31   17   35 1
  32   20   21 ar
  33   20   25 ar
  34   21   22 ar
  35   21   36 1
  36   22   23 ar
  37   22   37 1
  38   23   24 ar
  39   23   26 1
  40   24   25 ar
  41   24   38 1
  42   25   39 1

#	End of record

