#	Name: ASD03082198
#	Creating user name:	WinNT
#	Creation time:	15. 06. 2019 20:27

#	Modifying user name:	WinNT
#	Modification time:	15. 06. 2019 20:27

#	Program:	/corina/corina34_cracker 3.40 0067  02.08.2006

@<TRIPOS>MOLECULE
ASD03082198
  49   51    0    0    0
SMALL
NO_CHARGES


@<TRIPOS>ATOM
   1 N1             0.0272     1.4409    -0.1388 N.pl3   
   2 N2            -0.0133     0.0378    -0.1778 N.2     
   3 C3             1.2085    -0.3866     0.0510 C.2     
   4 N4             2.0080     0.6657     0.2301 N.2     
   5 C5             1.3104     1.7781     0.1188 C.2     
   6 N6             1.6062    -1.7242     0.0992 N.pl3   
   7 C7             2.9592    -2.0464     0.2342 C.ar    
   8 C8             3.3331    -3.2593     0.7998 C.ar    
   9 C9             4.6709    -3.5744     0.9317 C.ar    
  10 C10            5.6384    -2.6842     0.5021 C.ar    
  11 C11            5.2699    -1.4764    -0.0612 C.ar    
  12 C12            3.9334    -1.1575    -0.2018 C.ar    
  13 C13            5.0774    -4.8896     1.5450 C.3     
  14 F14            5.1887    -5.8577     0.5411 F       
  15 F15            6.3103    -4.7424     2.1896 F       
  16 F16            4.1106    -5.2898     2.4735 F       
  17 C17            3.6581     4.7172     0.2542 C.ar    
  18 C18            3.2059     3.4133     0.1222 C.ar    
  19 C19            1.8391     3.1543     0.2523 C.ar    
  20 C20            0.9830     4.2307     0.5118 C.ar    
  21 C21            1.5151     5.4991     0.6289 C.ar    
  22 N22            2.8130     5.7054     0.4997 N.ar    
  23 C23           -1.0972     2.3576    -0.3431 C.3     
  24 C24           -1.7819     2.6143     0.9746 C.2     
  25 N25           -2.8508     3.4333     1.0303 N.am    
  26 C26           -3.5164     3.6829     2.3113 C.3     
  27 O27           -1.3711     2.0838     1.9849 O.2     
  28 C28           -3.3470     4.0741    -0.1901 C.3     
  29 O29            4.9836     4.9824     0.1359 O.3     
  30 Cl30           0.4629     6.8421     0.9501 Cl      
  31 C31            5.3881     6.3451     0.2819 C.3     
  32 H32            0.9433    -2.4298     0.0391 H       
  33 H33            2.5782    -3.9545     1.1361 H       
  34 H34            6.6841    -2.9330     0.6071 H       
  35 H35            6.0278    -0.7836    -0.3956 H       
  36 H36            3.6461    -0.2158    -0.6459 H       
  37 H37            3.8995     2.6101    -0.0784 H       
  38 H38           -0.0798     4.0711     0.6186 H       
  39 H39           -0.7291     3.2990    -0.7507 H       
  40 H40           -1.8068     1.9124    -1.0406 H       
  41 H41           -3.0593     4.5454     2.7963 H       
  42 H42           -4.5741     3.8815     2.1385 H       
  43 H43           -3.4111     2.8075     2.9521 H       
  44 H44           -3.6389     3.3089    -0.9094 H       
  45 H45           -4.2102     4.6947     0.0506 H       
  46 H46           -2.5612     4.6955    -0.6195 H       
  47 H47            4.8988     6.9530    -0.4792 H       
  48 H48            5.1048     6.7043     1.2712 H       
  49 H49            6.4694     6.4177     0.1649 H       
@<TRIPOS>BOND
   1    1    2 1
   2    1    5 1
   3    1   23 1
   4    2    3 2
   5    3    4 1
   6    3    6 1
   7    4    5 2
   8    5   19 1
   9    6    7 1
  10    6   32 1
  11    7    8 ar
  12    7   12 ar
  13    8    9 ar
  14    8   33 1
  15    9   10 ar
  16    9   13 1
  17   10   11 ar
  18   10   34 1
  19   11   12 ar
  20   11   35 1
  21   12   36 1
  22   13   14 1
  23   13   15 1
  24   13   16 1
  25   17   18 ar
  26   17   22 ar
  27   17   29 1
  28   18   19 ar
  29   18   37 1
  30   19   20 ar
  31   20   21 ar
  32   20   38 1
  33   21   22 ar
  34   21   30 1
  35   23   24 1
  36   23   39 1
  37   23   40 1
  38   24   25 am
  39   24   27 2
  40   25   26 1
  41   25   28 1
  42   26   41 1
  43   26   42 1
  44   26   43 1
  45   28   44 1
  46   28   45 1
  47   28   46 1
  48   29   31 1
  49   31   47 1
  50   31   48 1
  51   31   49 1

#	End of record

