#	Name: ASD01914299
#	Creating user name:	WinNT
#	Creation time:	15. 06. 2019 20:03

#	Modifying user name:	WinNT
#	Modification time:	15. 06. 2019 20:03

#	Program:	/corina/corina34_cracker 3.40 0067  02.08.2006

@<TRIPOS>MOLECULE
ASD01914299
  38   40    0    0    0
SMALL
NO_CHARGES


@<TRIPOS>ATOM
   1 C1             0.0221     1.5404    -0.1860 C.2     
   2 C2             0.0187     0.0441    -0.0065 C.3     
   3 O3             1.0685     2.1315    -0.3103 O.2     
   4 O4            -1.1376     2.2157    -0.2132 O.3     
   5 C5             2.2280    -0.5581     1.0599 C.2     
   6 N6             3.3790    -1.0439     0.6554 N.2     
   7 C7             3.3253    -1.2617    -0.6711 C.2     
   8 C8             2.0902    -0.8963    -1.1087 C.2     
   9 N9             1.3971    -0.4522    -0.0176 N.pl3   
  10 C10            1.8869    -0.1926     2.4520 C.ar    
  11 C11            0.8122     0.6593     2.7094 C.ar    
  12 C12            0.4989     0.9960     4.0102 C.ar    
  13 C13            1.2477     0.4908     5.0582 C.ar    
  14 C14            2.3148    -0.3540     4.8096 C.ar    
  15 C15            2.6349    -0.7029     3.5136 C.ar    
  16 C16            4.4217    -1.8055    -1.5102 C.ar    
  17 C17            5.6440    -2.1417    -0.9311 C.ar    
  18 C18            6.6605    -2.6474    -1.7150 C.ar    
  19 C19            6.4675    -2.8214    -3.0760 C.ar    
  20 C20            5.2544    -2.4882    -3.6558 C.ar    
  21 C21            4.2302    -1.9871    -2.8783 C.ar    
  22 C22            7.9828    -3.0108    -1.0901 C.3     
  23 F23            7.4655    -3.3170    -3.8399 F       
  24 H24           -0.4501    -0.2067     0.9450 H       
  25 H25           -0.5404    -0.4181    -0.8201 H       
  26 H26           -1.0848     3.1741    -0.3305 H       
  27 H27            1.7268    -0.9473    -2.1244 H       
  28 H28            0.2271     1.0546     1.8922 H       
  29 H29           -0.3324     1.6555     4.2108 H       
  30 H30            0.9984     0.7573     6.0746 H       
  31 H31            2.8956    -0.7448     5.6319 H       
  32 H32            3.4653    -1.3660     3.3211 H       
  33 H33            5.7954    -2.0061     0.1296 H       
  34 H34            5.1085    -2.6248    -4.7171 H       
  35 H35            3.2832    -1.7317    -3.3304 H       
  36 H36            7.9588    -4.0520    -0.7686 H       
  37 H37            8.7798    -2.8745    -1.8211 H       
  38 H38            8.1662    -2.3687    -0.2286 H       
@<TRIPOS>BOND
   1    1    2 1
   2    1    3 2
   3    1    4 1
   4    2    9 1
   5    2   24 1
   6    2   25 1
   7    4   26 1
   8    5    6 2
   9    5    9 1
  10    5   10 1
  11    6    7 1
  12    7    8 2
  13    7   16 1
  14    8    9 1
  15    8   27 1
  16   10   11 ar
  17   10   15 ar
  18   11   12 ar
  19   11   28 1
  20   12   13 ar
  21   12   29 1
  22   13   14 ar
  23   13   30 1
  24   14   15 ar
  25   14   31 1
  26   15   32 1
  27   16   17 ar
  28   16   21 ar
  29   17   18 ar
  30   17   33 1
  31   18   19 ar
  32   18   22 1
  33   19   20 ar
  34   19   23 1
  35   20   21 ar
  36   20   34 1
  37   21   35 1
  38   22   36 1
  39   22   37 1
  40   22   38 1

#	End of record

