#	Name: ASD03331795
#	Creating user name:	WinNT
#	Creation time:	15. 06. 2019 20:39

#	Modifying user name:	WinNT
#	Modification time:	15. 06. 2019 20:39

#	Program:	/corina/corina34_cracker 3.40 0067  02.08.2006

@<TRIPOS>MOLECULE
ASD03331795
  49   51    0    0    0
SMALL
NO_CHARGES


@<TRIPOS>ATOM
   1 C1            -0.0178     1.4608     0.0101 C.3     
   2 N2             0.0021    -0.0041     0.0020 N.pl3   
   3 C3             0.0241    -0.7433     1.2666 C.3     
   4 C4            -0.0000    -0.6959    -1.2114 C.ar    
   5 C5             0.0130    -2.0849    -1.2208 C.ar    
   6 C6             0.0104    -2.7658    -2.4223 C.ar    
   7 C7            -0.0046    -2.0664    -3.6151 C.ar    
   8 C8            -0.0074    -2.8128    -4.9243 C.3     
   9 C9            -1.4507    -3.0785    -5.3568 C.3     
  10 N10           -1.4534    -3.8041    -6.6295 N.am    
  11 C11           -2.6218    -4.1485    -7.2064 C.2     
  12 O12           -3.6741    -3.8568    -6.6703 O.2     
  13 C13           -2.6245    -4.8769    -8.4839 C.2     
  14 N14           -1.5003    -5.2685    -9.1847 N.pl3   
  15 H15           -0.5824    -5.1083    -8.9151 H       
  16 C16           -1.8966    -5.9234   -10.3274 C.ar    
  17 C17           -1.1989    -6.5163   -11.3756 C.ar    
  18 C18           -1.8893    -7.1106   -12.4083 C.ar    
  19 C19           -3.2792    -7.1248   -12.4154 C.ar    
  20 Cl20          -4.1251    -7.8807   -13.7295 Cl      
  21 C21           -3.9853    -6.5498   -11.3976 C.ar    
  22 C22           -3.3052    -5.9388   -10.3364 C.ar    
  23 C23           -3.7330    -5.2770    -9.1600 C.2     
  24 C24           -5.1616    -5.0535    -8.7357 C.3     
  25 N25           -5.6403    -3.7817    -9.2831 N.2     
  26 N26           -6.5252    -3.7657    -9.9759 N.1     
  27 N27           -7.4102    -3.7496   -10.6688 N.pl3   
  28 C28           -0.0176    -0.6836    -3.6094 C.ar    
  29 C29           -0.0209     0.0035    -2.4114 C.ar    
  30 H30            1.0048     1.8381     0.0023 H       
  31 H31           -0.5450     1.8219    -0.8730 H       
  32 H32           -0.5280     1.8123     0.9069 H       
  33 H33           -0.9979    -0.9406     1.5900 H       
  34 H34            0.5496    -1.6879     1.1262 H       
  35 H35            0.5371    -0.1514     2.0246 H       
  36 H36            0.0255    -2.6317    -0.2895 H       
  37 H37            0.0205    -3.8457    -2.4303 H       
  38 H38            0.4955    -2.2150    -5.6844 H       
  39 H39            0.5160    -3.7612    -4.8029 H       
  40 H40           -1.9536    -3.6763    -4.5967 H       
  41 H41           -1.9741    -2.1301    -5.4782 H       
  42 H42           -0.6143    -4.0367    -7.0569 H       
  43 H43           -0.1189    -6.5101   -11.3793 H       
  44 H44           -1.3457    -7.5697   -13.2207 H       
  45 H45           -5.0651    -6.5662   -11.4110 H       
  46 H46           -5.7833    -5.8670    -9.1097 H       
  47 H47           -5.2171    -5.0245    -7.6475 H       
  48 H48           -0.0293    -0.1404    -4.5428 H       
  49 H49           -0.0356     1.0834    -2.4076 H       
@<TRIPOS>BOND
   1    1    2 1
   2    1   30 1
   3    1   31 1
   4    1   32 1
   5    2    3 1
   6    2    4 1
   7    3   33 1
   8    3   34 1
   9    3   35 1
  10    4   29 ar
  11    4    5 ar
  12    5    6 ar
  13    5   36 1
  14    6    7 ar
  15    6   37 1
  16    7    8 1
  17    7   28 ar
  18    8    9 1
  19    8   38 1
  20    8   39 1
  21    9   10 1
  22    9   40 1
  23    9   41 1
  24   10   11 am
  25   10   42 1
  26   11   12 2
  27   11   13 1
  28   13   23 2
  29   13   14 1
  30   14   15 1
  31   14   16 1
  32   16   22 ar
  33   16   17 ar
  34   17   18 ar
  35   17   43 1
  36   18   19 ar
  37   18   44 1
  38   19   20 1
  39   19   21 ar
  40   21   22 ar
  41   21   45 1
  42   22   23 1
  43   23   24 1
  44   24   25 1
  45   24   46 1
  46   24   47 1
  47   25   26 2
  48   26   27 2
  49   28   29 ar
  50   28   48 1
  51   29   49 1

#	End of record

