#	Name: ASD01915518
#	Creating user name:	WinNT
#	Creation time:	15. 06. 2019 20:05

#	Modifying user name:	WinNT
#	Modification time:	15. 06. 2019 20:05

#	Program:	/corina/corina34_cracker 3.40 0067  02.08.2006

@<TRIPOS>MOLECULE
ASD01915518
  45   47    0    0    0
SMALL
NO_CHARGES


@<TRIPOS>ATOM
   1 C1            -0.1674     1.4609    -0.0672 C.3     
   2 N2            -0.0732    -0.0065    -0.0716 N.pl3   
   3 C3             0.8649    -0.6201    -1.0267 C.3     
   4 C4             2.2755    -0.1325    -0.6908 C.3     
   5 N5             2.2884     1.3094    -0.4856 N.am    
   6 C6             1.2183     2.0383    -0.1651 C.2     
   7 C7            -1.5812    -0.2276     1.6811 C.2     
   8 N8            -0.8442    -0.7891     0.7978 N.2     
   9 C9            -2.5052    -1.0605     2.5318 C.3     
  10 O10           -2.2358    -0.8108     3.9128 O.3     
  11 C11           -2.9877    -1.4876     4.8202 C.ar    
  12 C12            3.5101     1.9774    -0.6348 C.ar    
  13 O13            1.3694     3.2209     0.0576 O.2     
  14 C14           -2.7796    -1.2934     6.1780 C.ar    
  15 C15           -3.9684    -2.3696     4.3903 C.ar    
  16 C16           -4.7313    -3.0565     5.3147 C.ar    
  17 C17           -4.5181    -2.8655     6.6674 C.ar    
  18 C18           -3.5452    -1.9827     7.0985 C.ar    
  19 C19            4.5370     1.7595     0.2740 C.ar    
  20 C20            5.7413     2.4189     0.1248 C.ar    
  21 C21            5.9251     3.2968    -0.9303 C.ar    
  22 C22            4.9022     3.5154    -1.8377 C.ar    
  23 C23            3.6981     2.8540    -1.6951 C.ar    
  24 F24            7.1037     3.9412    -1.0743 F       
  25 C25            0.8028    -2.1440    -0.9048 C.3     
  26 H26           -0.7616     1.7911    -0.9193 H       
  27 H27           -0.6370     1.7938     0.8584 H       
  28 H28            0.6043    -0.3209    -2.0419 H       
  29 H29            2.6193    -0.6272     0.2176 H       
  30 H30            2.9471    -0.3841    -1.5117 H       
  31 H31           -1.5408     0.8431     1.8168 H       
  32 H32           -3.5393    -0.7972     2.3099 H       
  33 H33           -2.3447    -2.1167     2.3155 H       
  34 H34           -2.0195    -0.6043     6.5152 H       
  35 H35           -4.1356    -2.5189     3.3338 H       
  36 H36           -5.4952    -3.7430     4.9806 H       
  37 H37           -5.1156    -3.4034     7.3886 H       
  38 H38           -3.3803    -1.8355     8.1556 H       
  39 H39            4.3940     1.0752     1.0972 H       
  40 H40            6.5402     2.2501     0.8316 H       
  41 H41            5.0473     4.2008    -2.6597 H       
  42 H42            2.9006     3.0247    -2.4030 H       
  43 H43           -0.2093    -2.4850    -1.1229 H       
  44 H44            1.4984    -2.5939    -1.6132 H       
  45 H45            1.0749    -2.4388     0.1087 H       
@<TRIPOS>BOND
   1    1    2 1
   2    1    6 1
   3    1   26 1
   4    1   27 1
   5    2    3 1
   6    2    8 1
   7    3    4 1
   8    3   25 1
   9    3   28 1
  10    4    5 1
  11    4   29 1
  12    4   30 1
  13    5    6 am
  14    5   12 1
  15    6   13 2
  16    7    8 2
  17    7    9 1
  18    7   31 1
  19    9   10 1
  20    9   32 1
  21    9   33 1
  22   10   11 1
  23   11   14 ar
  24   11   15 ar
  25   12   19 ar
  26   12   23 ar
  27   14   18 ar
  28   14   34 1
  29   15   16 ar
  30   15   35 1
  31   16   17 ar
  32   16   36 1
  33   17   18 ar
  34   17   37 1
  35   18   38 1
  36   19   20 ar
  37   19   39 1
  38   20   21 ar
  39   20   40 1
  40   21   22 ar
  41   21   24 1
  42   22   23 ar
  43   22   41 1
  44   23   42 1
  45   25   43 1
  46   25   44 1
  47   25   45 1

#	End of record

