#	Name: ASD04590186
#	Creating user name:	WinNT
#	Creation time:	15. 06. 2019 20:50

#	Modifying user name:	WinNT
#	Modification time:	15. 06. 2019 20:50

#	Program:	/corina/corina34_cracker 3.40 0067  02.08.2006

@<TRIPOS>MOLECULE
ASD04590186
  45   47    0    0    0
SMALL
NO_CHARGES


@<TRIPOS>ATOM
   1 N1            -0.0153     1.2802     0.0091 N.pl3   
   2 N2             0.0021    -0.0041     0.0020 N.2     
   3 C3             1.2456    -0.4440    -0.0122 C.2     
   4 C4             2.0903     0.6961    -0.0142 C.2     
   5 C5             1.2524     1.7667    -0.0004 C.2     
   6 C6             1.6766    -1.8546    -0.0235 C.2     
   7 N7             0.7572    -2.8401    -0.0200 N.am    
   8 N8             3.4932     0.7146    -0.0275 N.am    
   9 O9             2.8612    -2.1283    -0.0359 O.2     
  10 C10            4.1517     1.8906    -0.0274 C.2     
  11 C11            5.6220     1.9101    -0.0414 C.2     
  12 O12            3.5295     2.9361    -0.0159 O.2     
  13 C13            1.1853    -4.2412    -0.0312 C.3     
  14 C14            0.0784    -5.1078    -0.6351 C.3     
  15 C15            0.5254    -6.5710    -0.6468 C.3     
  16 C16            0.8080    -7.0294     0.7853 C.3     
  17 C17            1.9148    -6.1627     1.3892 C.3     
  18 C18            1.4678    -4.6996     1.4009 C.3     
  19 O19           -0.3795    -6.9003     1.5698 O.3     
  20 C20            6.3879     0.7845    -0.0552 C.2     
  21 C21            6.4038     3.1268    -0.0480 C.2     
  22 C22            7.7157     2.9017    -0.0605 C.2     
  23 S23            8.0461     1.1782    -0.0688 S.3     
  24 O24            5.8551     4.3726    -0.0424 O.3     
  25 C25            6.7588     5.4795    -0.0501 C.3     
  26 H26           -0.8184     1.8243     0.0160 H       
  27 H27            1.5407     2.8075     0.0021 H       
  28 H28           -0.1878    -2.6218    -0.0102 H       
  29 H29            3.9892    -0.1189    -0.0367 H       
  30 H30            2.0910    -4.3396    -0.6296 H       
  31 H31           -0.8273    -5.0094    -0.0367 H       
  32 H32           -0.1229    -4.7812    -1.6554 H       
  33 H33           -0.2631    -7.1884    -1.0770 H       
  34 H34            1.4312    -6.6694    -1.2451 H       
  35 H35            1.1264    -8.0718     0.7770 H       
  36 H36            2.1161    -6.4893     2.4095 H       
  37 H37            2.8206    -6.2612     0.7908 H       
  38 H38            2.2564    -4.0822     1.8311 H       
  39 H39            0.5621    -4.6011     1.9993 H       
  40 H40           -0.2737    -7.1737     2.4913 H       
  41 H41            5.9973    -0.2224    -0.0573 H       
  42 H42            8.4718     3.6728    -0.0678 H       
  43 H43            7.3784     5.4364    -0.9459 H       
  44 H44            6.1925     6.4109    -0.0445 H       
  45 H45            7.3947     5.4356     0.8340 H       
@<TRIPOS>BOND
   1    1    2 1
   2    1    5 1
   3    1   26 1
   4    2    3 2
   5    3    4 1
   6    3    6 1
   7    4    5 2
   8    4    8 1
   9    5   27 1
  10    6    7 am
  11    6    9 2
  12    7   13 1
  13    7   28 1
  14    8   10 am
  15    8   29 1
  16   10   11 1
  17   10   12 2
  18   11   20 2
  19   11   21 1
  20   13   14 1
  21   13   18 1
  22   13   30 1
  23   14   15 1
  24   14   31 1
  25   14   32 1
  26   15   16 1
  27   15   33 1
  28   15   34 1
  29   16   17 1
  30   16   19 1
  31   16   35 1
  32   17   18 1
  33   17   36 1
  34   17   37 1
  35   18   38 1
  36   18   39 1
  37   19   40 1
  38   20   23 1
  39   20   41 1
  40   21   22 2
  41   21   24 1
  42   22   23 1
  43   22   42 1
  44   24   25 1
  45   25   43 1
  46   25   44 1
  47   25   45 1

#	End of record

