#	Name: ASD02198328
#	Creating user name:	WinNT
#	Creation time:	15. 06. 2019 20:19

#	Modifying user name:	WinNT
#	Modification time:	15. 06. 2019 20:19

#	Program:	/corina/corina34_cracker 3.40 0067  02.08.2006

@<TRIPOS>MOLECULE
ASD02198328
  41   43    0    0    0
SMALL
NO_CHARGES


@<TRIPOS>ATOM
   1 C1             0.4777     1.5498     0.0837 C.2     
   2 C2             0.6366     0.1772     0.1476 C.2     
   3 S3             2.0620     2.2835     0.3196 S.3     
   4 C4             2.7728     0.7378     0.4777 C.2     
   5 N5             1.8760    -0.1989     0.3587 N.2     
   6 N6            -0.4130    -0.7155     0.0031 N.pl3   
   7 C7            -0.7307     2.2364    -0.1362 C.2     
   8 C8            -0.7713     3.7128    -0.0391 C.ar    
   9 O9            -1.7444     1.6151    -0.4068 O.2     
  10 N10            4.1127     0.5129     0.7003 N.pl3   
  11 C11           -1.7030     4.4386    -0.7825 C.ar    
  12 C12            0.1180     4.3843     0.8004 C.ar    
  13 C13            0.0751     5.7608     0.8865 C.ar    
  14 C14           -0.8474     6.4749     0.1429 C.ar    
  15 C15           -1.7357     5.8144    -0.6875 C.ar    
  16 C16            4.5748    -0.7878     0.9340 C.ar    
  17 C17            5.8792    -1.1315     0.6036 C.ar    
  18 C18            6.3342    -2.4146     0.8344 C.ar    
  19 C19            5.4887    -3.3604     1.3956 C.ar    
  20 C20            4.1855    -3.0180     1.7255 C.ar    
  21 C21            3.7309    -1.7335     1.5015 C.ar    
  22 F22            2.1991     6.8018     1.0833 F       
  23 F23            0.4384     7.6660     2.2548 F       
  24 C24            1.0349     6.4879     1.7927 C.3     
  25 F25            1.3581     5.6708     2.8813 F       
  26 O26            5.9374    -4.6239     1.6221 O.3     
  27 C27            5.0131    -5.5463     2.2026 C.3     
  28 H28           -1.3122    -0.3860    -0.1512 H       
  29 H29           -0.2487    -1.6700     0.0563 H       
  30 H30            4.7365     1.2557     0.6953 H       
  31 H31           -2.3968     3.9243    -1.4310 H       
  32 H32            0.8382     3.8280     1.3819 H       
  33 H33           -0.8775     7.5521     0.2143 H       
  34 H34           -2.4535     6.3775    -1.2655 H       
  35 H35            6.5374    -0.3955     0.1660 H       
  36 H36            7.3485    -2.6821     0.5775 H       
  37 H37            3.5278    -3.7550     2.1621 H       
  38 H38            2.7164    -1.4669     1.7588 H       
  39 H39            5.4974    -6.5145     2.3296 H       
  40 H40            4.6881    -5.1724     3.1735 H       
  41 H41            4.1489    -5.6555     1.5474 H       
@<TRIPOS>BOND
   1    1    2 2
   2    1    3 1
   3    1    7 1
   4    2    6 1
   5    2    5 1
   6    3    4 1
   7    4    5 2
   8    4   10 1
   9    6   28 1
  10    6   29 1
  11    7    8 1
  12    7    9 2
  13    8   11 ar
  14    8   12 ar
  15   10   16 1
  16   10   30 1
  17   11   15 ar
  18   11   31 1
  19   12   13 ar
  20   12   32 1
  21   13   14 ar
  22   13   24 1
  23   14   15 ar
  24   14   33 1
  25   15   34 1
  26   16   17 ar
  27   16   21 ar
  28   17   18 ar
  29   17   35 1
  30   18   19 ar
  31   18   36 1
  32   19   20 ar
  33   19   26 1
  34   20   21 ar
  35   20   37 1
  36   21   38 1
  37   22   24 1
  38   23   24 1
  39   24   25 1
  40   26   27 1
  41   27   39 1
  42   27   40 1
  43   27   41 1

#	End of record

