#	Name: ASD00069265
#	Creating user name:	WinNT
#	Creation time:	15. 06. 2019 18:29

#	Modifying user name:	WinNT
#	Modification time:	15. 06. 2019 18:29

#	Program:	/corina/corina34_cracker 3.40 0067  02.08.2006

@<TRIPOS>MOLECULE
ASD00069265
  36   37    0    0    0
SMALL
NO_CHARGES


@<TRIPOS>ATOM
   1 C1            -0.0188     1.5381     0.0105 C.3     
   2 C2             0.0021    -0.0041     0.0020 C.3     
   3 O3             1.3719     1.9233    -0.0007 O.3     
   4 B4             2.0664     0.7922     0.5440 Du      
   5 O5             1.4028    -0.3513    -0.0132 O.3     
   6 C6             3.2858     0.8033     1.5328 C.ar    
   7 C7             3.8267     2.0083     1.9908 C.ar    
   8 C8             4.8987     1.9782     2.8594 C.ar    
   9 N9             5.4162     0.8328     3.2597 N.ar    
  10 C10            4.9369    -0.3311     2.8523 C.ar    
  11 C11            3.8531    -0.3872     1.9809 C.ar    
  12 C12           -0.6696    -0.5533     1.2622 C.3     
  13 C13           -0.7290     2.0684    -1.2366 C.3     
  14 C14           -0.7050     2.0549     1.2766 C.3     
  15 C15           -0.6961    -0.5398    -1.2495 C.3     
  16 N16            5.5183    -1.5104     3.3038 N.pl3   
  17 C17            4.9936    -2.8034     2.8575 C.3     
  18 H18            3.4108     2.9514     1.6685 H       
  19 H19            5.3204     2.9061     3.2163 H       
  20 H20            3.4638    -1.3388     1.6503 H       
  21 H21           -1.7043    -0.2124     1.3004 H       
  22 H22           -0.6465    -1.6428     1.2408 H       
  23 H23           -0.1366    -0.1958     2.1432 H       
  24 H24           -1.7545     1.6996    -1.2553 H       
  25 H25           -0.7352     3.1582    -1.2154 H       
  26 H26           -0.2032     1.7254    -2.1277 H       
  27 H27           -0.1623     1.7024     2.1537 H       
  28 H28           -0.7115     3.1449     1.2671 H       
  29 H29           -1.7300     1.6858     1.3108 H       
  30 H30           -0.1817    -0.1729    -2.1377 H       
  31 H31           -0.6727    -1.6295    -1.2403 H       
  32 H32           -1.7313    -0.1987    -1.2623 H       
  33 H33            6.2713    -1.4772     3.9144 H       
  34 H34            5.0694    -2.8712     1.7723 H       
  35 H35            5.5722    -3.6071     3.3130 H       
  36 H36            3.9490    -2.8940     3.1552 H       
@<TRIPOS>BOND
   1    1    2 1
   2    1    3 1
   3    1   14 1
   4    1   13 1
   5    2   12 1
   6    2   15 1
   7    2    5 1
   8    3    4 1
   9    4    5 1
  10    4    6 1
  11    6    7 ar
  12    6   11 ar
  13    7    8 ar
  14    7   18 1
  15    8    9 ar
  16    8   19 1
  17    9   10 ar
  18   10   11 ar
  19   10   16 1
  20   11   20 1
  21   12   21 1
  22   12   22 1
  23   12   23 1
  24   13   24 1
  25   13   25 1
  26   13   26 1
  27   14   27 1
  28   14   28 1
  29   14   29 1
  30   15   30 1
  31   15   31 1
  32   15   32 1
  33   16   17 1
  34   16   33 1
  35   17   34 1
  36   17   35 1
  37   17   36 1

#	End of record

