#	Name: ASD00842045
#	Creating user name:	WinNT
#	Creation time:	15. 06. 2019 18:43

#	Modifying user name:	WinNT
#	Modification time:	15. 06. 2019 18:43

#	Program:	/corina/corina34_cracker 3.40 0067  02.08.2006

@<TRIPOS>MOLECULE
ASD00842045
  89   94    0    0    0
SMALL
NO_CHARGES


@<TRIPOS>ATOM
   1 C1             0.9691     1.5443    -0.3533 C.ar    
   2 C2             1.2836     0.2178    -0.6094 C.ar    
   3 C3             1.2321    -0.7154     0.4161 C.ar    
   4 C4             0.8680    -0.3217     1.6889 C.ar    
   5 C5             0.5545     1.0013     1.9416 C.ar    
   6 C6             0.6054     1.9331     0.9217 C.ar    
   7 C7             1.5727    -2.1575     0.1413 C.3     
   8 C8             1.3225    -3.0054     1.3702 C.2     
   9 C9             0.7624    -2.6816    -1.0460 C.3     
  10 C10           -0.7064    -2.4679    -0.7853 C.2     
  11 N11           -1.6213    -2.9485    -1.6504 N.am    
  12 O12           -1.0651    -1.8634     0.2030 O.2     
  13 C13           -3.0520    -2.6555    -1.4761 C.3     
  14 C14           -3.6032    -2.1157    -2.8001 C.3     
  15 N15           -3.2899    -3.0617    -3.8793 N.3     
  16 C16           -1.8390    -3.1957    -4.0659 C.3     
  17 C17           -1.2149    -3.7747    -2.7973 C.3     
  18 N18           -3.9410    -2.6717    -5.1195 N.3     
  19 C19           -3.6275    -3.6181    -6.1992 C.3     
  20 C20           -4.3930    -3.2182    -7.4627 C.3     
  21 N21           -4.0229    -1.8479    -7.8435 N.3     
  22 C22           -4.3363    -0.9015    -6.7638 C.3     
  23 C23           -3.5709    -1.3014    -5.5003 C.3     
  24 H24           -3.0484    -1.7945    -8.0995 H       
  25 O25            0.2577    -3.1695     1.9271 O.2     
  26 N26            2.5007    -3.5424     1.7278 N.am    
  27 C27            3.0546    -2.3125    -0.1150 C.ar    
  28 C28            3.5366    -3.1585     0.8809 C.ar    
  29 C29            3.8917    -1.7997    -1.0733 C.ar    
  30 C30            5.2522    -2.1273    -1.0566 C.ar    
  31 C31            5.7438    -2.9771    -0.0585 C.ar    
  32 C32            4.8923    -3.4869     0.8981 C.ar    
  33 F33            7.0556    -3.2994    -0.0337 F       
  34 C34            2.4522    -6.1956     2.4578 C.ar    
  35 C35            1.2068    -6.5876     1.9882 C.ar    
  36 C36            3.5011    -7.0953     2.4724 C.ar    
  37 C37            3.3127    -8.3868     2.0193 C.ar    
  38 C38            2.0689    -8.7838     1.5486 C.ar    
  39 C39            1.0152    -7.8833     1.5333 C.ar    
  40 O40            1.8841   -10.0544     1.1034 O.3     
  41 O41            0.1757    -5.7025     1.9745 O.3     
  42 C42           -1.0781    -6.1748     1.4776 C.3     
  43 C43            3.0137   -10.9284     1.1486 C.3     
  44 O44            1.6412    -0.1672    -1.8627 O.3     
  45 C45            2.0969     0.2367    -4.2015 C.3     
  46 C46            1.5637     0.8212    -2.8919 C.3     
  47 S47            2.6985    -4.5471     3.0293 S.o2    
  48 O48            4.0657    -4.4527     3.4049 O.2     
  49 O49            1.6268    -4.2666     3.9193 O.2     
  50 C50            6.1343    -1.5977    -2.0527 C.1     
  51 N51            6.8340    -1.1777    -2.8429 N.1     
  52 H52            1.0128     2.2734    -1.1489 H       
  53 H53            0.8278    -1.0477     2.4875 H       
  54 H54            0.2693     1.3070     2.9374 H       
  55 H55            0.3601     2.9657     1.1215 H       
  56 H56            1.0529    -2.1452    -1.9493 H       
  57 H57            0.9570    -3.7461    -1.1771 H       
  58 H58           -3.5821    -3.5682    -1.2037 H       
  59 H59           -3.1799    -1.9072    -0.6939 H       
  60 H60           -4.6840    -1.9971    -2.7227 H       
  61 H61           -3.1457    -1.1507    -3.0180 H       
  62 H62           -1.6402    -3.8603    -4.9067 H       
  63 H63           -1.4060    -2.2156    -4.2663 H       
  64 H64           -0.1287    -3.7690    -2.8881 H       
  65 H65           -1.5673    -4.7954    -2.6488 H       
  66 H66           -2.5565    -3.5977    -6.4010 H       
  67 H67           -3.9221    -4.6235    -5.8984 H       
  68 H68           -4.1396    -3.9018    -8.2730 H       
  69 H69           -5.4646    -3.2649    -7.2688 H       
  70 H70           -4.0417     0.1039    -7.0646 H       
  71 H71           -5.4073    -0.9219    -6.5619 H       
  72 H72           -3.8242    -0.6178    -4.6899 H       
  73 H73           -2.4993    -1.2547    -5.6942 H       
  74 H74            3.5017    -1.1453    -1.8389 H       
  75 H75            5.2768    -4.1422     1.6657 H       
  76 H76            4.4697    -6.7883     2.8384 H       
  77 H77            4.1341    -9.0879     2.0311 H       
  78 H78            0.0464    -8.1905     1.1677 H       
  79 H79           -1.8126    -5.3706     1.5216 H       
  80 H80           -0.9595    -6.5023     0.4447 H       
  81 H81           -1.4186    -7.0117     2.0873 H       
  82 H82            3.8160   -10.5171     0.5359 H       
  83 H83            3.3567   -11.0259     2.1786 H       
  84 H84            2.7302   -11.9087     0.7657 H       
  85 H85            3.1048    -0.1474    -4.0442 H       
  86 H86            1.4462    -0.5740    -4.5291 H       
  87 H87            2.1196     1.0151    -4.9641 H       
  88 H88            0.5257     1.1256    -3.0259 H       
  89 H89            2.1628     1.6870    -2.6099 H       
@<TRIPOS>BOND
   1    1    2 ar
   2    1    6 ar
   3    1   52 1
   4    2    3 ar
   5    2   44 1
   6    3    4 ar
   7    3    7 1
   8    4    5 ar
   9    4   53 1
  10    5    6 ar
  11    5   54 1
  12    6   55 1
  13    7    8 1
  14    7    9 1
  15    7   27 1
  16    8   25 2
  17    8   26 am
  18    9   10 1
  19    9   56 1
  20    9   57 1
  21   10   11 am
  22   10   12 2
  23   11   13 1
  24   11   17 1
  25   13   14 1
  26   13   58 1
  27   13   59 1
  28   14   15 1
  29   14   60 1
  30   14   61 1
  31   15   16 1
  32   15   18 1
  33   16   17 1
  34   16   62 1
  35   16   63 1
  36   17   64 1
  37   17   65 1
  38   18   19 1
  39   18   23 1
  40   19   20 1
  41   19   66 1
  42   19   67 1
  43   20   21 1
  44   20   68 1
  45   20   69 1
  46   21   22 1
  47   21   24 1
  48   22   23 1
  49   22   70 1
  50   22   71 1
  51   23   72 1
  52   23   73 1
  53   26   47 am
  54   26   28 1
  55   27   28 ar
  56   27   29 ar
  57   28   32 ar
  58   29   30 ar
  59   29   74 1
  60   30   31 ar
  61   30   50 1
  62   31   32 ar
  63   31   33 1
  64   32   75 1
  65   34   35 ar
  66   34   36 ar
  67   34   47 1
  68   35   41 1
  69   35   39 ar
  70   36   37 ar
  71   36   76 1
  72   37   38 ar
  73   37   77 1
  74   38   39 ar
  75   38   40 1
  76   39   78 1
  77   40   43 1
  78   41   42 1
  79   42   79 1
  80   42   80 1
  81   42   81 1
  82   43   82 1
  83   43   83 1
  84   43   84 1
  85   44   46 1
  86   45   46 1
  87   45   85 1
  88   45   86 1
  89   45   87 1
  90   46   88 1
  91   46   89 1
  92   47   48 2
  93   47   49 2
  94   50   51 3

#	End of record

