#	Name: ASD03090150
#	Creating user name:	WinNT
#	Creation time:	15. 06. 2019 20:28

#	Modifying user name:	WinNT
#	Modification time:	15. 06. 2019 20:28

#	Program:	/corina/corina34_cracker 3.40 0067  02.08.2006

@<TRIPOS>MOLECULE
ASD03090150
  52   55    0    0    0
SMALL
NO_CHARGES


@<TRIPOS>ATOM
   1 C1            -0.2700     0.9563    -0.8417 C.ar    
   2 C2            -0.1358    -0.1796    -0.0546 C.ar    
   3 C3             1.1008    -0.7658     0.1145 C.ar    
   4 C4             2.2230    -0.2172    -0.5070 C.ar    
   5 C5             2.0895     0.9251    -1.2974 C.ar    
   6 C6             0.8464     1.5100    -1.4621 C.ar    
   7 C7             3.5503    -0.8442    -0.3283 C.2     
   8 N8             7.0647    -0.8700    -0.4230 N.pl3   
   9 C9             7.4929     0.3399    -0.9756 C.ar    
  10 C10            6.7244     0.9738    -1.9435 C.ar    
  11 C11            7.1504     2.1698    -2.4873 C.ar    
  12 C12            8.3407     2.7360    -2.0694 C.ar    
  13 C13            9.1086     2.1073    -1.1061 C.ar    
  14 C14            8.6856     0.9145    -0.5539 C.ar    
  15 N15            4.7157    -0.2731    -0.5611 N.2     
  16 C16            5.6997    -1.1331    -0.2913 C.2     
  17 N17            5.1781    -2.2663     0.1177 N.2     
  18 N18            3.7835    -2.1025     0.1082 N.pl3   
  19 C19            2.7799    -3.1004     0.4867 C.3     
  20 C20            2.5439    -3.0388     1.9971 C.3     
  21 C21            1.5115    -4.0652     2.3865 C.2     
  22 N22            1.1416    -4.1933     3.6762 N.am    
  23 O23            1.0136    -4.7761     1.5394 O.2     
  24 C24            0.1380    -5.1912     4.0547 C.3     
  25 O25            0.7331     2.6284    -2.2300 O.3     
  26 C26           -0.5829     2.9720    -2.6767 C.3     
  27 C27           -1.5399     2.8618    -1.4821 C.3     
  28 O28           -1.5014     1.5132    -1.0012 O.3     
  29 C29           10.4056     2.7277    -0.6546 C.3     
  30 F30           10.6161     3.9247    -1.3474 F       
  31 F31           10.3448     2.9881     0.7186 F       
  32 F32           11.4601     1.8461    -0.9158 F       
  33 H33           -1.0034    -0.6055     0.4275 H       
  34 H34            1.2007    -1.6489     0.7281 H       
  35 H35            2.9560     1.3526    -1.7799 H       
  36 H36            7.7157    -1.5271    -0.1308 H       
  37 H37            5.7950     0.5317    -2.2708 H       
  38 H38            6.5533     2.6632    -3.2399 H       
  39 H39            8.6716     3.6711    -2.4965 H       
  40 H40            9.2857     0.4241     0.1983 H       
  41 H41            1.8461    -2.8928    -0.0357 H       
  42 H42            3.1352    -4.0943     0.2147 H       
  43 H43            3.4777    -3.2464     2.5196 H       
  44 H44            2.1886    -2.0448     2.2691 H       
  45 H45            1.5398    -3.6248     4.3537 H       
  46 H46            0.4933    -6.1851     3.7827 H       
  47 H47           -0.0302    -5.1473     5.1308 H       
  48 H48           -0.7959    -4.9836     3.5323 H       
  49 H49           -0.5869     3.9932    -3.0578 H       
  50 H50           -0.8955     2.2846    -3.4628 H       
  51 H51           -1.2234     3.5442    -0.6933 H       
  52 H52           -2.5531     3.1096    -1.7987 H       
@<TRIPOS>BOND
   1    1    2 ar
   2    1    6 ar
   3    1   28 1
   4    2    3 ar
   5    2   33 1
   6    3    4 ar
   7    3   34 1
   8    4    5 ar
   9    4    7 1
  10    5    6 ar
  11    5   35 1
  12    6   25 1
  13    7   15 2
  14    7   18 1
  15    8    9 1
  16    8   16 1
  17    8   36 1
  18    9   10 ar
  19    9   14 ar
  20   10   11 ar
  21   10   37 1
  22   11   12 ar
  23   11   38 1
  24   12   13 ar
  25   12   39 1
  26   13   14 ar
  27   13   29 1
  28   14   40 1
  29   15   16 1
  30   16   17 2
  31   17   18 1
  32   18   19 1
  33   19   20 1
  34   19   41 1
  35   19   42 1
  36   20   21 1
  37   20   43 1
  38   20   44 1
  39   21   22 am
  40   21   23 2
  41   22   24 1
  42   22   45 1
  43   24   46 1
  44   24   47 1
  45   24   48 1
  46   25   26 1
  47   26   27 1
  48   26   49 1
  49   26   50 1
  50   27   28 1
  51   27   51 1
  52   27   52 1
  53   29   30 1
  54   29   31 1
  55   29   32 1

#	End of record

