#	Name: ASD00844595
#	Creating user name:	WinNT
#	Creation time:	15. 06. 2019 18:50

#	Modifying user name:	WinNT
#	Modification time:	15. 06. 2019 18:50

#	Program:	/corina/corina34_cracker 3.40 0067  02.08.2006

@<TRIPOS>MOLECULE
ASD00844595
  85   90    0    0    0
SMALL
NO_CHARGES


@<TRIPOS>ATOM
   1 C1             0.8110     1.2330    -0.4168 C.ar    
   2 C2             1.0376    -0.1102    -0.6788 C.ar    
   3 C3             0.9373    -1.0409     0.3453 C.ar    
   4 C4             0.6122    -0.6282     1.6227 C.ar    
   5 C5             0.3863     0.7114     1.8812 C.ar    
   6 C6             0.4860     1.6408     0.8627 C.ar    
   7 C7             1.1824    -2.5010     0.0640 C.3     
   8 C8             0.8791    -3.3356     1.2901 C.2     
   9 C9             0.3371    -2.9660    -1.1235 C.3     
  10 C10           -1.1143    -2.6596    -0.8575 C.2     
  11 N11           -2.0606    -3.0779    -1.7212 N.am    
  12 O12           -1.4307    -2.0367     0.1338 O.2     
  13 C13           -3.4690    -2.6937    -1.5422 C.3     
  14 C14           -3.9876    -2.1160    -2.8634 C.3     
  15 N15           -3.7388    -3.0775    -3.9457 N.3     
  16 C16           -2.3001    -3.3044    -4.1367 C.3     
  17 C17           -1.7113    -3.9258    -2.8712 C.3     
  18 C18           -4.3731    -2.6386    -5.1959 C.3     
  19 C19           -3.9902    -3.5963    -6.3276 C.3     
  20 C20           -4.7021    -3.1694    -7.6133 C.3     
  21 N21           -6.1549    -3.1909    -7.4002 N.3     
  22 C22           -6.5516    -2.2440    -6.3502 C.3     
  23 C23           -5.8949    -2.6433    -5.0268 C.3     
  24 H24           -6.6493    -3.0054    -8.2600 H       
  25 O25           -0.1930    -3.4312     1.8492 O.2     
  26 N26            2.0207    -3.9501     1.6429 N.am    
  27 C27            2.6501    -2.7509    -0.1970 C.ar    
  28 C28            3.0788    -3.6286     0.7912 C.ar    
  29 C29            3.5211    -2.2900    -1.1583 C.ar    
  30 C30            4.8432    -2.7017    -1.1474 C.ar    
  31 C31            5.2835    -3.5769    -0.1672 C.ar    
  32 C32            4.4096    -4.0398     0.7979 C.ar    
  33 Cl33           5.9454    -2.1238    -2.3578 Cl      
  34 F34            6.5731    -3.9794    -0.1552 F       
  35 C35            1.8027    -6.5980     2.3610 C.ar    
  36 C36            0.5341    -6.9077     1.8933 C.ar    
  37 C37            2.7901    -7.5644     2.3678 C.ar    
  38 C38            2.5147    -8.8389     1.9086 C.ar    
  39 C39            1.2508    -9.1501     1.4418 C.ar    
  40 C40            0.2601    -8.1877     1.4333 C.ar    
  41 H41            1.0381   -10.1466     1.0835 H       
  42 O42           -0.4390    -5.9590     1.8860 O.3     
  43 C43           -1.7214    -6.3488     1.3904 C.3     
  44 S44            2.1567    -4.9716     2.9392 S.o2    
  45 O45            3.5281    -4.9676     3.3111 O.2     
  46 O46            1.1078    -4.6266     3.8337 O.2     
  47 O47            1.3569    -0.5138    -1.9366 O.3     
  48 C48            1.3771     0.4891    -2.9543 C.3     
  49 C49            1.8321    -0.1340    -4.2755 C.3     
  50 F50            3.0777    -0.7457    -4.0980 F       
  51 F51            0.8973    -1.0903    -4.6865 F       
  52 H52            0.8928     1.9600    -1.2113 H       
  53 H53            0.5340    -1.3523     2.4202 H       
  54 H54            0.1315     1.0320     2.8806 H       
  55 H55            0.3091     2.6864     1.0672 H       
  56 H56            0.6592    -2.4448    -2.0250 H       
  57 H57            0.4625    -4.0401    -1.2603 H       
  58 H58           -4.0561    -3.5709    -1.2706 H       
  59 H59           -3.5462    -1.9407    -0.7579 H       
  60 H60           -5.0582    -1.9281    -2.7828 H       
  61 H61           -3.4693    -1.1820    -3.0803 H       
  62 H62           -2.1469    -3.9784    -4.9796 H       
  63 H63           -1.8053    -2.3539    -4.3359 H       
  64 H64           -0.6273    -3.9900    -2.9650 H       
  65 H65           -2.1286    -4.9220    -2.7241 H       
  66 H66           -4.0360    -1.6315    -5.4413 H       
  67 H67           -2.9116    -3.5652    -6.4814 H       
  68 H68           -4.2918    -4.6101    -6.0641 H       
  69 H69           -4.3896    -2.1608    -7.8838 H       
  70 H70           -4.4429    -3.8578    -8.4177 H       
  71 H71           -6.2304    -1.2398    -6.6266 H       
  72 H72           -7.6356    -2.2603    -6.2372 H       
  73 H73           -6.2264    -3.6421    -4.7428 H       
  74 H74           -6.1770    -1.9313    -4.2512 H       
  75 H75            3.1735    -1.6084    -1.9205 H       
  76 H76            4.7593    -4.7215     1.5592 H       
  77 H77            3.7780    -7.3238     2.7319 H       
  78 H78            3.2881    -9.5927     1.9141 H       
  79 H79           -0.7271    -8.4315     1.0693 H       
  80 H80           -1.6262    -6.6787     0.3559 H       
  81 H81           -2.1127    -7.1651     1.9975 H       
  82 H82           -2.4034    -5.4999     1.4398 H       
  83 H83            0.3767     0.9051    -3.0743 H       
  84 H84            2.0685     1.2821    -2.6694 H       
  85 H85            1.9142     0.6437    -5.0348 H       
@<TRIPOS>BOND
   1    1    2 ar
   2    1    6 ar
   3    1   52 1
   4    2    3 ar
   5    2   47 1
   6    3    4 ar
   7    3    7 1
   8    4    5 ar
   9    4   53 1
  10    5    6 ar
  11    5   54 1
  12    6   55 1
  13    7    8 1
  14    7    9 1
  15    7   27 1
  16    8   25 2
  17    8   26 am
  18    9   10 1
  19    9   56 1
  20    9   57 1
  21   10   11 am
  22   10   12 2
  23   11   13 1
  24   11   17 1
  25   13   14 1
  26   13   58 1
  27   13   59 1
  28   14   15 1
  29   14   60 1
  30   14   61 1
  31   15   16 1
  32   15   18 1
  33   16   17 1
  34   16   62 1
  35   16   63 1
  36   17   64 1
  37   17   65 1
  38   18   19 1
  39   18   23 1
  40   18   66 1
  41   19   20 1
  42   19   67 1
  43   19   68 1
  44   20   21 1
  45   20   69 1
  46   20   70 1
  47   21   22 1
  48   21   24 1
  49   22   23 1
  50   22   71 1
  51   22   72 1
  52   23   73 1
  53   23   74 1
  54   26   44 am
  55   26   28 1
  56   27   28 ar
  57   27   29 ar
  58   28   32 ar
  59   29   30 ar
  60   29   75 1
  61   30   31 ar
  62   30   33 1
  63   31   32 ar
  64   31   34 1
  65   32   76 1
  66   35   36 ar
  67   35   37 ar
  68   35   44 1
  69   36   42 1
  70   36   40 ar
  71   37   38 ar
  72   37   77 1
  73   38   39 ar
  74   38   78 1
  75   39   40 ar
  76   39   41 1
  77   40   79 1
  78   42   43 1
  79   43   80 1
  80   43   81 1
  81   43   82 1
  82   44   45 2
  83   44   46 2
  84   47   48 1
  85   48   49 1
  86   48   83 1
  87   48   84 1
  88   49   50 1
  89   49   51 1
  90   49   85 1

#	End of record

