#	Name: ASD09080138
#	Creating user name:	WinNT
#	Creation time:	15. 06. 2019 21:20

#	Modifying user name:	WinNT
#	Modification time:	15. 06. 2019 21:20

#	Program:	/corina/corina34_cracker 3.40 0067  02.08.2006

@<TRIPOS>MOLECULE
ASD09080138
  71   74    0    0    0
SMALL
NO_CHARGES


@<TRIPOS>ATOM
   1 C1            -0.0167     1.3799     0.0096 C.ar    
   2 C2             0.0021    -0.0041     0.0020 C.ar    
   3 C3            -1.1844    -0.7169     0.0091 C.ar    
   4 C4            -2.3938    -0.0494     0.0242 C.ar    
   5 C5            -2.4179     1.3436     0.0324 C.ar    
   6 C6            -1.2209     2.0565     0.0305 C.ar    
   7 Cl7            1.4756     2.2669     0.0001 Cl      
   8 Cl8           -1.1526    -2.4526    -0.0017 Cl      
   9 C9            -3.7143     2.0655     0.0481 C.ar    
  10 C10           -3.7388     3.4586     0.0563 C.ar    
  11 C11           -4.9474     4.1250     0.0704 C.ar    
  12 C12           -6.1329     3.4124     0.0765 C.ar    
  13 C13           -6.1145     2.0293     0.0689 C.ar    
  14 C14           -4.9116     1.3528     0.0489 C.ar    
  15 C15           -7.4494     4.1455     0.0919 C.3     
  16 C16           -7.9073     4.4019    -1.3453 C.3     
  17 N17           -8.1834     3.1234    -2.0053 N.am    
  18 C18           -9.1783     5.2536    -1.3314 C.3     
  19 C19           -9.6362     5.5099    -2.7686 C.3     
  20 O20           -9.9510     4.2673    -3.4417 O.3     
  21 C21          -10.9001     4.6303    -4.4585 C.3     
  22 O22          -11.5616     5.8390    -4.0625 O.3     
  23 C23          -11.0040     6.2367    -2.7936 C.3     
  24 C24          -10.1717     4.8540    -5.7853 C.3     
  25 C25          -11.9300     3.5110    -4.6235 C.3     
  26 C26           -9.1238     2.2968    -1.5065 C.2     
  27 C27           -9.4078     0.9817    -2.1854 C.3     
  28 O28           -9.7415     2.6113    -0.5113 O.2     
  29 O29          -10.4365     0.2907    -1.4738 O.3     
  30 C30          -10.7835    -0.9756    -2.0380 C.3     
  31 O31           -8.9090     6.5006    -0.6876 O.3     
  32 C32           -9.6430     8.3719     0.6194 C.ar    
  33 C33           -9.7616     9.5529    -0.0893 C.ar    
  34 C34           -9.4036    10.7512     0.4996 C.ar    
  35 C35           -8.9275    10.7686     1.7972 C.ar    
  36 C36           -8.8098     9.5878     2.5062 C.ar    
  37 C37           -9.1664     8.3893     1.9168 C.ar    
  38 C38          -10.0391     7.0662    -0.0205 C.3     
  39 H39            0.9456    -0.5295    -0.0098 H       
  40 H40           -3.3190    -0.6065     0.0293 H       
  41 H41           -1.2346     3.1364     0.0372 H       
  42 H42           -2.8137     4.0160     0.0519 H       
  43 H43           -4.9675     5.2048     0.0771 H       
  44 H44           -7.0430     1.4778     0.0744 H       
  45 H45           -4.8983     0.2729     0.0430 H       
  46 H46           -8.1955     3.5418     0.6087 H       
  47 H47           -7.3295     5.0969     0.6102 H       
  48 H48           -7.1227     4.9290    -1.8880 H       
  49 H49           -7.6893     2.8719    -2.8012 H       
  50 H50           -9.9629     4.7265    -0.7886 H       
  51 H51           -8.8841     6.0733    -3.3209 H       
  52 H52          -11.6354     5.8978    -1.9722 H       
  53 H53          -10.8668     7.3173    -2.7548 H       
  54 H54           -9.6605     3.9369    -6.0782 H       
  55 H55          -10.8936     5.1290    -6.5543 H       
  56 H56           -9.4421     5.6553    -5.6687 H       
  57 H57          -12.4525     3.3560    -3.6795 H       
  58 H58          -12.6482     3.7889    -5.3949 H       
  59 H59          -11.4231     2.5907    -4.9136 H       
  60 H60           -9.7340     1.1643    -3.2092 H       
  61 H61           -8.5023     0.3749    -2.1953 H       
  62 H62          -11.5704    -1.4361    -1.4406 H       
  63 H63          -11.1383    -0.8335    -3.0588 H       
  64 H64           -9.9066    -1.6229    -2.0448 H       
  65 H65          -10.1335     9.5393    -1.1031 H       
  66 H66           -9.4956    11.6738    -0.0543 H       
  67 H67           -8.6472    11.7048     2.2571 H       
  68 H68           -8.4372     9.6013     3.5198 H       
  69 H69           -9.0737     7.4666     2.4705 H       
  70 H70          -10.8365     7.2425    -0.7424 H       
  71 H71          -10.3901     6.3770     0.7476 H       
@<TRIPOS>BOND
   1    1    2 ar
   2    1    7 1
   3    1    6 ar
   4    2    3 ar
   5    2   39 1
   6    3    4 ar
   7    3    8 1
   8    4    5 ar
   9    4   40 1
  10    5    6 ar
  11    5    9 1
  12    6   41 1
  13    9   10 ar
  14    9   14 ar
  15   10   11 ar
  16   10   42 1
  17   11   12 ar
  18   11   43 1
  19   12   13 ar
  20   12   15 1
  21   13   14 ar
  22   13   44 1
  23   14   45 1
  24   15   16 1
  25   15   46 1
  26   15   47 1
  27   16   17 1
  28   16   18 1
  29   16   48 1
  30   17   26 am
  31   17   49 1
  32   18   31 1
  33   18   19 1
  34   18   50 1
  35   19   20 1
  36   19   23 1
  37   19   51 1
  38   20   21 1
  39   21   22 1
  40   21   24 1
  41   21   25 1
  42   22   23 1
  43   23   52 1
  44   23   53 1
  45   24   54 1
  46   24   55 1
  47   24   56 1
  48   25   57 1
  49   25   58 1
  50   25   59 1
  51   26   27 1
  52   26   28 2
  53   27   29 1
  54   27   60 1
  55   27   61 1
  56   29   30 1
  57   30   62 1
  58   30   63 1
  59   30   64 1
  60   31   38 1
  61   32   33 ar
  62   32   37 ar
  63   32   38 1
  64   33   34 ar
  65   33   65 1
  66   34   35 ar
  67   34   66 1
  68   35   36 ar
  69   35   67 1
  70   36   37 ar
  71   36   68 1
  72   37   69 1
  73   38   70 1
  74   38   71 1

#	End of record

