#	Name: ASD02160013
#	Creating user name:	WinNT
#	Creation time:	15. 06. 2019 20:18

#	Modifying user name:	WinNT
#	Modification time:	15. 06. 2019 20:18

#	Program:	/corina/corina34_cracker 3.40 0067  02.08.2006

@<TRIPOS>MOLECULE
ASD02160013
  61   63    0    0    0
SMALL
NO_CHARGES


@<TRIPOS>ATOM
   1 C1             0.2646     2.1489     0.0202 C.3     
   2 C2             0.6025     0.6932     0.1748 C.2     
   3 C3             1.8136     0.2155    -0.1602 C.2     
   4 N4             2.7845     1.0469    -0.6479 N.pl3   
   5 C5             2.6858     2.4004    -0.4733 C.2     
   6 C6             1.5114     2.9692    -0.1515 C.2     
   7 C7             2.1055    -1.2538     0.0041 C.3     
   8 C8             3.9092     3.2638    -0.6429 C.3     
   9 C9             1.4482     4.3703     0.0298 C.2     
  10 O10            2.4502     5.0472    -0.1062 O.2     
  11 O11            0.2766     4.9565     0.3535 O.3     
  12 C12            0.2858     6.3756     0.5213 C.3     
  13 C13           -1.1000     6.8483     0.8778 C.ar    
  14 C14           -0.6176     2.3278    -1.1884 C.ar    
  15 C15           -0.3743    -0.1935     0.6841 C.2     
  16 O16           -1.0688    -0.9878    -0.1573 O.3     
  17 O17           -0.5885    -0.2404     1.8810 O.2     
  18 C18           -1.9960     7.2009    -0.1140 C.ar    
  19 C19           -1.4943     6.9297     2.2043 C.ar    
  20 C20           -2.7788     7.3700     2.4853 C.ar    
  21 C21           -3.6173     7.7107     1.4410 C.ar    
  22 N22           -3.2100     7.6158     0.1903 N.ar    
  23 C23           -2.2357     2.6567    -3.4058 C.ar    
  24 C24           -0.9210     2.2588    -3.5624 C.ar    
  25 C25           -0.1119     2.0946    -2.4539 C.ar    
  26 C26           -1.9337     2.7197    -1.0315 C.ar    
  27 C27           -2.7430     2.8839    -2.1404 C.ar    
  28 C28           -2.0399    -1.8588     0.4260 C.3     
  29 N29           -2.4769     2.9630     0.3237 N.pl3   
  30 O30           -2.1865     2.2145     1.2397 O.2     
  31 O31           -3.2143     3.9117     0.5230 O.2     
  32 C32           -3.0893    -1.0287     1.1680 C.3     
  33 C33           -2.7203    -2.6745    -0.6752 C.3     
  34 C34           -1.3499    -2.8059     1.4098 C.3     
  35 H35           -0.2697     2.4894     0.9072 H       
  36 H36            3.5464     0.6752    -1.1194 H       
  37 H37            1.7547    -1.7945    -0.8750 H       
  38 H38            3.1798    -1.4005     0.1161 H       
  39 H39            1.5933    -1.6293     0.8899 H       
  40 H40            4.7632     2.6374    -0.9003 H       
  41 H41            3.7358     3.9871    -1.4397 H       
  42 H42            4.1134     3.7916     0.2887 H       
  43 H43            0.9775     6.6425     1.3203 H       
  44 H44            0.6035     6.8492    -0.4076 H       
  45 H45           -1.6981     7.1361    -1.1501 H       
  46 H46           -0.8172     6.6562     3.0001 H       
  47 H47           -3.1198     7.4454     3.5072 H       
  48 H48           -4.6193     8.0546     1.6514 H       
  49 H49           -2.8679     2.7850    -4.2720 H       
  50 H50           -0.5246     2.0812    -4.5512 H       
  51 H51            0.9153     1.7845    -2.5762 H       
  52 H52           -3.7700     3.1948    -2.0180 H       
  53 H53           -3.5809    -0.3540     0.4671 H       
  54 H54           -3.8300    -1.6931     1.6129 H       
  55 H55           -2.6046    -0.4476     1.9525 H       
  56 H56           -1.9727    -3.2659    -1.2039 H       
  57 H57           -3.4610    -3.3389    -0.2303 H       
  58 H58           -3.2118    -1.9998    -1.3761 H       
  59 H59           -0.8653    -2.2248     2.1943 H       
  60 H60           -2.0907    -3.4703     1.8547 H       
  61 H61           -0.6023    -3.3973     0.8812 H       
@<TRIPOS>BOND
   1    1    2 1
   2    1    6 1
   3    1   14 1
   4    1   35 1
   5    2    3 2
   6    2   15 1
   7    3    4 1
   8    3    7 1
   9    4    5 1
  10    4   36 1
  11    5    6 2
  12    5    8 1
  13    6    9 1
  14    7   37 1
  15    7   38 1
  16    7   39 1
  17    8   40 1
  18    8   41 1
  19    8   42 1
  20    9   10 2
  21    9   11 1
  22   11   12 1
  23   12   13 1
  24   12   43 1
  25   12   44 1
  26   13   19 ar
  27   13   18 ar
  28   14   26 ar
  29   14   25 ar
  30   15   16 1
  31   15   17 2
  32   16   28 1
  33   18   22 ar
  34   18   45 1
  35   19   20 ar
  36   19   46 1
  37   20   21 ar
  38   20   47 1
  39   21   22 ar
  40   21   48 1
  41   23   24 ar
  42   23   27 ar
  43   23   49 1
  44   24   25 ar
  45   24   50 1
  46   25   51 1
  47   26   27 ar
  48   26   29 1
  49   27   52 1
  50   28   32 1
  51   28   33 1
  52   28   34 1
  53   29   30 2
  54   29   31 2
  55   32   53 1
  56   32   54 1
  57   32   55 1
  58   33   56 1
  59   33   57 1
  60   33   58 1
  61   34   59 1
  62   34   60 1
  63   34   61 1

#	End of record

