#	Name: ASD01916086
#	Creating user name:	WinNT
#	Creation time:	15. 06. 2019 20:06

#	Modifying user name:	WinNT
#	Modification time:	15. 06. 2019 20:06

#	Program:	/corina/corina34_cracker 3.40 0067  02.08.2006

@<TRIPOS>MOLECULE
ASD01916086
  37   39    0    0    0
SMALL
NO_CHARGES


@<TRIPOS>ATOM
   1 C1            -0.4100     1.7399     0.1049 C.ar    
   2 C2            -0.5424     0.3896     0.3737 C.ar    
   3 N3             0.5008    -0.3401     0.7074 N.ar    
   4 C4             1.7186     0.1816     0.8004 C.ar    
   5 C5             1.9318     1.5324     0.5447 C.ar    
   6 C6             0.8478     2.3311     0.1896 C.ar    
   7 C7            -1.9014    -0.2554     0.2835 C.3     
   8 O8             1.0134     3.6534    -0.0684 O.3     
   9 C9             2.2651     4.1721     0.0366 C.ar    
  10 C10            3.1951     3.9757    -0.9740 C.ar    
  11 N11            4.4105     4.4771    -0.8772 N.ar    
  12 C12            4.7910     5.1789     0.1720 C.ar    
  13 C13            3.9201     5.4169     1.2208 C.ar    
  14 C14            2.6303     4.9124     1.1567 C.ar    
  15 C15            2.8602    -0.6825     1.1804 C.2     
  16 N16            2.6605    -1.9919     1.4299 N.am    
  17 O17            3.9768    -0.2109     1.2671 O.2     
  18 C18            3.7473    -2.8264     1.6840 C.ar    
  19 C19            3.5463    -4.1947     1.8251 C.ar    
  20 C20            4.6338    -5.0126     2.0768 C.ar    
  21 C21            5.8908    -4.4306     2.1791 C.ar    
  22 C22            6.0168    -3.0625     2.0275 C.ar    
  23 N23            4.9618    -2.3093     1.7832 N.ar    
  24 Cl24           7.2885    -5.4109     2.4943 Cl      
  25 Cl25           4.4342     6.3417     2.5971 Cl      
  26 H26           -1.2722     2.3284    -0.1721 H       
  27 H27            2.9227     1.9552     0.6211 H       
  28 H28           -2.0618    -0.6247    -0.7294 H       
  29 H29           -1.9563    -1.0869     0.9862 H       
  30 H30           -2.6690     0.4786     0.5285 H       
  31 H31            2.9205     3.4057    -1.8492 H       
  32 H32            5.7957     5.5729     0.2138 H       
  33 H33            1.9291     5.0825     1.9603 H       
  34 H34            1.7604    -2.3533     1.4326 H       
  35 H35            2.5545    -4.6138     1.7399 H       
  36 H36            4.5080    -6.0791     2.1915 H       
  37 H37            6.9919    -2.6049     2.1065 H       
@<TRIPOS>BOND
   1    1    2 ar
   2    1    6 ar
   3    1   26 1
   4    2    3 ar
   5    2    7 1
   6    3    4 ar
   7    4    5 ar
   8    4   15 1
   9    5    6 ar
  10    5   27 1
  11    6    8 1
  12    7   28 1
  13    7   29 1
  14    7   30 1
  15    8    9 1
  16    9   10 ar
  17    9   14 ar
  18   10   11 ar
  19   10   31 1
  20   11   12 ar
  21   12   13 ar
  22   12   32 1
  23   13   14 ar
  24   13   25 1
  25   14   33 1
  26   15   16 am
  27   15   17 2
  28   16   18 1
  29   16   34 1
  30   18   19 ar
  31   18   23 ar
  32   19   20 ar
  33   19   35 1
  34   20   21 ar
  35   20   36 1
  36   21   22 ar
  37   21   24 1
  38   22   23 ar
  39   22   37 1

#	End of record

