#	Name: ASD01912286
#	Creating user name:	WinNT
#	Creation time:	15. 06. 2019 19:59

#	Modifying user name:	WinNT
#	Modification time:	15. 06. 2019 19:59

#	Program:	/corina/corina34_cracker 3.40 0067  02.08.2006

@<TRIPOS>MOLECULE
ASD01912286
  59   62    0    0    0
SMALL
NO_CHARGES


@<TRIPOS>ATOM
   1 N1            -0.0162     1.3400     0.0094 N.am    
   2 C2             1.2293     1.8453    -0.0087 C.2     
   3 C3             2.2454     0.7245    -0.0183 C.3     
   4 C4             1.4285    -0.5245    -0.4230 C.3     
   5 C5             0.0040    -0.1274     0.0237 C.3     
   6 O6             1.4992     3.0277    -0.0165 O.2     
   7 C7            -1.1820     2.1137     0.0193 C.ar    
   8 C8            -2.4245     1.5014    -0.0821 C.ar    
   9 C9            -3.5732     2.2677    -0.0715 C.ar    
  10 C10           -3.4873     3.6436     0.0395 C.ar    
  11 C11           -2.2520     4.2562     0.1407 C.ar    
  12 C12           -1.0994     3.4948     0.1364 C.ar    
  13 S13           -5.1500     1.4919    -0.2002 S.o2    
  14 O14           -5.8662     2.2022    -1.2011 O.2     
  15 O15           -4.9051     0.0936    -0.2643 O.2     
  16 N16           -5.9471     1.7621     1.2259 N.am    
  17 C17           -6.7917     2.9521     1.3908 C.3     
  18 C18           -8.2135     2.5024     1.7504 C.3     
  19 C19           -8.1271     1.5056     2.8853 C.2     
  20 C20           -7.2142     0.3099     2.7244 C.3     
  21 C21           -5.8223     0.8115     2.3383 C.3     
  22 C22           -8.8374     1.6768     3.9994 C.2     
  23 C23           -8.7424     0.7225     5.0628 C.1     
  24 C24           -8.6645    -0.0599     5.9347 C.1     
  25 C25           -8.5695    -1.0142     6.9981 C.ar    
  26 C26           -9.3169    -0.8298     8.1650 C.ar    
  27 C27           -9.2136    -1.7606     9.1822 C.ar    
  28 C28           -8.3675    -2.8473     9.0040 C.ar    
  29 C29           -7.6565    -2.9691     7.8241 C.ar    
  30 N30           -7.7750    -2.0726     6.8665 N.ar    
  31 C31           -6.7378    -4.1476     7.6287 C.3     
  32 C32           -4.7429     4.4770     0.0497 C.3     
  33 H33            3.0263     0.9238    -0.7522 H       
  34 H34            2.6775     0.5927     0.9736 H       
  35 H35            1.4689    -0.6848    -1.5004 H       
  36 H36            1.7739    -1.4075     0.1145 H       
  37 H37           -0.1927    -0.4976     1.0299 H       
  38 H38           -0.7340    -0.5216    -0.6749 H       
  39 H39           -2.4922     0.4271    -0.1696 H       
  40 H40           -2.1882     5.3309     0.2269 H       
  41 H41           -0.1349     3.9736     0.2197 H       
  42 H42           -6.3924     3.5757     2.1907 H       
  43 H43           -6.8120     3.5177     0.4592 H       
  44 H44           -8.8030     3.3643     2.0631 H       
  45 H45           -8.6800     2.0330     0.8844 H       
  46 H46           -7.1602    -0.2396     3.6642 H       
  47 H47           -7.5977    -0.3416     1.9392 H       
  48 H48           -5.2044    -0.0321     2.0304 H       
  49 H49           -5.3656     1.3084     3.1942 H       
  50 H50           -9.4847     2.5354     4.1005 H       
  51 H51           -9.9653     0.0274     8.2706 H       
  52 H52           -9.7783    -1.6449    10.0955 H       
  53 H53           -8.2653    -3.5910     9.7805 H       
  54 H54           -7.2908    -4.9673     7.1702 H       
  55 H55           -5.9105    -3.8597     6.9800 H       
  56 H56           -6.3475    -4.4681     8.5947 H       
  57 H57           -5.0902     4.5981     1.0758 H       
  58 H58           -4.5326     5.4561    -0.3807 H       
  59 H59           -5.5140     3.9795    -0.5386 H       
@<TRIPOS>BOND
   1    1    2 am
   2    1    5 1
   3    1    7 1
   4    2    3 1
   5    2    6 2
   6    3    4 1
   7    3   33 1
   8    3   34 1
   9    4    5 1
  10    4   35 1
  11    4   36 1
  12    5   37 1
  13    5   38 1
  14    7    8 ar
  15    7   12 ar
  16    8    9 ar
  17    8   39 1
  18    9   10 ar
  19    9   13 1
  20   10   11 ar
  21   10   32 1
  22   11   12 ar
  23   11   40 1
  24   12   41 1
  25   13   14 2
  26   13   15 2
  27   13   16 am
  28   16   17 1
  29   16   21 1
  30   17   18 1
  31   17   42 1
  32   17   43 1
  33   18   19 1
  34   18   44 1
  35   18   45 1
  36   19   20 1
  37   19   22 2
  38   20   21 1
  39   20   46 1
  40   20   47 1
  41   21   48 1
  42   21   49 1
  43   22   23 1
  44   22   50 1
  45   23   24 3
  46   24   25 1
  47   25   26 ar
  48   25   30 ar
  49   26   27 ar
  50   26   51 1
  51   27   28 ar
  52   27   52 1
  53   28   29 ar
  54   28   53 1
  55   29   30 ar
  56   29   31 1
  57   31   54 1
  58   31   55 1
  59   31   56 1
  60   32   57 1
  61   32   58 1
  62   32   59 1

#	End of record

