#	Name: ASD03330106
#	Creating user name:	WinNT
#	Creation time:	15. 06. 2019 20:36

#	Modifying user name:	WinNT
#	Modification time:	15. 06. 2019 20:36

#	Program:	/corina/corina34_cracker 3.40 0067  02.08.2006

@<TRIPOS>MOLECULE
ASD03330106
  33   33    0    0    0
SMALL
NO_CHARGES


@<TRIPOS>ATOM
   1 N1            -0.0600     1.3966     0.0140 N.3     
   2 C2            -0.0081    -0.0706    -0.0166 C.3     
   3 C3             0.6907    -0.5310    -1.2980 C.3     
   4 C4             2.1071     0.0495    -1.3379 C.3     
   5 C5             2.0269     1.5764    -1.2559 C.3     
   6 C6             1.2894     1.9757     0.0242 C.3     
   7 C7             2.9001    -0.4766    -0.1694 C.2     
   8 O8             3.4625     0.2950     0.5785 O.2     
   9 N9             2.9843    -1.8046     0.0447 N.am    
  10 C10            2.7794    -0.3512    -2.6257 C.ar    
  11 C11            4.0329     0.1436    -2.9340 C.ar    
  12 C12            4.6496    -0.2239    -4.1153 C.ar    
  13 C13            4.0131    -1.0864    -4.9881 C.ar    
  14 C14            2.7600    -1.5819    -4.6794 C.ar    
  15 C15            2.1451    -1.2178    -3.4960 C.ar    
  16 H16           -0.6017     1.7555    -0.7580 H       
  17 H17            0.5461    -0.4325     0.8494 H       
  18 H18           -1.0218    -0.4705     0.0080 H       
  19 H19            0.7430    -1.6196    -1.3129 H       
  20 H20            0.1295    -0.1811    -2.1644 H       
  21 H21            3.0339     1.9933    -1.2409 H       
  22 H22            1.4868     1.9594    -2.1217 H       
  23 H23            1.2181     3.0620     0.0784 H       
  24 H24            1.8375     1.6041     0.8900 H       
  25 H25            2.4768    -2.4183    -0.5093 H       
  26 H26            3.5523    -2.1467     0.7526 H       
  27 H27            4.5302     0.8174    -2.2521 H       
  28 H28            5.6286     0.1632    -4.3565 H       
  29 H29            4.4946    -1.3730    -5.9114 H       
  30 H30            2.2626    -2.2555    -5.3614 H       
  31 H31            1.1677    -1.6078    -3.2531 H       
  32 Cl32          10.6286     8.0620     5.8900 Cl      
  33 H33           10.6286     9.4320     5.8900 H       
@<TRIPOS>BOND
   1    1    2 1
   2    1    6 1
   3    1   16 1
   4    2    3 1
   5    2   17 1
   6    2   18 1
   7    3    4 1
   8    3   19 1
   9    3   20 1
  10    4    5 1
  11    4    7 1
  12    4   10 1
  13    5    6 1
  14    5   21 1
  15    5   22 1
  16    6   23 1
  17    6   24 1
  18    7    8 2
  19    7    9 am
  20    9   25 1
  21    9   26 1
  22   10   11 ar
  23   10   15 ar
  24   11   12 ar
  25   11   27 1
  26   12   13 ar
  27   12   28 1
  28   13   14 ar
  29   13   29 1
  30   14   15 ar
  31   14   30 1
  32   15   31 1
  33   32   33 1

#	End of record

