#	Name: ASD01209282
#	Creating user name:	WinNT
#	Creation time:	15. 06. 2019 19:11

#	Modifying user name:	WinNT
#	Modification time:	15. 06. 2019 19:11

#	Program:	/corina/corina34_cracker 3.40 0067  02.08.2006

@<TRIPOS>MOLECULE
ASD01209282
  70   72    0    0    0
SMALL
NO_CHARGES


@<TRIPOS>ATOM
   1 C1            -0.0929     1.4883     0.4483 C.3     
   2 C2            -0.3879     0.0876     0.9194 C.ar    
   3 C3            -1.0769    -0.7867     0.0997 C.ar    
   4 C4            -1.3475    -2.0715     0.5318 C.ar    
   5 C5            -0.9287    -2.4824     1.7835 C.ar    
   6 C6            -0.2388    -1.6084     2.6028 C.ar    
   7 C7             0.0355    -0.3249     2.1690 C.ar    
   8 S8            -1.2746    -4.1198     2.3348 S.o2    
   9 O9            -1.2934    -4.0158     3.7518 O.2     
  10 O10           -2.4394    -4.4941     1.6121 O.2     
  11 C11            0.1547    -5.0932     1.7870 C.3     
  12 C12            1.3980     1.7065     0.4235 C.2     
  13 O13            2.1422     0.8596     0.8703 O.2     
  14 N14            1.9042     2.8427    -0.0953 N.am    
  15 C15            3.2795     3.0694    -0.0677 C.ar    
  16 P16            8.2200     2.4296     1.0540 P.3     
  17 O17            7.9524     1.0883     0.4884 O.2     
  18 O18            7.6337     2.5073     2.5515 O.3     
  19 O19            9.8082     2.6918     1.0853 O.3     
  20 C20           10.7304     1.8085     1.7267 C.3     
  21 C21           12.1516     2.3524     1.5685 C.3     
  22 C22           -0.7398     2.4942     1.4026 C.3     
  23 C23           -2.2606     2.3319     1.3605 C.3     
  24 C24           -2.9152     3.2182     2.4346 C.3     
  25 C25           -3.8353     4.2070     1.6893 C.3     
  26 C26           -4.1512     3.4961     0.3499 C.3     
  27 C27           -2.8058     2.8130    -0.0001 C.3     
  28 C28            7.9884     1.5758     3.5755 C.3     
  29 C29            7.2560     1.9370     4.8694 C.3     
  30 C30            4.1596     2.0017     0.0825 C.ar    
  31 N31            5.4610     2.2202     0.1077 N.ar    
  32 C32            5.9285     3.4514    -0.0095 C.ar    
  33 C33            5.0570     4.5143    -0.1583 C.ar    
  34 N34            3.7526     4.3024    -0.1899 N.ar    
  35 C35            7.4151     3.6968     0.0198 C.3     
  36 O36            7.6735     4.9918     0.5659 O.3     
  37 H37           -0.4972     1.6271    -0.5544 H       
  38 H38           -1.4041    -0.4657    -0.8783 H       
  39 H39           -1.8864    -2.7543    -0.1083 H       
  40 H40            0.0881    -1.9293     3.5809 H       
  41 H41            0.5745     0.3578     2.8091 H       
  42 H42            1.0617    -4.6941     2.2410 H       
  43 H43            0.0240    -6.1323     2.0892 H       
  44 H44            0.2373    -5.0382     0.7015 H       
  45 H45            1.3117     3.5028    -0.4878 H       
  46 H46           10.4855     1.7344     2.7863 H       
  47 H47           10.6661     0.8213     1.2691 H       
  48 H48           12.8550     1.6786     2.0578 H       
  49 H49           12.3965     2.4264     0.5090 H       
  50 H50           12.2159     3.3395     2.0262 H       
  51 H51           -0.3831     2.3139     2.4167 H       
  52 H52           -0.4738     3.5065     1.0985 H       
  53 H53           -2.5291     1.2882     1.5232 H       
  54 H54           -3.5021     2.6047     3.1181 H       
  55 H55           -2.1494     3.7639     2.9859 H       
  56 H56           -4.7508     4.3773     2.2559 H       
  57 H57           -3.3167     5.1485     1.5084 H       
  58 H58           -4.9382     2.7538     0.4828 H       
  59 H59           -4.4274     4.2206    -0.4162 H       
  60 H60           -2.1209     3.5294    -0.4538 H       
  61 H61           -2.9699     1.9661    -0.6663 H       
  62 H62            7.7045     0.5700     3.2659 H       
  63 H63            9.0645     1.6138     3.7443 H       
  64 H64            7.5266     1.2265     5.6505 H       
  65 H65            7.5399     2.9428     5.1789 H       
  66 H66            6.1799     1.8990     4.7005 H       
  67 H67            3.7782     0.9959     0.1785 H       
  68 H68            5.4426     5.5187    -0.2530 H       
  69 H69            7.8121     3.6442    -0.9940 H       
  70 H70            7.3469     5.1104     1.4683 H       
@<TRIPOS>BOND
   1    1    2 1
   2    1   12 1
   3    1   22 1
   4    1   37 1
   5    2    3 ar
   6    2    7 ar
   7    3    4 ar
   8    3   38 1
   9    4    5 ar
  10    4   39 1
  11    5    6 ar
  12    5    8 1
  13    6    7 ar
  14    6   40 1
  15    7   41 1
  16    8    9 2
  17    8   10 2
  18    8   11 1
  19   11   42 1
  20   11   43 1
  21   11   44 1
  22   12   13 2
  23   12   14 am
  24   14   15 1
  25   14   45 1
  26   15   30 ar
  27   15   34 ar
  28   16   17 2
  29   16   18 1
  30   16   19 1
  31   16   35 1
  32   18   28 1
  33   19   20 1
  34   20   21 1
  35   20   46 1
  36   20   47 1
  37   21   48 1
  38   21   49 1
  39   21   50 1
  40   22   23 1
  41   22   51 1
  42   22   52 1
  43   23   24 1
  44   23   27 1
  45   23   53 1
  46   24   25 1
  47   24   54 1
  48   24   55 1
  49   25   26 1
  50   25   56 1
  51   25   57 1
  52   26   27 1
  53   26   58 1
  54   26   59 1
  55   27   60 1
  56   27   61 1
  57   28   29 1
  58   28   62 1
  59   28   63 1
  60   29   64 1
  61   29   65 1
  62   29   66 1
  63   30   31 ar
  64   30   67 1
  65   31   32 ar
  66   32   33 ar
  67   32   35 1
  68   33   34 ar
  69   33   68 1
  70   35   36 1
  71   35   69 1
  72   36   70 1

#	End of record

