#	Name: ASD00170263
#	Creating user name:	WinNT
#	Creation time:	15. 06. 2019 18:31

#	Modifying user name:	WinNT
#	Modification time:	15. 06. 2019 18:31

#	Program:	/corina/corina34_cracker 3.40 0067  02.08.2006

@<TRIPOS>MOLECULE
ASD00170263
  28   30    0    0    0
SMALL
NO_CHARGES


@<TRIPOS>ATOM
   1 C1            -0.0383     1.3651    -0.1430 C.2     
   2 C2             0.0053     0.0022    -0.0033 C.2     
   3 C3            -1.3085    -0.6097     0.1745 C.ar    
   4 C4            -2.3376     0.3329     0.1641 C.ar    
   5 S5            -1.6879     1.9504    -0.0556 S.3     
   6 C6            -1.6599    -1.9649     0.3478 C.ar    
   7 C7            -2.9726    -2.3015     0.4970 C.ar    
   8 N8            -3.9222    -1.3824     0.4822 N.ar    
   9 C9            -3.6527    -0.1046     0.3236 C.ar    
  10 N10            1.0639     2.1656    -0.3216 N.pl3   
  11 C11            1.2100    -0.7419    -0.0298 C.2     
  12 C12            1.9176    -1.0488     1.2325 C.ar    
  13 O13            1.6636    -1.1291    -1.0920 O.2     
  14 C14            3.0442    -1.8724     1.2214 C.ar    
  15 C15            3.7002    -2.1553     2.4025 C.ar    
  16 C16            3.2414    -1.6232     3.5972 C.ar    
  17 C17            2.1238    -0.8053     3.6131 C.ar    
  18 C18            1.4643    -0.5111     2.4384 C.ar    
  19 Cl19           4.0704    -1.9838     5.0793 Cl      
  20 Cl20           5.1018    -3.1796     2.3916 Cl      
  21 H21           -0.8964    -2.7286     0.3619 H       
  22 H22           -3.2416    -3.3390     0.6294 H       
  23 H23           -4.4587     0.6142     0.3176 H       
  24 H24            1.9539     1.7820    -0.2793 H       
  25 H25            0.9522     3.1143    -0.4901 H       
  26 H26            3.4017    -2.2879     0.2909 H       
  27 H27            1.7708    -0.3935     4.5470 H       
  28 H28            0.5932     0.1272     2.4524 H       
@<TRIPOS>BOND
   1    1    2 2
   2    1   10 1
   3    1    5 1
   4    2    3 1
   5    2   11 1
   6    3    4 ar
   7    3    6 ar
   8    4    5 1
   9    4    9 ar
  10    6    7 ar
  11    6   21 1
  12    7    8 ar
  13    7   22 1
  14    8    9 ar
  15    9   23 1
  16   10   24 1
  17   10   25 1
  18   11   12 1
  19   11   13 2
  20   12   14 ar
  21   12   18 ar
  22   14   15 ar
  23   14   26 1
  24   15   16 ar
  25   15   20 1
  26   16   17 ar
  27   16   19 1
  28   17   18 ar
  29   17   27 1
  30   18   28 1

#	End of record

