#	Name: ASD01880087
#	Creating user name:	WinNT
#	Creation time:	15. 06. 2019 19:40

#	Modifying user name:	WinNT
#	Modification time:	15. 06. 2019 19:40

#	Program:	/corina/corina34_cracker 3.40 0067  02.08.2006

@<TRIPOS>MOLECULE
ASD01880087
  52   54    0    0    0
SMALL
NO_CHARGES


@<TRIPOS>ATOM
   1 C1            -0.2180     1.2961    -1.3038 C.ar    
   2 C2            -0.1754    -0.0773    -1.4499 C.ar    
   3 N3             0.9359    -0.7469    -1.2133 N.ar    
   4 C4             2.0427    -0.1405    -0.8314 C.ar    
   5 C5             2.0759     1.2313    -0.6646 C.ar    
   6 C6             0.9267     1.9688    -0.9036 C.ar    
   7 C7             3.3450     1.9163    -0.2274 C.3     
   8 N8             4.1296     2.2899    -1.4068 N.am    
   9 C9             3.8671     3.4918    -2.0681 C.ar    
  10 S10            5.3276     1.2872    -1.9560 S.o2    
  11 C11            4.4947     0.1919    -3.1381 C.3     
  12 O12            6.2291     2.1547    -2.6298 O.2     
  13 O13            5.7327     0.5613    -0.8036 O.2     
  14 C14            3.2804     4.5475    -1.3843 C.ar    
  15 C15            3.0214     5.7387    -2.0441 C.ar    
  16 C16            3.3490     5.8731    -3.3859 C.ar    
  17 C17            3.9332     4.8208    -4.0655 C.ar    
  18 C18            4.1981     3.6342    -3.4103 C.ar    
  19 O19            2.4467     6.7741    -1.3775 O.3     
  20 C20            2.0995     7.9277    -2.1461 C.3     
  21 C21            0.9641     8.6812    -1.4505 C.3     
  22 C22            0.5925     9.9164    -2.2735 C.3     
  23 C23            1.8117    10.8324    -2.3975 C.3     
  24 C24            2.9471    10.0788    -3.0931 C.3     
  25 C25            3.3187     8.8437    -2.2701 C.3     
  26 C26            5.4534    -0.9217    -3.5644 C.3     
  27 F27            5.8421    -1.6581    -2.4402 F       
  28 F28            4.8111    -1.7664    -4.4760 F       
  29 F29            6.5837    -0.3587    -4.1668 F       
  30 H30           -1.1299     1.8392    -1.5030 H       
  31 H31           -1.0627    -0.6087    -1.7612 H       
  32 H32            2.9336    -0.7224    -0.6465 H       
  33 H33            0.9231     3.0419    -0.7815 H       
  34 H34            3.0969     2.8117     0.3425 H       
  35 H35            3.9275     1.2383     0.3966 H       
  36 H36            3.6141    -0.2467    -2.6687 H       
  37 H37            4.1919     0.7657    -4.0139 H       
  38 H38            3.0258     4.4409    -0.3401 H       
  39 H39            3.1468     6.8012    -3.9000 H       
  40 H40            4.1867     4.9281    -5.1098 H       
  41 H41            4.6550     2.8136    -3.9435 H       
  42 H42            1.7751     7.6182    -3.1396 H       
  43 H43            0.0955     8.0287    -1.3622 H       
  44 H44            1.2886     8.9907    -0.4570 H       
  45 H45            0.2680     9.6069    -3.2670 H       
  46 H46           -0.2164    10.4532    -1.7779 H       
  47 H47            1.5469    11.7123    -2.9837 H       
  48 H48            2.1361    11.1419    -1.4040 H       
  49 H49            2.6226     9.7693    -4.0866 H       
  50 H50            3.8157    10.7314    -3.1814 H       
  51 H51            3.6432     9.1532    -1.2766 H       
  52 H52            4.1276     8.3069    -2.7657 H       
@<TRIPOS>BOND
   1    1    2 ar
   2    1    6 ar
   3    1   30 1
   4    2    3 ar
   5    2   31 1
   6    3    4 ar
   7    4    5 ar
   8    4   32 1
   9    5    6 ar
  10    5    7 1
  11    6   33 1
  12    7    8 1
  13    7   34 1
  14    7   35 1
  15    8    9 1
  16    8   10 am
  17    9   14 ar
  18    9   18 ar
  19   10   11 1
  20   10   12 2
  21   10   13 2
  22   11   26 1
  23   11   36 1
  24   11   37 1
  25   14   15 ar
  26   14   38 1
  27   15   16 ar
  28   15   19 1
  29   16   17 ar
  30   16   39 1
  31   17   18 ar
  32   17   40 1
  33   18   41 1
  34   19   20 1
  35   20   21 1
  36   20   25 1
  37   20   42 1
  38   21   22 1
  39   21   43 1
  40   21   44 1
  41   22   23 1
  42   22   45 1
  43   22   46 1
  44   23   24 1
  45   23   47 1
  46   23   48 1
  47   24   25 1
  48   24   49 1
  49   24   50 1
  50   25   51 1
  51   25   52 1
  52   26   27 1
  53   26   28 1
  54   26   29 1

#	End of record

