#	Name: ASD03240470
#	Creating user name:	WinNT
#	Creation time:	15. 06. 2019 20:35

#	Modifying user name:	WinNT
#	Modification time:	15. 06. 2019 20:35

#	Program:	/corina/corina34_cracker 3.40 0067  02.08.2006

@<TRIPOS>MOLECULE
ASD03240470
  52   55    0    0    0
SMALL
NO_CHARGES


@<TRIPOS>ATOM
   1 C1            -0.0167     1.3781     0.0096 C.ar    
   2 C2            -2.5299     1.8434     2.1999 C.ar    
   3 C3            -1.6432     2.5668     1.4231 C.ar    
   4 C4            -1.3319     2.1138     0.0199 C.3     
   5 C5            -2.8186     2.2538     3.4858 C.ar    
   6 C6            -2.2150     3.3988     4.0007 C.ar    
   7 C7            -1.3230     4.1239     3.2139 C.ar    
   8 C8            -1.0414     3.7046     1.9293 C.ar    
   9 C9            -2.5220     3.8453     5.3831 C.2     
  10 C10           -2.0054     4.9416     6.0097 C.2     
  11 N11           -2.5372     4.9923     7.2476 N.pl3   
  12 N12           -3.4047     3.9034     7.3961 N.2     
  13 C13           -3.4043     3.2175     6.2838 C.2     
  14 C14            0.0021    -0.0041     0.0020 C.ar    
  15 N15           -1.2455     3.2836    -0.8645 N.3     
  16 C16           -0.9566     2.8983    -2.1799 C.3     
  17 C17            1.1709     2.0855     0.0021 C.ar    
  18 C18            2.3773     1.4107    -0.0131 C.ar    
  19 C19            2.3960     0.0285    -0.0203 C.ar    
  20 C20            1.2084    -0.6789    -0.0132 C.ar    
  21 C21           -0.6634     4.1215    -3.0772 C.3     
  22 C22           -1.9642     4.8053    -3.4128 C.3     
  23 N23           -2.3053     5.8926    -2.4673 N.3     
  24 C24           -2.0380     5.5583    -1.0532 C.3     
  25 C25           -2.4387     4.1425    -0.7241 C.3     
  26 C26           -1.6418     7.1472    -2.8462 C.3     
  27 H27           -3.0007     0.9583     1.7981 H       
  28 H28           -2.1221     1.4503    -0.3315 H       
  29 H29           -3.5114     1.6884     4.0914 H       
  30 H30           -0.8524     5.0123     3.6084 H       
  31 H31           -0.3498     4.2658     1.3186 H       
  32 H32           -1.2985     5.6420     5.5900 H       
  33 H33           -2.3507     5.6666     7.9195 H       
  34 H34           -3.9754     2.3214     6.0913 H       
  35 H35           -0.9258    -0.5567     0.0083 H       
  36 H36           -0.0858     2.2426    -2.1759 H       
  37 H37           -1.8088     2.3541    -2.5869 H       
  38 H38            1.1563     3.1654     0.0077 H       
  39 H39            3.3051     1.9634    -0.0197 H       
  40 H40            3.3385    -0.4987    -0.0329 H       
  41 H41            1.2231    -1.7588    -0.0184 H       
  42 H42           -0.0125     4.8160    -2.5461 H       
  43 H43           -0.1767     3.7924    -3.9953 H       
  44 H44           -1.8925     5.2230    -4.4170 H       
  45 H45           -2.7638     4.0647    -3.3994 H       
  46 H46           -0.9732     5.6808    -0.8549 H       
  47 H47           -2.5971     6.2426    -0.4151 H       
  48 H48           -3.2148     3.8099    -1.4135 H       
  49 H49           -2.8093     4.0933     0.2998 H       
  50 H50           -1.9074     7.4034    -3.8718 H       
  51 H51           -1.9642     7.9451    -2.1772 H       
  52 H52           -0.5614     7.0240    -2.7706 H       
@<TRIPOS>BOND
   1    1   14 ar
   2    1   17 ar
   3    1    4 1
   4    2    3 ar
   5    2    5 ar
   6    2   27 1
   7    3    4 1
   8    3    8 ar
   9    4   15 1
  10    4   28 1
  11    5    6 ar
  12    5   29 1
  13    6    7 ar
  14    6    9 1
  15    7    8 ar
  16    7   30 1
  17    8   31 1
  18    9   10 2
  19    9   13 1
  20   10   11 1
  21   10   32 1
  22   11   12 1
  23   11   33 1
  24   12   13 2
  25   13   34 1
  26   14   20 ar
  27   14   35 1
  28   15   16 1
  29   15   25 1
  30   16   21 1
  31   16   36 1
  32   16   37 1
  33   17   18 ar
  34   17   38 1
  35   18   19 ar
  36   18   39 1
  37   19   20 ar
  38   19   40 1
  39   20   41 1
  40   21   22 1
  41   21   42 1
  42   21   43 1
  43   22   23 1
  44   22   44 1
  45   22   45 1
  46   23   24 1
  47   23   26 1
  48   24   25 1
  49   24   46 1
  50   24   47 1
  51   25   48 1
  52   25   49 1
  53   26   50 1
  54   26   51 1
  55   26   52 1

#	End of record

