#	Name: ASD01230059
#	Creating user name:	WinNT
#	Creation time:	15. 06. 2019 19:11

#	Modifying user name:	WinNT
#	Modification time:	15. 06. 2019 19:11

#	Program:	/corina/corina34_cracker 3.40 0067  02.08.2006

@<TRIPOS>MOLECULE
ASD01230059
  31   33    0    0    0
SMALL
NO_CHARGES


@<TRIPOS>ATOM
   1 C1             0.0026     1.3533     0.0601 C.ar    
   2 C2             0.0180    -0.0316     0.0880 C.ar    
   3 C3            -1.1655    -0.7329     0.0848 C.ar    
   4 C4            -2.3975    -0.0574     0.0539 C.ar    
   5 C5            -2.4093     1.3367     0.0303 C.ar    
   6 C6            -1.1988     2.0307     0.0374 C.ar    
   7 N7            -3.5181    -0.8240     0.0438 N.2     
   8 C8            -4.5938    -0.6060     0.7083 C.2     
   9 C9            -4.7491     0.6061     1.5888 C.3     
  10 C10           -4.6700     1.8338     0.7172 C.2     
  11 N11           -3.5713     2.0968     0.0093 N.am    
  12 O12           -5.6162     2.5904     0.6593 O.2     
  13 Br13           1.6301     2.3162     0.0609 Br      
  14 C14           -5.7061    -1.5661     0.6070 C.ar    
  15 C15           -5.6429    -2.6183    -0.3123 C.ar    
  16 C16           -6.6847    -3.5189    -0.4077 C.ar    
  17 C17           -7.7955    -3.3884     0.4021 C.ar    
  18 C18           -7.8732    -2.3418     1.3252 C.ar    
  19 C19           -6.8237    -1.4318     1.4320 C.ar    
  20 C20           -9.0268    -2.2082     2.1631 C.1     
  21 N21           -9.9419    -2.1023     2.8278 N.1     
  22 H22            0.9591    -0.5607     0.1119 H       
  23 H23           -1.1476    -1.8125     0.1059 H       
  24 H24           -1.2024     3.1105     0.0167 H       
  25 H25           -5.7155     0.5738     2.0919 H       
  26 H26           -3.9491     0.6281     2.3288 H       
  27 H27           -3.5847     2.8786    -0.5647 H       
  28 H28           -4.7773    -2.7263    -0.9491 H       
  29 H29           -6.6310    -4.3294    -1.1195 H       
  30 H30           -8.6067    -4.0969     0.3218 H       
  31 H31           -6.8785    -0.6214     2.1438 H       
@<TRIPOS>BOND
   1    1    2 ar
   2    1   13 1
   3    1    6 ar
   4    2    3 ar
   5    2   22 1
   6    3    4 ar
   7    3   23 1
   8    4    5 ar
   9    4    7 1
  10    5    6 ar
  11    5   11 1
  12    6   24 1
  13    7    8 2
  14    8    9 1
  15    8   14 1
  16    9   10 1
  17    9   25 1
  18    9   26 1
  19   10   11 am
  20   10   12 2
  21   11   27 1
  22   14   15 ar
  23   14   19 ar
  24   15   16 ar
  25   15   28 1
  26   16   17 ar
  27   16   29 1
  28   17   18 ar
  29   17   30 1
  30   18   19 ar
  31   18   20 1
  32   19   31 1
  33   20   21 3

#	End of record

