#	Name: ASD03090815
#	Creating user name:	WinNT
#	Creation time:	15. 06. 2019 20:29

#	Modifying user name:	WinNT
#	Modification time:	15. 06. 2019 20:29

#	Program:	/corina/corina34_cracker 3.40 0067  02.08.2006

@<TRIPOS>MOLECULE
ASD03090815
  60   64    0    0    0
SMALL
NO_CHARGES


@<TRIPOS>ATOM
   1 N1            -0.0168     1.3518    -0.0625 N.am    
   2 C2             0.0018     0.0087     0.1487 C.2     
   3 N3            -1.0705    -0.7187     0.2345 N.2     
   4 C4            -2.3069    -0.1755     0.1166 C.ar    
   5 C5            -2.4250     1.2161    -0.1049 C.ar    
   6 C6            -1.1920     2.0130    -0.1916 C.2     
   7 O7            -1.2258     3.2147    -0.3808 O.2     
   8 C8            -3.4714    -0.9407     0.2054 C.ar    
   9 N9            -4.6503    -0.3684     0.0840 N.ar    
  10 C10           -4.7959     0.9333    -0.1240 C.ar    
  11 C11           -3.6939     1.7731    -0.2267 C.ar    
  12 N12           -6.0759     1.4676    -0.2426 N.3     
  13 C13           -7.0983     0.4208    -0.1063 C.3     
  14 C14           -8.2984     0.9482     0.6658 C.3     
  15 C15           -9.1575     1.9041    -0.1370 C.3     
  16 N16           -8.6878     2.0179    -1.5253 N.3     
  17 C17           -7.5461     2.9425    -1.5957 C.3     
  18 C18           -6.2323     2.1808    -1.5159 C.3     
  19 C19           -8.5120     0.7330    -2.1676 C.3     
  20 C20           -7.4511    -0.1127    -1.4827 C.3     
  21 C21            1.3386    -0.6724     0.2904 C.3     
  22 C22            1.3890    -1.9674     1.1037 C.3     
  23 C23            1.5263    -2.0147    -0.4194 C.3     
  24 C24            1.2452     2.0912    -0.1452 C.3     
  25 C25            1.6972     2.1669    -1.6049 C.3     
  26 C26            3.0152     2.9392    -1.6913 C.3     
  27 O27            3.4374     3.0099    -3.0546 O.3     
  28 C28            1.8986     0.7518    -2.1505 C.3     
  29 C29            0.6299     2.8856    -2.4327 C.3     
  30 H30           -3.4045    -2.0054     0.3738 H       
  31 H31           -3.8194     2.8324    -0.3958 H       
  32 H32           -6.6648    -0.4018     0.4625 H       
  33 H33           -8.9127     0.1032     0.9768 H       
  34 H34           -7.9412     1.4639     1.5572 H       
  35 H35          -10.1860     1.5433    -0.1377 H       
  36 H36           -9.1273     2.8882     0.3307 H       
  37 H37           -7.5863     3.4917    -2.5364 H       
  38 H38           -7.6034     3.6476    -0.7664 H       
  39 H39           -5.4083     2.8853    -1.6294 H       
  40 H40           -6.1924     1.4593    -2.3319 H       
  41 H41           -9.4599     0.1953    -2.1478 H       
  42 H42           -8.2202     0.8937    -3.2055 H       
  43 H43           -6.5527    -0.1223    -2.0999 H       
  44 H44           -7.8213    -1.1331    -1.3830 H       
  45 H45            2.2009    -0.0081     0.3479 H       
  46 H46            2.2846    -2.1553     1.6958 H       
  47 H47            0.4552    -2.3267     1.5362 H       
  48 H48            0.6829    -2.4051    -0.9889 H       
  49 H49            2.5123    -2.2337    -0.8293 H       
  50 H50            1.1017     3.0994     0.2435 H       
  51 H51            2.0056     1.5793     0.4446 H       
  52 H52            2.8717     3.9474    -1.3026 H       
  53 H53            3.7756     2.4272    -1.1015 H       
  54 H54            4.2685     3.4868    -3.1848 H       
  55 H55            0.9597     0.2016    -2.0890 H       
  56 H56            2.2207     0.8057    -3.1905 H       
  57 H57            2.6590     0.2398    -1.5608 H       
  58 H58            0.4864     3.8937    -2.0440 H       
  59 H59            0.9519     2.9395    -3.4727 H       
  60 H60           -0.3091     2.3354    -2.3712 H       
@<TRIPOS>BOND
   1    1    2 1
   2    1   24 1
   3    1    6 am
   4    2    3 2
   5    2   21 1
   6    3    4 1
   7    4    5 ar
   8    4    8 ar
   9    5    6 1
  10    5   11 ar
  11    6    7 2
  12    8    9 ar
  13    8   30 1
  14    9   10 ar
  15   10   11 ar
  16   10   12 1
  17   11   31 1
  18   12   13 1
  19   12   18 1
  20   13   14 1
  21   13   20 1
  22   13   32 1
  23   14   15 1
  24   14   33 1
  25   14   34 1
  26   15   16 1
  27   15   35 1
  28   15   36 1
  29   16   17 1
  30   16   19 1
  31   17   18 1
  32   17   37 1
  33   17   38 1
  34   18   39 1
  35   18   40 1
  36   19   20 1
  37   19   41 1
  38   19   42 1
  39   20   43 1
  40   20   44 1
  41   21   22 1
  42   21   23 1
  43   21   45 1
  44   22   23 1
  45   22   46 1
  46   22   47 1
  47   23   48 1
  48   23   49 1
  49   24   25 1
  50   24   50 1
  51   24   51 1
  52   25   26 1
  53   25   28 1
  54   25   29 1
  55   26   27 1
  56   26   52 1
  57   26   53 1
  58   27   54 1
  59   28   55 1
  60   28   56 1
  61   28   57 1
  62   29   58 1
  63   29   59 1
  64   29   60 1

#	End of record

