#	Name: ASD03330873
#	Creating user name:	WinNT
#	Creation time:	15. 06. 2019 20:38

#	Modifying user name:	WinNT
#	Modification time:	15. 06. 2019 20:38

#	Program:	/corina/corina34_cracker 3.40 0067  02.08.2006

@<TRIPOS>MOLECULE
ASD03330873
  57   59    0    0    0
SMALL
NO_CHARGES


@<TRIPOS>ATOM
   1 C1            -0.0371     1.2589     0.1958 C.2     
   2 C2            -0.0601    -0.2184     0.4916 C.3     
   3 N3             1.1057     2.0029     0.1497 N.pl3   
   4 N4             1.3118    -0.7348     0.3357 N.3     
   5 C5             2.2768     0.0874     1.0790 C.3     
   6 C6             2.4407     1.4482     0.3899 C.3     
   7 C7             0.7494     3.2804    -0.1454 C.2     
   8 N8            -0.5577     3.3306    -0.2740 N.2     
   9 C9            -1.0704     2.0950    -0.0728 C.2     
  10 C10           -2.4956     1.7248    -0.1321 C.2     
  11 O11           -2.8340     0.5744     0.0709 O.2     
  12 N12           -3.4240     2.6611    -0.4112 N.am    
  13 C13            1.3941    -2.1430     0.7458 C.3     
  14 C14           -5.5764     3.2670    -1.3541 C.2     
  15 C15           -4.8408     2.2931    -0.4701 C.3     
  16 C16           -5.4369     2.3323     0.9384 C.3     
  17 C17           -5.3705     3.7614     1.4808 C.3     
  18 O18           -5.1577     4.3970    -1.4915 O.2     
  19 N19           -6.6995     2.8823    -1.9921 N.am    
  20 C20           -7.4740     3.8573    -2.7640 C.3     
  21 C21           -6.8955     1.8732     0.8879 C.3     
  22 C22           -4.6407     1.4014     1.8552 C.3     
  23 C23            1.6769     4.4229    -0.2966 C.ar    
  24 C24            1.4107     5.6321     0.3492 C.ar    
  25 C25            2.2800     6.6953     0.2044 C.ar    
  26 C26            3.4125     6.5650    -0.5786 C.ar    
  27 C27            3.6825     5.3683    -1.2226 C.ar    
  28 C28            2.8236     4.2950    -1.0800 C.ar    
  29 F29            4.7903     5.2487    -1.9866 F       
  30 Cl30          -0.0107     5.7987     1.3318 Cl      
  31 H31           -0.4025    -0.3845     1.5130 H       
  32 H32           -0.7259    -0.7240    -0.2078 H       
  33 H33            1.9164     0.2378     2.0966 H       
  34 H34            3.2399    -0.4221     1.1085 H       
  35 H35            2.9616     1.3194    -0.5589 H       
  36 H36            3.0081     2.1206     1.0334 H       
  37 H37           -3.1541     3.5787    -0.5731 H       
  38 H38            0.7233    -2.7409     0.1288 H       
  39 H39            2.4167    -2.4988     0.6207 H       
  40 H40            1.1031    -2.2342     1.7923 H       
  41 H41           -4.9382     1.2870    -0.8780 H       
  42 H42           -5.9377     4.4246     0.8276 H       
  43 H43           -5.7952     3.7893     2.4842 H       
  44 H44           -4.3314     4.0885     1.5168 H       
  45 H45           -6.9950     1.9599    -1.9403 H       
  46 H46           -8.3413     3.3655    -3.2046 H       
  47 H47           -7.8068     4.6599    -2.1058 H       
  48 H48           -6.8502     4.2719    -3.5559 H       
  49 H49           -6.9379     0.8321     0.5678 H       
  50 H50           -7.3405     1.9671     1.8785 H       
  51 H51           -7.4473     2.4933     0.1814 H       
  52 H52           -3.6016     1.7285     1.8912 H       
  53 H53           -5.0654     1.4293     2.8587 H       
  54 H54           -4.6880     0.3833     1.4689 H       
  55 H55            2.0748     7.6308     0.7036 H       
  56 H56            4.0890     7.3996    -0.6889 H       
  57 H57            3.0372     3.3609    -1.5783 H       
@<TRIPOS>BOND
   1    1    2 1
   2    1    3 1
   3    1    9 2
   4    2    4 1
   5    2   31 1
   6    2   32 1
   7    3    6 1
   8    3    7 1
   9    4    5 1
  10    4   13 1
  11    5    6 1
  12    5   33 1
  13    5   34 1
  14    6   35 1
  15    6   36 1
  16    7    8 2
  17    7   23 1
  18    8    9 1
  19    9   10 1
  20   10   11 2
  21   10   12 am
  22   12   15 1
  23   12   37 1
  24   13   38 1
  25   13   39 1
  26   13   40 1
  27   14   18 2
  28   14   19 am
  29   14   15 1
  30   15   16 1
  31   15   41 1
  32   16   17 1
  33   16   21 1
  34   16   22 1
  35   17   42 1
  36   17   43 1
  37   17   44 1
  38   19   20 1
  39   19   45 1
  40   20   46 1
  41   20   47 1
  42   20   48 1
  43   21   49 1
  44   21   50 1
  45   21   51 1
  46   22   52 1
  47   22   53 1
  48   22   54 1
  49   23   24 ar
  50   23   28 ar
  51   24   25 ar
  52   24   30 1
  53   25   26 ar
  54   25   55 1
  55   26   27 ar
  56   26   56 1
  57   27   28 ar
  58   27   29 1
  59   28   57 1

#	End of record

