#	Name: ASD01720120
#	Creating user name:	WinNT
#	Creation time:	15. 06. 2019 19:23

#	Modifying user name:	WinNT
#	Modification time:	15. 06. 2019 19:23

#	Program:	/corina/corina34_cracker 3.40 0067  02.08.2006

@<TRIPOS>MOLECULE
ASD01720120
  71   75    0    0    0
SMALL
NO_CHARGES


@<TRIPOS>ATOM
   1 C1            -0.0189     1.3638    -0.0290 C.ar    
   2 C2             0.0006    -0.0048    -0.0268 C.ar    
   3 C3             1.2229    -0.6745    -0.0230 C.ar    
   4 N4             2.3682    -0.0065    -0.0211 N.ar    
   5 C5             2.3984     1.3148    -0.0230 C.ar    
   6 C6             1.2035     2.0517    -0.0273 C.ar    
   7 O7             3.5883     1.9613    -0.0205 O.3     
   8 C8             4.7662     1.1522    -0.0157 C.3     
   9 C9             6.0033     2.0524    -0.0134 C.3     
  10 C10            7.2644     1.1861    -0.0082 C.3     
  11 C11            8.4988     2.0816    -0.1316 C.3     
  12 C12            7.3357     0.3969     1.3006 C.3     
  13 C13            1.2330     3.5236    -0.0300 C.2     
  14 O14            2.2983     4.1106    -0.0285 O.2     
  15 N15            0.0795     4.2207    -0.0341 N.am    
  16 C16            0.1089     5.6854    -0.0368 C.3     
  17 C17           -1.1865     6.2203    -0.6506 C.3     
  18 C18           -1.1559     7.7500    -0.6534 C.3     
  19 C19            0.2413     6.1955     1.3996 C.3     
  20 C20            0.2719     7.7252     1.3968 C.3     
  21 C21           -1.0235     8.2601     0.7830 C.3     
  22 C22           -0.9523     5.7108     2.2250 C.3     
  23 C23           -2.3801     5.7357     0.1748 C.3     
  24 C24           -2.2171     7.7754     1.6084 C.3     
  25 C25           -2.2477     6.2457     1.6112 C.3     
  26 O26           -0.9949     9.6888     0.7804 O.3     
  27 N27            1.2414    -2.0597    -0.0209 N.pl3   
  28 C28            2.4553    -2.7427    -0.1416 C.ar    
  29 C29            2.6451    -3.9427     0.5268 C.ar    
  30 C30            3.8581    -4.6204     0.4025 C.ar    
  31 C31            4.8728    -4.0856    -0.3944 C.ar    
  32 C32            4.6737    -2.8910    -1.0553 C.ar    
  33 C33            3.4697    -2.2219    -0.9364 C.ar    
  34 C34            4.0688    -5.8992     1.1118 C.2     
  35 O35            5.2410    -6.5517     0.9901 O.3     
  36 O36            3.1850    -6.3622     1.8046 O.2     
  37 H37           -0.9551     1.9022    -0.0364 H       
  38 H38           -0.9247    -0.5619    -0.0277 H       
  39 H39            4.7721     0.5243     0.8753 H       
  40 H40            4.7774     0.5215    -0.9046 H       
  41 H41            5.9975     2.6803    -0.9043 H       
  42 H42            5.9921     2.6830     0.8756 H       
  43 H43            7.2327     0.4932    -0.8491 H       
  44 H44            8.5306     2.7745     0.7092 H       
  45 H45            9.3973     1.4644    -0.1280 H       
  46 H46            8.4481     2.6438    -1.0640 H       
  47 H47            7.3675     1.0897     2.1414 H       
  48 H48            6.4563    -0.2411     1.3885 H       
  49 H49            8.2341    -0.2203     1.3042 H       
  50 H50           -0.7700     3.7526    -0.0353 H       
  51 H51            0.9592     6.0307    -0.6248 H       
  52 H52           -1.2809     5.8570    -1.6739 H       
  53 H53           -0.3055     8.0953    -1.2414 H       
  54 H54           -2.0788     8.1311    -1.0907 H       
  55 H55            1.1641     5.8144     1.8368 H       
  56 H56            0.3663     8.0886     2.4201 H       
  57 H57            1.1223     8.0705     0.8087 H       
  58 H58           -0.9741     4.6210     2.2270 H       
  59 H59           -0.8580     6.0742     3.2483 H       
  60 H60           -3.3030     6.1167    -0.2625 H       
  61 H61           -2.4019     4.6459     0.1768 H       
  62 H62           -2.1227     8.1388     2.6317 H       
  63 H63           -3.1399     8.1565     1.1711 H       
  64 H64           -3.0981     5.9004     2.1992 H       
  65 H65           -1.7866    10.0974     0.4043 H       
  66 H66            0.4122    -2.5557     0.0645 H       
  67 H67            1.8568    -4.3510     1.1419 H       
  68 H68            5.8135    -4.6070    -0.4930 H       
  69 H69            5.4596    -2.4791    -1.6711 H       
  70 H70            3.3182    -1.2894    -1.4598 H       
  71 H71            5.3321    -7.3846     1.4729 H       
@<TRIPOS>BOND
   1    1    2 ar
   2    1    6 ar
   3    1   37 1
   4    2    3 ar
   5    2   38 1
   6    3    4 ar
   7    3   27 1
   8    4    5 ar
   9    5    6 ar
  10    5    7 1
  11    6   13 1
  12    7    8 1
  13    8    9 1
  14    8   39 1
  15    8   40 1
  16    9   10 1
  17    9   41 1
  18    9   42 1
  19   10   11 1
  20   10   12 1
  21   10   43 1
  22   11   44 1
  23   11   45 1
  24   11   46 1
  25   12   47 1
  26   12   48 1
  27   12   49 1
  28   13   14 2
  29   13   15 am
  30   15   16 1
  31   15   50 1
  32   16   17 1
  33   16   19 1
  34   16   51 1
  35   17   18 1
  36   17   23 1
  37   17   52 1
  38   18   21 1
  39   18   53 1
  40   18   54 1
  41   19   20 1
  42   19   22 1
  43   19   55 1
  44   20   21 1
  45   20   56 1
  46   20   57 1
  47   21   24 1
  48   21   26 1
  49   22   25 1
  50   22   58 1
  51   22   59 1
  52   23   25 1
  53   23   60 1
  54   23   61 1
  55   24   25 1
  56   24   62 1
  57   24   63 1
  58   25   64 1
  59   26   65 1
  60   27   28 1
  61   27   66 1
  62   28   29 ar
  63   28   33 ar
  64   29   30 ar
  65   29   67 1
  66   30   31 ar
  67   30   34 1
  68   31   32 ar
  69   31   68 1
  70   32   33 ar
  71   32   69 1
  72   33   70 1
  73   34   35 1
  74   34   36 2
  75   35   71 1

#	End of record

