#	Name: ASD02408176
#	Creating user name:	WinNT
#	Creation time:	15. 06. 2019 20:21

#	Modifying user name:	WinNT
#	Modification time:	15. 06. 2019 20:21

#	Program:	/corina/corina34_cracker 3.40 0067  02.08.2006

@<TRIPOS>MOLECULE
ASD02408176
  55   58    0    0    0
SMALL
NO_CHARGES


@<TRIPOS>ATOM
   1 C1             0.1243     0.9827     0.1627 C.ar    
   2 C2             0.1911    -0.3964     0.0959 C.ar    
   3 C3             1.4194    -1.0259     0.0183 C.ar    
   4 C4             2.5808    -0.2763     0.0071 C.ar    
   5 C5             2.5139     1.1028     0.0730 C.ar    
   6 C6             1.2858     1.7323     0.1520 C.ar    
   7 C7             3.9198    -0.9627    -0.0764 C.3     
   8 O8             4.2905    -1.1184    -1.4477 O.3     
   9 C9             5.4807    -1.7239    -1.7001 C.ar    
  10 C10            6.2753    -2.1592    -0.6498 C.ar    
  11 C11            5.9004    -1.9129    -3.0091 C.ar    
  12 C12            7.1102    -2.5291    -3.2630 C.ar    
  13 C13            7.9030    -2.9574    -2.2140 C.ar    
  14 C14            7.4846    -2.7750    -0.9091 C.ar    
  15 C15            5.0367    -1.4468    -4.1527 C.3     
  16 C16            5.3106     0.0093    -4.4280 C.2     
  17 N17            4.6363     0.6225    -5.4200 N.am    
  18 N18            6.1894     0.6358    -3.6938 N.2     
  19 C19            6.4730     1.9294    -3.8924 C.2     
  20 C20            5.8101     2.6291    -4.9142 C.2     
  21 C21            4.8561     1.9256    -5.6937 C.2     
  22 N22            7.4016     2.5652    -3.1054 N.pl3   
  23 C23            8.3095     3.6401    -3.5457 C.3     
  24 O24            4.2520     2.4843    -6.5930 O.2     
  25 C25            9.5058     3.5758    -2.5636 C.3     
  26 C26            8.7956     3.2219    -1.2303 C.3     
  27 C27            7.6506     2.2910    -1.6826 C.3     
  28 C28            6.3916     2.5781    -0.8620 C.3     
  29 O29            6.0835     3.9716    -0.9341 O.3     
  30 C30            6.0852     4.0131    -5.1584 C.1     
  31 N31            6.3034     5.1110    -5.3521 N.1     
  32 H32           -0.8354     1.4748     0.2187 H       
  33 H33           -0.7163    -0.9820     0.1047 H       
  34 H34            1.4716    -2.1034    -0.0331 H       
  35 H35            3.4213     1.6884     0.0646 H       
  36 H36            1.2335     2.8098     0.2031 H       
  37 H37            4.6695    -0.3603     0.4365 H       
  38 H38            3.8558    -1.9428     0.3962 H       
  39 H39            5.9490    -2.0166     0.3698 H       
  40 H40            7.4372    -2.6767    -4.2817 H       
  41 H41            8.8486    -3.4390    -2.4147 H       
  42 H42            8.1055    -3.1104    -0.0916 H       
  43 H43            5.2642    -2.0338    -5.0425 H       
  44 H44            3.9865    -1.5759    -3.8910 H       
  45 H45            3.9883     0.1236    -5.9417 H       
  46 H46            8.6462     3.4580    -4.5662 H       
  47 H47            7.8132     4.6081    -3.4761 H       
  48 H48           10.2069     2.7929    -2.8526 H       
  49 H49           10.0071     4.5412    -2.4949 H       
  50 H50            9.4763     2.7007    -0.5572 H       
  51 H51            8.3948     4.1183    -0.7570 H       
  52 H52            7.9479     1.2499    -1.5573 H       
  53 H53            5.5580     2.0005    -1.2615 H       
  54 H54            6.5633     2.2972     0.1771 H       
  55 H55            5.2950     4.2264    -0.4356 H       
@<TRIPOS>BOND
   1    1    2 ar
   2    1    6 ar
   3    1   32 1
   4    2    3 ar
   5    2   33 1
   6    3    4 ar
   7    3   34 1
   8    4    5 ar
   9    4    7 1
  10    5    6 ar
  11    5   35 1
  12    6   36 1
  13    7    8 1
  14    7   37 1
  15    7   38 1
  16    8    9 1
  17    9   10 ar
  18    9   11 ar
  19   10   14 ar
  20   10   39 1
  21   11   12 ar
  22   11   15 1
  23   12   13 ar
  24   12   40 1
  25   13   14 ar
  26   13   41 1
  27   14   42 1
  28   15   16 1
  29   15   43 1
  30   15   44 1
  31   16   17 1
  32   16   18 2
  33   17   21 am
  34   17   45 1
  35   18   19 1
  36   19   20 2
  37   19   22 1
  38   20   21 1
  39   20   30 1
  40   21   24 2
  41   22   23 1
  42   22   27 1
  43   23   25 1
  44   23   46 1
  45   23   47 1
  46   25   26 1
  47   25   48 1
  48   25   49 1
  49   26   27 1
  50   26   50 1
  51   26   51 1
  52   27   28 1
  53   27   52 1
  54   28   29 1
  55   28   53 1
  56   28   54 1
  57   29   55 1
  58   30   31 3

#	End of record

