#	Name: ASD01890269
#	Creating user name:	WinNT
#	Creation time:	15. 06. 2019 19:50

#	Modifying user name:	WinNT
#	Modification time:	15. 06. 2019 19:50

#	Program:	/corina/corina34_cracker 3.40 0067  02.08.2006

@<TRIPOS>MOLECULE
ASD01890269
  51   53    0    0    0
SMALL
NO_CHARGES


@<TRIPOS>ATOM
   1 C1            -0.0178     1.4581     0.0101 C.2     
   2 C2             0.0021    -0.0041     0.0020 C.2     
   3 C3             1.1795    -0.6627    -0.0128 C.2     
   4 C4             1.1999    -2.1695    -0.0210 C.3     
   5 C5             1.3188    -2.6700    -1.4620 C.3     
   6 O6             1.0271     2.0805     0.0034 O.2     
   7 O7            -1.1951     2.1167     0.0192 O.3     
   8 C8             2.4439     0.0905    -0.0208 C.ar    
   9 C9             2.7967     0.8833     1.0760 C.ar    
  10 C10            3.9833     1.5855     1.0610 C.ar    
  11 C11            4.8240     1.5076    -0.0357 C.ar    
  12 C12            4.4816     0.7256    -1.1251 C.ar    
  13 C13            3.3015     0.0125    -1.1228 C.ar    
  14 C14            1.3767    -6.9450    -1.4850 C.ar    
  15 C15            0.1658    -6.2616    -1.5748 C.ar    
  16 C16            0.1529    -4.8815    -1.5673 C.ar    
  17 C17            1.3392    -4.1769    -1.4703 C.ar    
  18 C18            2.5443    -4.8501    -1.3813 C.ar    
  19 C19            2.5688    -6.2301    -1.3880 C.ar    
  20 C20            1.3964    -8.4288    -1.4865 C.ar    
  21 C21            2.6073    -9.1122    -1.3967 C.ar    
  22 C22            2.6197   -10.4923    -1.3986 C.ar    
  23 C23            1.4330   -11.1970    -1.4899 C.ar    
  24 C24            0.2280   -10.5237    -1.5797 C.ar    
  25 C25            0.2035    -9.1438    -1.5720 C.ar    
  26 C26           -1.1397     3.5446     0.0267 C.3     
  27 C27           -2.5613     4.1101     0.0365 C.3     
  28 H28           -0.9258    -0.5567     0.0079 H       
  29 H29            2.0522    -2.5245     0.5584 H       
  30 H30            0.2777    -2.5478     0.4201 H       
  31 H31            0.4666    -2.3150    -2.0414 H       
  32 H32            2.2410    -2.2917    -1.9031 H       
  33 H33            2.1414     0.9456     1.9322 H       
  34 H34            4.2572     2.1982     1.9072 H       
  35 H35            5.7518     2.0603    -0.0416 H       
  36 H36            5.1425     0.6705    -1.9775 H       
  37 H37            3.0378    -0.6008    -1.9717 H       
  38 H38           -0.7610    -6.8109    -1.6506 H       
  39 H39           -0.7851    -4.3508    -1.6368 H       
  40 H40            3.4676    -4.2950    -1.3061 H       
  41 H41            3.5101    -6.7548    -1.3178 H       
  42 H42            3.5345    -8.5629    -1.3261 H       
  43 H43            3.5577   -11.0230    -1.3290 H       
  44 H44            1.4473   -12.2769    -1.4914 H       
  45 H45           -0.6956   -11.0789    -1.6512 H       
  46 H46           -0.7383    -8.6190    -1.6370 H       
  47 H47           -0.6079     3.8829     0.9160 H       
  48 H48           -0.6164     3.8926    -0.8639 H       
  49 H49           -3.0931     3.7718    -0.8528 H       
  50 H50           -3.0846     3.7622     0.9271 H       
  51 H51           -2.5190     5.1993     0.0423 H       
@<TRIPOS>BOND
   1    1    2 1
   2    1    6 2
   3    1    7 1
   4    2    3 2
   5    2   28 1
   6    3    4 1
   7    3    8 1
   8    4    5 1
   9    4   29 1
  10    4   30 1
  11    5   17 1
  12    5   31 1
  13    5   32 1
  14    7   26 1
  15    8    9 ar
  16    8   13 ar
  17    9   10 ar
  18    9   33 1
  19   10   11 ar
  20   10   34 1
  21   11   12 ar
  22   11   35 1
  23   12   13 ar
  24   12   36 1
  25   13   37 1
  26   14   15 ar
  27   14   19 ar
  28   14   20 1
  29   15   16 ar
  30   15   38 1
  31   16   17 ar
  32   16   39 1
  33   17   18 ar
  34   18   19 ar
  35   18   40 1
  36   19   41 1
  37   20   21 ar
  38   20   25 ar
  39   21   22 ar
  40   21   42 1
  41   22   23 ar
  42   22   43 1
  43   23   24 ar
  44   23   44 1
  45   24   25 ar
  46   24   45 1
  47   25   46 1
  48   26   27 1
  49   26   47 1
  50   26   48 1
  51   27   49 1
  52   27   50 1
  53   27   51 1

#	End of record

