#	Name: ASD02039195
#	Creating user name:	WinNT
#	Creation time:	15. 06. 2019 20:17

#	Modifying user name:	WinNT
#	Modification time:	15. 06. 2019 20:17

#	Program:	/corina/corina34_cracker 3.40 0067  02.08.2006

@<TRIPOS>MOLECULE
ASD02039195
  39   42    0    0    0
SMALL
NO_CHARGES


@<TRIPOS>ATOM
   1 N1             0.0021     1.2626     0.3692 N.2     
   2 C2             0.0063    -0.0135     0.0889 C.2     
   3 N3             1.2922    -0.3754    -0.1077 N.2     
   4 C4             1.9960     0.7159     0.0676 C.2     
   5 O5             1.1352     1.6953     0.3609 O.3     
   6 C6             3.4938     0.8426    -0.0406 C.3     
   7 N7            -1.1049    -0.8433     0.0088 N.pl3   
   8 C8            -2.3914    -0.3043     0.1299 C.ar    
   9 C9            -2.6368     1.0037    -0.2675 C.ar    
  10 C10           -3.9074     1.5349    -0.1474 C.ar    
  11 C11           -4.9377     0.7600     0.3707 C.ar    
  12 C12           -4.6919    -0.5452     0.7670 C.ar    
  13 C13           -3.4234    -1.0788     0.6420 C.ar    
  14 O14           -6.1881     1.2827     0.4894 O.3     
  15 F15           -4.1471     2.8072    -0.5333 F       
  16 C16            3.8675     1.1878    -1.4591 C.ar    
  17 C17            3.9579     2.5206    -1.8420 C.ar    
  18 C18            4.2944     2.8596    -3.1217 C.ar    
  19 C19            4.5516     1.8615    -4.0585 C.ar    
  20 C20            4.4610     0.5104    -3.6723 C.ar    
  21 C21            4.1194     0.1887    -2.3538 C.ar    
  22 N22            4.9029     1.8706    -5.3831 N.pl3   
  23 N23            5.0331     0.5518    -5.8305 N.2     
  24 C24            4.7824    -0.2774    -4.8579 C.2     
  25 C25           -7.1991     0.4297     1.0301 C.3     
  26 F26           -7.3396    -0.7003     0.2173 F       
  27 F27           -6.8333     0.0331     2.3209 F       
  28 H28            3.8411     1.6299     0.6285 H       
  29 H29            3.9595    -0.1027     0.2381 H       
  30 H30           -0.9895    -1.7962    -0.1311 H       
  31 H31           -1.8354     1.6056    -0.6698 H       
  32 H32           -5.4932    -1.1468     1.1700 H       
  33 H33           -3.2328    -2.0960     0.9511 H       
  34 H34            3.7593     3.2980    -1.1190 H       
  35 H35            4.3605     3.8993    -3.4066 H       
  36 H36            4.0474    -0.8446    -2.0483 H       
  37 H37            5.0390     2.6643    -5.9238 H       
  38 H38            4.8083    -1.3554    -4.9179 H       
  39 H39           -8.1458     0.9685     1.0701 H       
@<TRIPOS>BOND
   1    1    2 2
   2    1    5 1
   3    2    3 1
   4    2    7 1
   5    3    4 2
   6    4    5 1
   7    4    6 1
   8    6   16 1
   9    6   28 1
  10    6   29 1
  11    7    8 1
  12    7   30 1
  13    8    9 ar
  14    8   13 ar
  15    9   10 ar
  16    9   31 1
  17   10   11 ar
  18   10   15 1
  19   11   12 ar
  20   11   14 1
  21   12   13 ar
  22   12   32 1
  23   13   33 1
  24   14   25 1
  25   16   17 ar
  26   16   21 ar
  27   17   18 ar
  28   17   34 1
  29   18   19 ar
  30   18   35 1
  31   19   20 ar
  32   19   22 1
  33   20   21 ar
  34   20   24 1
  35   21   36 1
  36   22   23 1
  37   22   37 1
  38   23   24 2
  39   24   38 1
  40   25   26 1
  41   25   27 1
  42   25   39 1

#	End of record

