#	Name: ASD01200113
#	Creating user name:	WinNT
#	Creation time:	15. 06. 2019 19:08

#	Modifying user name:	WinNT
#	Modification time:	15. 06. 2019 19:08

#	Program:	/corina/corina34_cracker 3.40 0067  02.08.2006

@<TRIPOS>MOLECULE
ASD01200113
  28   30    0    0    0
SMALL
NO_CHARGES


@<TRIPOS>ATOM
   1 C1            -0.0167     1.3792     0.0096 C.ar    
   2 C2             0.0021    -0.0041     0.0020 C.ar    
   3 C3             1.2087    -0.6842    -0.0132 C.ar    
   4 C4             2.3920     0.0166    -0.0208 C.ar    
   5 C5             2.3846     1.4137    -0.0132 C.ar    
   6 C6             1.1648     2.0919     0.0022 C.ar    
   7 C7             3.8409    -0.4021    -0.0369 C.3     
   8 N8             4.6266     0.8371    -0.0378 N.am    
   9 C9             3.7832     1.8837    -0.0241 C.2     
  10 O10            4.1240     3.0505    -0.0207 O.2     
  11 O11            4.1420    -1.1737     1.1276 O.3     
  12 C12            6.0892     0.9201    -0.0514 C.3     
  13 C13            6.5770     0.9561    -1.4768 C.2     
  14 C14            6.7643     2.0627    -2.1976 C.2     
  15 C15            7.2197     1.8487    -3.4872 C.2     
  16 C16            7.4022     0.5683    -3.8135 C.2     
  17 S17            6.9938    -0.4540    -2.4418 S.3     
  18 H18           -0.9607     1.9038     0.0169 H       
  19 H19           -0.9267    -0.5552     0.0083 H       
  20 H20            1.2202    -1.7641    -0.0188 H       
  21 H21            1.1457     3.1718     0.0078 H       
  22 H22            4.0535    -0.9810    -0.9357 H       
  23 H23            3.6339    -1.9933     1.1986 H       
  24 H24            6.4065     1.8264     0.4643 H       
  25 H25            6.5072     0.0493     0.4538 H       
  26 H26            6.5747     3.0508    -1.8050 H       
  27 H27            7.4123     2.6571    -4.1769 H       
  28 H28            7.7509     0.2137    -4.7722 H       
@<TRIPOS>BOND
   1    1    2 ar
   2    1    6 ar
   3    1   18 1
   4    2    3 ar
   5    2   19 1
   6    3    4 ar
   7    3   20 1
   8    4    5 ar
   9    4    7 1
  10    5    6 ar
  11    5    9 1
  12    6   21 1
  13    7    8 1
  14    7   11 1
  15    7   22 1
  16    8    9 am
  17    8   12 1
  18    9   10 2
  19   11   23 1
  20   12   13 1
  21   12   24 1
  22   12   25 1
  23   13   14 2
  24   13   17 1
  25   14   15 1
  26   14   26 1
  27   15   16 2
  28   15   27 1
  29   16   17 1
  30   16   28 1

#	End of record

