#	Name: ASD01881796
#	Creating user name:	WinNT
#	Creation time:	15. 06. 2019 19:43

#	Modifying user name:	WinNT
#	Modification time:	15. 06. 2019 19:43

#	Program:	/corina/corina34_cracker 3.40 0067  02.08.2006

@<TRIPOS>MOLECULE
ASD01881796
  45   48    0    0    0
SMALL
NO_CHARGES


@<TRIPOS>ATOM
   1 N1             0.0444     1.1979    -0.7499 N.pl3   
   2 N2             0.0356    -0.0524    -0.4400 N.2     
   3 N3             1.2109    -0.4759    -0.1323 N.2     
   4 C4             2.0905     0.5409    -0.2342 C.ar    
   5 C5             1.3352     1.6567    -0.6420 C.ar    
   6 C6             3.4664     0.6769    -0.0309 C.ar    
   7 C7             4.0649     1.9047    -0.2333 C.ar    
   8 C8             3.3066     3.0012    -0.6369 C.ar    
   9 C9             1.9601     2.8811    -0.8398 C.ar    
  10 O10            5.4033     2.0444    -0.0370 O.3     
  11 C11            5.9405     3.3642    -0.1452 C.3     
  12 C12            7.2285     3.4593     0.6753 C.3     
  13 C13            8.2472     2.4488     0.1443 C.3     
  14 C14            8.5533     2.7561    -1.3229 C.3     
  15 C15            7.2654     2.6610    -2.1434 C.3     
  16 C16            6.2466     3.6715    -1.6124 C.3     
  17 O17            6.9426     3.1722     2.0456 O.3     
  18 C18            7.7998     3.8435     2.9712 C.3     
  19 C19           -1.1190     1.9916    -1.1534 C.3     
  20 C20           -1.7677     2.6121     0.0856 C.3     
  21 C21           -2.9343     3.5769    -0.1359 C.3     
  22 C22           -3.1945     2.1786     0.4279 C.3     
  23 Br23           4.5002    -0.8085     0.5175 Br      
  24 H24            3.7873     3.9559    -0.7912 H       
  25 H25            1.3824     3.7382    -1.1529 H       
  26 H26            5.2148     4.0841     0.2331 H       
  27 H27            7.6383     4.4659     0.5928 H       
  28 H28            9.1648     2.5166     0.7288 H       
  29 H29            7.8374     1.4421     0.2268 H       
  30 H30            8.9631     3.7628    -1.4055 H       
  31 H31            9.2791     2.0362    -1.7012 H       
  32 H32            7.4834     2.8800    -3.1886 H       
  33 H33            6.8555     1.6544    -2.0609 H       
  34 H34            5.3291     3.6037    -2.1969 H       
  35 H35            6.6564     4.6782    -1.6949 H       
  36 H36            7.7020     4.9213     2.8411 H       
  37 H37            7.5183     3.5732     3.9889 H       
  38 H38            8.8332     3.5479     2.7894 H       
  39 H39           -0.8011     2.7832    -1.8320 H       
  40 H40           -1.8403     1.3486    -1.6577 H       
  41 H41           -1.0922     2.8212     0.9151 H       
  42 H42           -3.0264     4.4206     0.5480 H       
  43 H43           -3.2396     3.7697    -1.1644 H       
  44 H44           -3.6711     1.4515    -0.2295 H       
  45 H45           -3.4580     2.1024     1.4829 H       
@<TRIPOS>BOND
   1    1    2 1
   2    1    5 1
   3    1   19 1
   4    2    3 2
   5    3    4 1
   6    4    5 ar
   7    4    6 ar
   8    5    9 ar
   9    6    7 ar
  10    6   23 1
  11    7    8 ar
  12    7   10 1
  13    8    9 ar
  14    8   24 1
  15    9   25 1
  16   10   11 1
  17   11   12 1
  18   11   16 1
  19   11   26 1
  20   12   13 1
  21   12   17 1
  22   12   27 1
  23   13   14 1
  24   13   28 1
  25   13   29 1
  26   14   15 1
  27   14   30 1
  28   14   31 1
  29   15   16 1
  30   15   32 1
  31   15   33 1
  32   16   34 1
  33   16   35 1
  34   17   18 1
  35   18   36 1
  36   18   37 1
  37   18   38 1
  38   19   20 1
  39   19   39 1
  40   19   40 1
  41   20   21 1
  42   20   22 1
  43   20   41 1
  44   21   22 1
  45   21   42 1
  46   21   43 1
  47   22   44 1
  48   22   45 1

#	End of record

