#	Name: ASD01903069
#	Creating user name:	WinNT
#	Creation time:	15. 06. 2019 19:54

#	Modifying user name:	WinNT
#	Modification time:	15. 06. 2019 19:54

#	Program:	/corina/corina34_cracker 3.40 0067  02.08.2006

@<TRIPOS>MOLECULE
ASD01903069
  26   28    0    0    0
SMALL
NO_CHARGES


@<TRIPOS>ATOM
   1 C1            -0.0160     1.2944     0.0210 C.2     
   2 N2             0.0004    -0.0032     0.0040 N.2     
   3 C3            -1.1729    -0.6194     0.0268 C.2     
   4 C4            -2.2469     0.1860     0.0650 C.2     
   5 S5            -1.6842     1.8558     0.0782 S.3     
   6 C6            -1.2918    -2.1001     0.0106 C.2     
   7 N7             1.1051     2.1111     0.0028 N.pl3   
   8 C8            -2.4887    -2.8375    -0.0676 C.2     
   9 N9            -2.1846    -4.1087    -0.0573 N.2     
  10 N10           -0.7925    -4.2321     0.0273 N.pl3   
  11 C11           -0.2612    -2.9916     0.0629 C.2     
  12 C12            0.9587     3.4915    -0.0934 C.ar    
  13 N13           -0.2451     4.0127    -0.2730 N.ar    
  14 C14           -0.4275     5.3160    -0.3694 C.ar    
  15 C15            0.6393     6.1882    -0.2860 C.ar    
  16 C16            1.9187     5.6820    -0.0978 C.ar    
  17 C17            2.0779     4.3120     0.0057 C.ar    
  18 H18           -3.2780    -0.1347     0.0875 H       
  19 H19            1.9910     1.7200     0.0572 H       
  20 H20           -3.4850    -2.4246    -0.1257 H       
  21 H21           -0.2956    -5.0648     0.0527 H       
  22 H22            0.7892    -2.7492     0.1272 H       
  23 H23           -1.4241     5.7054    -0.5157 H       
  24 H24            0.4805     7.2535    -0.3667 H       
  25 H25            2.7697     6.3435    -0.0293 H       
  26 H26            3.0587     3.8844     0.1524 H       
@<TRIPOS>BOND
   1    1    2 2
   2    1    7 1
   3    1    5 1
   4    2    3 1
   5    3    4 2
   6    3    6 1
   7    4    5 1
   8    4   18 1
   9    6    8 1
  10    6   11 2
  11    7   12 1
  12    7   19 1
  13    8    9 2
  14    8   20 1
  15    9   10 1
  16   10   11 1
  17   10   21 1
  18   11   22 1
  19   12   13 ar
  20   12   17 ar
  21   13   14 ar
  22   14   15 ar
  23   14   23 1
  24   15   16 ar
  25   15   24 1
  26   16   17 ar
  27   16   25 1
  28   17   26 1

#	End of record

