#	Name: ASD01910304
#	Creating user name:	WinNT
#	Creation time:	15. 06. 2019 19:55

#	Modifying user name:	WinNT
#	Modification time:	15. 06. 2019 19:55

#	Program:	/corina/corina34_cracker 3.40 0067  02.08.2006

@<TRIPOS>MOLECULE
ASD01910304
  47   50    0    0    0
SMALL
NO_CHARGES


@<TRIPOS>ATOM
   1 C1             0.0260     1.3049    -0.0724 C.ar    
   2 C2             2.4544    -0.0357    -0.0827 C.ar    
   3 C3             2.4258     1.3572    -0.0728 C.ar    
   4 C4             1.2030     2.0249    -0.0674 C.ar    
   5 C5             3.6946     2.1277    -0.0670 C.2     
   6 N6             3.8188     3.4400    -0.0576 N.2     
   7 N7             5.0774     3.7169    -0.0549 N.pl3   
   8 N8             5.7544     2.6221    -0.0623 N.2     
   9 N9             4.9370     1.6243    -0.0644 N.2     
  10 C10            5.6481     5.0662    -0.0457 C.3     
  11 C11            6.5105     5.2475     1.2055 C.3     
  12 C12            7.0807     6.6674     1.2327 C.3     
  13 C13            7.9653     6.8819     0.0005 C.3     
  14 N14            7.1834     6.5686    -1.2033 N.am    
  15 C15            6.5165     5.2625    -1.2924 C.3     
  16 C16            7.0798     7.4624    -2.2067 C.2     
  17 C17            7.6770     8.8060    -2.0637 C.ar    
  18 O18            6.4950     7.1629    -3.2296 O.2     
  19 C19            9.0305     8.9412    -1.7484 C.ar    
  20 C20            9.5828    10.1974    -1.6165 C.ar    
  21 C21            8.7968    11.3252    -1.7960 C.ar    
  22 C22            7.4519    11.1966    -2.1088 C.ar    
  23 C23            6.8910     9.9456    -2.2490 C.ar    
  24 F24            9.3429    12.5540    -1.6652 F       
  25 C25            0.0589    -0.0801    -0.0827 C.ar    
  26 C26            1.2727    -0.7481    -0.0876 C.ar    
  27 C27            5.4295     9.8074    -2.5894 C.3     
  28 F28           -1.0958    -0.7814    -0.0875 F       
  29 H29           -0.9223     1.8217    -0.0637 H       
  30 H30            3.4002    -0.5571    -0.0873 H       
  31 H31            1.1765     3.1045    -0.0597 H       
  32 H32            4.8435     5.8015    -0.0427 H       
  33 H33            5.9004     5.0840     2.0938 H       
  34 H34            7.3290     4.5278     1.1898 H       
  35 H35            6.2630     7.3881     1.2234 H       
  36 H36            7.6757     6.8033     2.1358 H       
  37 H37            8.2938     7.9206    -0.0372 H       
  38 H38            8.8326     6.2239     0.0544 H       
  39 H39            7.2657     4.4724    -1.3440 H       
  40 H40            5.8890     5.2326    -2.1832 H       
  41 H41            9.6435     8.0633    -1.6077 H       
  42 H42           10.6296    10.3032    -1.3727 H       
  43 H43            6.8439    12.0785    -2.2468 H       
  44 H44            1.2940    -1.8278    -0.0956 H       
  45 H45            5.3006     9.8699    -3.6700 H       
  46 H46            5.0634     8.8438    -2.2350 H       
  47 H47            4.8673    10.6085    -2.1095 H       
@<TRIPOS>BOND
   1    1   25 ar
   2    1    4 ar
   3    1   29 1
   4    2    3 ar
   5    2   26 ar
   6    2   30 1
   7    3    4 ar
   8    3    5 1
   9    4   31 1
  10    5    6 2
  11    5    9 1
  12    6    7 1
  13    7    8 1
  14    7   10 1
  15    8    9 2
  16   10   11 1
  17   10   15 1
  18   10   32 1
  19   11   12 1
  20   11   33 1
  21   11   34 1
  22   12   13 1
  23   12   35 1
  24   12   36 1
  25   13   14 1
  26   13   37 1
  27   13   38 1
  28   14   15 1
  29   14   16 am
  30   15   39 1
  31   15   40 1
  32   16   17 1
  33   16   18 2
  34   17   19 ar
  35   17   23 ar
  36   19   20 ar
  37   19   41 1
  38   20   21 ar
  39   20   42 1
  40   21   22 ar
  41   21   24 1
  42   22   23 ar
  43   22   43 1
  44   23   27 1
  45   25   26 ar
  46   25   28 1
  47   26   44 1
  48   27   45 1
  49   27   46 1
  50   27   47 1

#	End of record

