#	Name: ASD00460006
#	Creating user name:	WinNT
#	Creation time:	15. 06. 2019 18:36

#	Modifying user name:	WinNT
#	Modification time:	15. 06. 2019 18:36

#	Program:	/corina/corina34_cracker 3.40 0067  02.08.2006

@<TRIPOS>MOLECULE
ASD00460006
  63   65    0    0    0
SMALL
NO_CHARGES


@<TRIPOS>ATOM
   1 C1            -0.2511     3.7266    -0.0909 C.ar    
   2 C2             0.0921     2.3859    -0.1305 C.ar    
   3 C3            -0.8941     1.4171    -0.1202 C.ar    
   4 C4            -2.2254     1.7836    -0.0702 C.ar    
   5 C5            -2.5746     3.1253    -0.0304 C.ar    
   6 C6            -1.5845     4.0986    -0.0349 C.ar    
   7 F7             0.7141     4.6718    -0.1011 F       
   8 F8            -1.9210     5.4064     0.0043 F       
   9 O9            -3.8843     3.4868     0.0183 O.3     
  10 C10           -0.5165    -0.0412    -0.1639 C.3     
  11 C11           -0.3428    -0.5661     1.2627 C.3     
  12 C12           -4.8485     2.4321     0.0256 C.3     
  13 C13           -6.2563     3.0286     0.0824 C.3     
  14 C14           -7.2905     1.9072    -0.0353 C.3     
  15 N15           -8.6379     2.4886    -0.1012 N.3     
  16 C16           -9.6592     1.4389    -0.2150 C.3     
  17 C17          -11.0461     2.0817    -0.2809 C.3     
  18 C18          -11.1066     3.0432    -1.4695 C.3     
  19 C19          -12.5360     3.5945    -1.6570 C.3     
  20 C20          -12.3517     5.0222    -2.1250 C.ar    
  21 C21          -11.0630     5.4407    -1.8521 C.ar    
  22 C22          -10.2931     4.3229    -1.1819 C.3     
  23 C23          -13.2414     5.8868    -2.7407 C.ar    
  24 C24          -12.8448     7.1646    -3.0827 C.ar    
  25 C25          -11.5557     7.5833    -2.8097 C.ar    
  26 C26          -10.6672     6.7227    -2.1955 C.ar    
  27 O27           -6.4343     3.7121     1.3247 O.3     
  28 C28           -9.4138     0.6242    -1.4865 C.3     
  29 C29           -9.5816     0.5175     1.0040 C.3     
  30 C30            0.0348    -2.0244     1.2189 C.2     
  31 O31            0.1529    -2.5862     0.1558 O.2     
  32 O32            0.2400    -2.6991     2.3610 O.3     
  33 H33            1.1319     2.0964    -0.1699 H       
  34 H34           -2.9942     1.0251    -0.0626 H       
  35 H35           -1.3029    -0.6053    -0.6654 H       
  36 H36            0.4193    -0.1580    -0.7105 H       
  37 H37            0.4437    -0.0020     1.7641 H       
  38 H38           -1.2786    -0.4493     1.8093 H       
  39 H39           -4.7426     1.8366    -0.8812 H       
  40 H40           -4.6870     1.7982     0.8975 H       
  41 H41           -6.3868     3.7310    -0.7407 H       
  42 H42           -7.0992     1.3300    -0.9399 H       
  43 H43           -7.2187     1.2540     0.8344 H       
  44 H44           -8.8155     3.0810     0.6961 H       
  45 H45          -11.8011     1.3050    -0.4030 H       
  46 H46          -11.2360     2.6313     0.6411 H       
  47 H47          -10.7574     2.5546    -2.3791 H       
  48 H48          -13.0690     3.0151    -2.4109 H       
  49 H49          -13.0766     3.5735    -0.7107 H       
  50 H50          -10.2304     4.4979    -0.1079 H       
  51 H51           -9.2946     4.2409    -1.6115 H       
  52 H52          -14.2485     5.5605    -2.9543 H       
  53 H53          -13.5408     7.8362    -3.5633 H       
  54 H54          -11.2439     8.5822    -3.0767 H       
  55 H55           -9.6604     7.0504    -1.9825 H       
  56 H56           -6.3322     3.1470     2.1027 H       
  57 H57           -8.4793     0.0715    -1.3892 H       
  58 H58          -10.2362    -0.0757    -1.6340 H       
  59 H59           -9.3509     1.2964    -2.3423 H       
  60 H60           -9.7565     1.0979     1.9099 H       
  61 H61          -10.3394    -0.2614     0.9196 H       
  62 H62           -8.5936     0.0595     1.0510 H       
  63 H63            0.4803    -3.6324     2.2824 H       
@<TRIPOS>BOND
   1    1    2 ar
   2    1    7 1
   3    1    6 ar
   4    2    3 ar
   5    2   33 1
   6    3    4 ar
   7    3   10 1
   8    4    5 ar
   9    4   34 1
  10    5    6 ar
  11    5    9 1
  12    6    8 1
  13    9   12 1
  14   10   11 1
  15   10   35 1
  16   10   36 1
  17   11   30 1
  18   11   37 1
  19   11   38 1
  20   12   13 1
  21   12   39 1
  22   12   40 1
  23   13   14 1
  24   13   27 1
  25   13   41 1
  26   14   15 1
  27   14   42 1
  28   14   43 1
  29   15   16 1
  30   15   44 1
  31   16   17 1
  32   16   28 1
  33   16   29 1
  34   17   18 1
  35   17   45 1
  36   17   46 1
  37   18   19 1
  38   18   22 1
  39   18   47 1
  40   19   20 1
  41   19   48 1
  42   19   49 1
  43   20   21 ar
  44   20   23 ar
  45   21   22 1
  46   21   26 ar
  47   22   50 1
  48   22   51 1
  49   23   24 ar
  50   23   52 1
  51   24   25 ar
  52   24   53 1
  53   25   26 ar
  54   25   54 1
  55   26   55 1
  56   27   56 1
  57   28   57 1
  58   28   58 1
  59   28   59 1
  60   29   60 1
  61   29   61 1
  62   29   62 1
  63   30   31 2
  64   30   32 1
  65   32   63 1

#	End of record

