#	Name: ASD03090993
#	Creating user name:	WinNT
#	Creation time:	15. 06. 2019 20:29

#	Modifying user name:	WinNT
#	Modification time:	15. 06. 2019 20:29

#	Program:	/corina/corina34_cracker 3.40 0067  02.08.2006

@<TRIPOS>MOLECULE
ASD03090993
  43   45    0    0    0
SMALL
NO_CHARGES


@<TRIPOS>ATOM
   1 N1            -0.0176     1.3431    -0.0929 N.am    
   2 C2             0.0011    -0.0044    -0.0730 C.2     
   3 O3             1.0647    -0.5993    -0.0825 O.2     
   4 N4            -1.1473    -0.6885    -0.0429 N.2     
   5 C5             1.2407     2.0926    -0.1259 C.3     
   6 C6            -1.2962     2.0581    -0.0876 C.3     
   7 S7             0.2604    -3.0349    -0.0315 S.3     
   8 C8            -1.1289    -2.0175    -0.0233 C.2     
   9 N9            -2.2031    -2.8503     0.0073 N.pl3   
  10 C10           -1.9567    -4.1766     0.0230 C.2     
  11 C11           -0.6607    -4.5486     0.0068 C.2     
  12 C12           -0.1273    -5.9141     0.0186 C.2     
  13 N13            1.1557    -6.1099     0.0008 N.2     
  14 C14            1.6887    -7.4744     0.0127 C.3     
  15 C15            2.4209    -7.7474    -1.3027 C.3     
  16 O16            3.5645    -6.8957    -1.3970 O.3     
  17 O17           -7.4483    -1.1299     0.0443 O.3     
  18 C18           -8.0562    -2.4026     0.3336 C.3     
  19 O19           -7.0914    -3.3590    -0.1436 O.3     
  20 C20           -5.8828    -2.7296    -0.0619 C.ar    
  21 C21           -6.1018    -1.3584     0.0537 C.ar    
  22 C22           -4.5894    -3.2229    -0.0773 C.ar    
  23 C23           -3.5132    -2.3512     0.0224 C.ar    
  24 C24           -3.7345    -0.9858     0.1375 C.ar    
  25 C25           -5.0253    -0.4923     0.1529 C.ar    
  26 F26           -8.2554    -2.5505     1.7104 F       
  27 F27           -9.2654    -2.5380    -0.3568 F       
  28 H28            1.5350     2.2631    -1.1615 H       
  29 H29            1.1061     3.0508     0.3760 H       
  30 H30            2.0172     1.5217     0.3831 H       
  31 H31           -2.1147     1.3386    -0.0666 H       
  32 H32           -1.3515     2.6971     0.7937 H       
  33 H33           -1.3737     2.6706    -0.9859 H       
  34 H34           -2.7558    -4.9026     0.0478 H       
  35 H35           -0.8019    -6.7572     0.0422 H       
  36 H36            2.3835    -7.5859     0.8452 H       
  37 H37            0.8689    -8.1838     0.1262 H       
  38 H38            2.7404    -8.7892    -1.3312 H       
  39 H39            1.7508    -7.5499    -2.1393 H       
  40 H40            4.0777    -7.0146    -2.2079 H       
  41 H41           -4.4175    -4.2854    -0.1665 H       
  42 H42           -2.8970    -0.3083     0.2150 H       
  43 H43           -5.1950     0.5706     0.2422 H       
@<TRIPOS>BOND
   1    1    2 am
   2    1    5 1
   3    1    6 1
   4    2    3 2
   5    2    4 1
   6    4    8 2
   7    5   28 1
   8    5   29 1
   9    5   30 1
  10    6   31 1
  11    6   32 1
  12    6   33 1
  13    7    8 1
  14    7   11 1
  15    8    9 1
  16    9   10 1
  17    9   23 1
  18   10   11 2
  19   10   34 1
  20   11   12 1
  21   12   13 2
  22   12   35 1
  23   13   14 1
  24   14   15 1
  25   14   36 1
  26   14   37 1
  27   15   16 1
  28   15   38 1
  29   15   39 1
  30   16   40 1
  31   17   18 1
  32   17   21 1
  33   18   19 1
  34   18   26 1
  35   18   27 1
  36   19   20 1
  37   20   21 ar
  38   20   22 ar
  39   21   25 ar
  40   22   23 ar
  41   22   41 1
  42   23   24 ar
  43   24   25 ar
  44   24   42 1
  45   25   43 1

#	End of record

