#	Name: ASD01810600
#	Creating user name:	WinNT
#	Creation time:	15. 06. 2019 19:24

#	Modifying user name:	WinNT
#	Modification time:	15. 06. 2019 19:24

#	Program:	/corina/corina34_cracker 3.40 0067  02.08.2006

@<TRIPOS>MOLECULE
ASD01810600
  66   69    0    0    0
SMALL
NO_CHARGES


@<TRIPOS>ATOM
   1 N1             0.1968     1.1636     0.0704 N.am    
   2 C2             0.1633    -0.1104    -0.3678 C.2     
   3 O3             1.1280    -0.5829    -0.9375 O.2     
   4 N4            -0.9395    -0.8608    -0.1746 N.am    
   5 C5            -0.3462    -3.1646     0.3991 C.3     
   6 C6            -0.9759    -2.2457    -0.6510 C.3     
   7 C7            -2.4296    -2.6692    -0.8830 C.3     
   8 C8            -2.4597    -4.1412    -1.3056 C.3     
   9 C9            -1.7727    -4.9869    -0.2302 C.3     
  10 O10           -0.4350    -4.5210    -0.0421 O.3     
  11 C11            1.3793     1.9064    -0.0268 C.ar    
  12 C12            1.3231     3.2733    -0.2720 C.ar    
  13 C13            2.4878     4.0111    -0.3694 C.ar    
  14 C14            3.7144     3.3954    -0.2238 C.ar    
  15 C15            3.7815     2.0233     0.0231 C.ar    
  16 C16            2.6058     1.2797     0.1270 C.ar    
  17 C17            4.9813     4.2044    -0.3319 C.3     
  18 C18           -0.0122     3.9531    -0.4327 C.3     
  19 C19            5.0943     1.3610     0.1791 C.2     
  20 O20            5.9320     1.4583    -0.6963 O.2     
  21 N21            5.3620     0.6493     1.2919 N.am    
  22 C22            6.6910     0.0588     1.5011 C.3     
  23 C23            7.2232     0.5128     2.8640 C.3     
  24 C24            6.2019     0.1622     3.9485 C.3     
  25 C25            4.8892     0.8991     3.6727 C.3     
  26 C26            4.3323     0.4543     2.3216 C.3     
  27 F27            5.9717    -1.2177     3.9434 F       
  28 C28            6.7370     0.5767     5.2949 C.ar    
  29 C29            6.1473     0.0926     6.4491 C.ar    
  30 C30            6.6320     0.4679     7.6849 C.ar    
  31 C31            7.7208     1.3381     7.7692 C.ar    
  32 C32            8.3114     1.8225     6.6004 C.ar    
  33 C33            7.8195     1.4352     5.3712 C.ar    
  34 C34            8.2290     1.7323     9.0487 C.1     
  35 N35            8.6321     2.0451    10.0636 N.1     
  36 H36           -0.5996     1.5672     0.4496 H       
  37 H37           -1.7091    -0.4838     0.2798 H       
  38 H38            0.7009    -2.8951     0.5370 H       
  39 H39           -0.8777    -3.0543     1.3443 H       
  40 H40           -0.4191    -2.3244    -1.5848 H       
  41 H41           -2.9977    -2.5426     0.0386 H       
  42 H42           -2.8672    -2.0549    -1.6699 H       
  43 H43           -3.4939    -4.4664    -1.4192 H       
  44 H44           -1.9337    -4.2591    -2.2529 H       
  45 H45           -2.3229    -4.9004     0.7068 H       
  46 H46           -1.7533    -6.0301    -0.5455 H       
  47 H47            2.4379     5.0729    -0.5604 H       
  48 H48            2.6513     0.2185     0.3223 H       
  49 H49            5.2104     4.6516     0.6354 H       
  50 H50            5.8023     3.5550    -0.6355 H       
  51 H51            4.8473     4.9918    -1.0736 H       
  52 H52           -0.3641     4.2972     0.5398 H       
  53 H53            0.0927     4.8058    -1.1037 H       
  54 H54           -0.7309     3.2482    -0.8506 H       
  55 H55            6.6149    -1.0284     1.4822 H       
  56 H56            7.3675     0.3935     0.7147 H       
  57 H57            8.1652     0.0060     3.0739 H       
  58 H58            7.3845     1.5907     2.8509 H       
  59 H59            4.1700     0.6674     4.4582 H       
  60 H60            5.0725     1.9734     3.6520 H       
  61 H61            3.4529     1.0499     2.0764 H       
  62 H62            4.0599    -0.6000     2.3710 H       
  63 H63            5.3052    -0.5804     6.3824 H       
  64 H64            6.1703     0.0898     8.5850 H       
  65 H65            9.1538     2.4959     6.6585 H       
  66 H66            8.2779     1.8058     4.4663 H       
@<TRIPOS>BOND
   1    1    2 am
   2    1   11 1
   3    1   36 1
   4    2    3 2
   5    2    4 am
   6    4    6 1
   7    4   37 1
   8    5    6 1
   9    5   10 1
  10    5   38 1
  11    5   39 1
  12    6    7 1
  13    6   40 1
  14    7    8 1
  15    7   41 1
  16    7   42 1
  17    8    9 1
  18    8   43 1
  19    8   44 1
  20    9   10 1
  21    9   45 1
  22    9   46 1
  23   11   12 ar
  24   11   16 ar
  25   12   13 ar
  26   12   18 1
  27   13   14 ar
  28   13   47 1
  29   14   15 ar
  30   14   17 1
  31   15   16 ar
  32   15   19 1
  33   16   48 1
  34   17   49 1
  35   17   50 1
  36   17   51 1
  37   18   52 1
  38   18   53 1
  39   18   54 1
  40   19   20 2
  41   19   21 am
  42   21   22 1
  43   21   26 1
  44   22   23 1
  45   22   55 1
  46   22   56 1
  47   23   24 1
  48   23   57 1
  49   23   58 1
  50   24   25 1
  51   24   27 1
  52   24   28 1
  53   25   26 1
  54   25   59 1
  55   25   60 1
  56   26   61 1
  57   26   62 1
  58   28   29 ar
  59   28   33 ar
  60   29   30 ar
  61   29   63 1
  62   30   31 ar
  63   30   64 1
  64   31   32 ar
  65   31   34 1
  66   32   33 ar
  67   32   65 1
  68   33   66 1
  69   34   35 3

#	End of record

