#	Name: ASD08830187
#	Creating user name:	WinNT
#	Creation time:	15. 06. 2019 21:19

#	Modifying user name:	WinNT
#	Modification time:	15. 06. 2019 21:19

#	Program:	/corina/corina34_cracker 3.40 0067  02.08.2006

@<TRIPOS>MOLECULE
ASD08830187
  45   48    0    0    0
SMALL
NO_CHARGES


@<TRIPOS>ATOM
   1 C1            -0.0188     1.4678    -0.1148 C.ar    
   2 C2             0.0009    -0.0014    -0.1574 C.2     
   3 C3             1.3160    -0.7368    -0.1864 C.3     
   4 C4             1.0566    -2.2440    -0.2284 C.3     
   5 N5             2.3385    -2.9609    -0.2567 N.3     
   6 O6            -1.0412    -0.6217    -0.1692 O.2     
   7 C7            -1.2338     2.1420    -0.0824 C.ar    
   8 C8             2.1396    -4.4040    -0.0588 C.3     
   9 C9             3.4905    -5.1178    -0.1548 C.3     
  10 O10            4.3891    -4.5583     0.8068 O.3     
  11 C11            4.6063    -3.1542     0.6431 C.3     
  12 C12            3.2666    -2.4205     0.7472 C.3     
  13 C13            1.1934     2.1840    -0.1012 C.ar    
  14 C14            1.1962     3.5411    -0.0620 C.ar    
  15 C15           -0.0173     4.2490    -0.0344 C.ar    
  16 C16           -1.2456     3.5413    -0.0419 C.ar    
  17 C17           -0.0368     5.6568     0.0059 C.ar    
  18 C18           -1.2597     6.3324     0.0321 C.ar    
  19 C19           -2.4680     5.6069     0.0186 C.ar    
  20 C20           -2.4643     4.2534    -0.0147 C.ar    
  21 N21            0.9402     6.6260     0.0280 N.pl3   
  22 C22            0.3135     7.8306     0.0659 C.2     
  23 N23           -0.9774     7.6585     0.0683 N.2     
  24 C24            2.3876     6.4003     0.0138 C.3     
  25 H25            1.8787    -0.4401    -1.0715 H       
  26 H26            1.8892    -0.4916     0.7077 H       
  27 H27            0.4938    -2.5407     0.6567 H       
  28 H28            0.4834    -2.4893    -1.1225 H       
  29 H29           -2.1622     1.5902    -0.0888 H       
  30 H30            1.7041    -4.5799     0.9248 H       
  31 H31            1.4696    -4.7880    -0.8281 H       
  32 H32            3.3560    -6.1804     0.0478 H       
  33 H33            3.9011    -4.9867    -1.1560 H       
  34 H34            5.2787    -2.7966     1.4229 H       
  35 H35            5.0493    -2.9660    -0.3348 H       
  36 H36            3.4193    -1.3565     0.5663 H       
  37 H37            2.8491    -2.5647     1.7438 H       
  38 H38            2.1308     1.6482    -0.1219 H       
  39 H39            2.1333     4.0778    -0.0516 H       
  40 H40           -3.4086     6.1373     0.0395 H       
  41 H41           -3.4004     3.7148    -0.0249 H       
  42 H42            0.8116     8.7885     0.0904 H       
  43 H43            2.7235     6.2607    -1.0137 H       
  44 H44            2.8940     7.2626     0.4476 H       
  45 H45            2.6222     5.5098     0.5969 H       
@<TRIPOS>BOND
   1    1    2 1
   2    1   13 ar
   3    1    7 ar
   4    2    3 1
   5    2    6 2
   6    3    4 1
   7    3   25 1
   8    3   26 1
   9    4    5 1
  10    4   27 1
  11    4   28 1
  12    5    8 1
  13    5   12 1
  14    7   16 ar
  15    7   29 1
  16    8    9 1
  17    8   30 1
  18    8   31 1
  19    9   10 1
  20    9   32 1
  21    9   33 1
  22   10   11 1
  23   11   12 1
  24   11   34 1
  25   11   35 1
  26   12   36 1
  27   12   37 1
  28   13   14 ar
  29   13   38 1
  30   14   15 ar
  31   14   39 1
  32   15   16 ar
  33   15   17 ar
  34   16   20 ar
  35   17   18 ar
  36   17   21 1
  37   18   19 ar
  38   18   23 1
  39   19   20 ar
  40   19   40 1
  41   20   41 1
  42   21   22 1
  43   21   24 1
  44   22   23 2
  45   22   42 1
  46   24   43 1
  47   24   44 1
  48   24   45 1

#	End of record

