#	Name: ASD01812066
#	Creating user name:	WinNT
#	Creation time:	15. 06. 2019 19:27

#	Modifying user name:	WinNT
#	Modification time:	15. 06. 2019 19:27

#	Program:	/corina/corina34_cracker 3.40 0067  02.08.2006

@<TRIPOS>MOLECULE
ASD01812066
  40   43    0    0    0
SMALL
NO_CHARGES


@<TRIPOS>ATOM
   1 C1            -0.0167     1.3820     0.0096 C.ar    
   2 C2             0.0021    -0.0041     0.0020 C.ar    
   3 C3             1.1959    -0.6932    -0.0127 C.ar    
   4 C4             2.4016     0.0019    -0.0200 C.ar    
   5 C5             2.3831     1.4075    -0.0128 C.ar    
   6 C6             1.1665     2.0939     0.0022 C.ar    
   7 N7             3.6010    -0.6771    -0.0337 N.pl3   
   8 C8             4.7870    -0.0549    -0.0404 C.2     
   9 C9             4.8957     1.3208    -0.0340 C.2     
  10 C10            3.6667     2.1313    -0.0207 C.2     
  11 C11            3.5775    -2.1419    -0.0409 C.3     
  12 C12            3.5572    -2.6371    -1.4640 C.ar    
  13 O13            3.7091     3.3491    -0.0150 O.2     
  14 C14            6.2161     1.9660    -0.0412 C.2     
  15 O15            6.3092     3.3109    -0.0348 O.3     
  16 O16            7.2244     1.2870    -0.0529 O.2     
  17 F17            1.1476     3.4448     0.0091 F       
  18 C18            4.7604    -2.8819    -2.1227 C.ar    
  19 C19            4.7774    -3.3292    -3.4082 C.ar    
  20 C20            3.5652    -3.5486    -4.0839 C.ar    
  21 C21            2.3412    -3.3000    -3.4137 C.ar    
  22 C22            2.3636    -2.8437    -2.0851 C.ar    
  23 C23            3.5425    -4.0094    -5.4115 C.ar    
  24 C24            2.3492    -4.2102    -6.0342 C.ar    
  25 C25            1.1456    -3.9658    -5.3752 C.ar    
  26 C26            1.1286    -3.5192    -4.0898 C.ar    
  27 H27           -0.9604     1.9071     0.0170 H       
  28 H28           -0.9295    -0.5505     0.0080 H       
  29 H29            1.1956    -1.7731    -0.0181 H       
  30 H30            5.6884    -0.6497    -0.0508 H       
  31 H31            4.4660    -2.5220     0.4634 H       
  32 H32            2.6863    -2.4936     0.4789 H       
  33 H33            7.1990     3.6894    -0.0400 H       
  34 H34            5.6936    -2.7141    -1.6056 H       
  35 H35            5.7176    -3.5140    -3.9063 H       
  36 H36            1.4389    -2.6501    -1.5619 H       
  37 H37            4.4672    -4.2027    -5.9349 H       
  38 H38            2.3347    -4.5640    -7.0546 H       
  39 H39            0.2125    -4.1334    -5.8924 H       
  40 H40            0.1883    -3.3344    -3.5918 H       
@<TRIPOS>BOND
   1    1    2 ar
   2    1    6 ar
   3    1   27 1
   4    2    3 ar
   5    2   28 1
   6    3    4 ar
   7    3   29 1
   8    4    5 ar
   9    4    7 1
  10    5    6 ar
  11    5   10 1
  12    6   17 1
  13    7    8 1
  14    7   11 1
  15    8    9 2
  16    8   30 1
  17    9   10 1
  18    9   14 1
  19   10   13 2
  20   11   12 1
  21   11   31 1
  22   11   32 1
  23   12   18 ar
  24   12   22 ar
  25   14   15 1
  26   14   16 2
  27   15   33 1
  28   18   19 ar
  29   18   34 1
  30   19   20 ar
  31   19   35 1
  32   20   21 ar
  33   20   23 ar
  34   21   22 ar
  35   21   26 ar
  36   22   36 1
  37   23   24 ar
  38   23   37 1
  39   24   25 ar
  40   24   38 1
  41   25   26 ar
  42   25   39 1
  43   26   40 1

#	End of record

