#	Name: ASD03740060
#	Creating user name:	WinNT
#	Creation time:	15. 06. 2019 20:46

#	Modifying user name:	WinNT
#	Modification time:	15. 06. 2019 20:46

#	Program:	/corina/corina34_cracker 3.40 0067  02.08.2006

@<TRIPOS>MOLECULE
ASD03740060
  56   59    0    0    0
SMALL
NO_CHARGES


@<TRIPOS>ATOM
   1 C1            -0.3829     2.0874     0.0780 C.ar    
   2 C2            -0.4658     0.7007     0.0668 C.ar    
   3 C3             0.6637    -0.0675     0.0388 C.ar    
   4 C4             1.9159     0.5415     0.0207 C.ar    
   5 C5             2.0015     1.9472     0.0316 C.ar    
   6 C6             0.8313     2.7116     0.0608 C.ar    
   7 N7             3.2014     0.0669    -0.0076 N.pl3   
   8 N8             4.0897     1.1471    -0.0147 N.2     
   9 C9             3.4275     2.2717     0.0077 C.2     
  10 O10            3.9661     3.5197     0.0083 O.3     
  11 C11            3.5840    -1.3471    -0.0266 C.3     
  12 C12            3.6883    -1.8202    -1.4536 C.ar    
  13 C13            5.3920     3.6109    -0.0176 C.3     
  14 C14            5.8090     5.0830    -0.0128 C.3     
  15 C15            7.3356     5.1807    -0.0405 C.3     
  16 C16            4.8917    -1.7241    -2.1272 C.ar    
  17 C17            4.9879    -2.1578    -3.4360 C.ar    
  18 C18            3.8796    -2.6882    -4.0719 C.ar    
  19 C19            2.6755    -2.7841    -3.3973 C.ar    
  20 C20            2.5820    -2.3552    -2.0867 C.ar    
  21 N21            7.7360     6.5941    -0.0359 N.3     
  22 C22            9.1740     6.7389     0.3081 C.3     
  23 Cl23           3.9996    -3.2326    -5.7160 Cl      
  24 C24            7.6248     7.1833    -1.3951 C.3     
  25 C25            8.5476     8.4204    -1.3596 C.3     
  26 C26            9.5668     8.1280    -0.2391 C.3     
  27 C27            9.3674     6.6887     1.8250 C.3     
  28 C28           10.8402     6.6981     2.1441 C.2     
  29 O29           11.6522     6.6381     1.2514 O.2     
  30 O30           11.2500     6.7732     3.4201 O.3     
  31 H31           -1.2874     2.6772     0.0959 H       
  32 H32           -1.4349     0.2242     0.0807 H       
  33 H33            0.5856    -1.1447     0.0310 H       
  34 H34            0.8874     3.7901     0.0689 H       
  35 H35            4.5476    -1.4694     0.4681 H       
  36 H36            2.8297    -1.9346     0.4968 H       
  37 H37            5.8039     3.1138     0.8607 H       
  38 H38            5.7706     3.1290    -0.9189 H       
  39 H39            5.3972     5.5802    -0.8911 H       
  40 H40            5.4304     5.5650     0.8885 H       
  41 H41            7.7475     4.6835     0.8378 H       
  42 H42            7.7143     4.6987    -0.9418 H       
  43 H43            5.7567    -1.3097    -1.6307 H       
  44 H44            5.9280    -2.0823    -3.9622 H       
  45 H45            1.8100    -3.1980    -3.8932 H       
  46 H46            1.6421    -2.4300    -1.5600 H       
  47 H47            9.7611     5.9580    -0.1753 H       
  48 H48            7.9696     6.4732    -2.1467 H       
  49 H49            6.5961     7.4821    -1.5969 H       
  50 H50            9.0589     8.5389    -2.3149 H       
  51 H51            7.9721     9.3155    -1.1237 H       
  52 H52            9.4915     8.8796     0.5467 H       
  53 H53           10.5783     8.1030    -0.6445 H       
  54 H54            8.8913     7.5568     2.2809 H       
  55 H55            8.9161     5.7781     2.2188 H       
  56 H56           12.2045     6.7762     3.5753 H       
@<TRIPOS>BOND
   1    1    2 ar
   2    1    6 ar
   3    1   31 1
   4    2    3 ar
   5    2   32 1
   6    3    4 ar
   7    3   33 1
   8    4    5 ar
   9    4    7 1
  10    5    6 ar
  11    5    9 1
  12    6   34 1
  13    7    8 1
  14    7   11 1
  15    8    9 2
  16    9   10 1
  17   10   13 1
  18   11   12 1
  19   11   35 1
  20   11   36 1
  21   12   16 ar
  22   12   20 ar
  23   13   14 1
  24   13   37 1
  25   13   38 1
  26   14   15 1
  27   14   39 1
  28   14   40 1
  29   15   21 1
  30   15   41 1
  31   15   42 1
  32   16   17 ar
  33   16   43 1
  34   17   18 ar
  35   17   44 1
  36   18   19 ar
  37   18   23 1
  38   19   20 ar
  39   19   45 1
  40   20   46 1
  41   21   22 1
  42   21   24 1
  43   22   27 1
  44   22   26 1
  45   22   47 1
  46   24   25 1
  47   24   48 1
  48   24   49 1
  49   25   26 1
  50   25   50 1
  51   25   51 1
  52   26   52 1
  53   26   53 1
  54   27   28 1
  55   27   54 1
  56   27   55 1
  57   28   29 2
  58   28   30 1
  59   30   56 1

#	End of record

