#	Name: ASD06170037
#	Creating user name:	WinNT
#	Creation time:	15. 06. 2019 21:05

#	Modifying user name:	WinNT
#	Modification time:	15. 06. 2019 21:05

#	Program:	/corina/corina34_cracker 3.40 0067  02.08.2006

@<TRIPOS>MOLECULE
ASD06170037
  63   67    0    0    0
SMALL
NO_CHARGES


@<TRIPOS>ATOM
   1 N1             0.2055    -1.9783     0.1374 N.pl3   
   2 N2            -0.0118    -0.6702    -0.3055 N.am    
   3 C3             1.1802    -0.1159    -0.6091 C.2     
   4 C4             2.1996    -1.1420    -0.3382 C.2     
   5 C5             1.5228    -2.2568     0.1170 C.2     
   6 C6             3.6502    -1.0076    -0.5171 C.2     
   7 O7             4.3848    -1.9412    -0.2537 O.2     
   8 N8             4.1685     0.1499    -0.9732 N.am    
   9 O9             1.3742     1.0109    -1.0257 O.2     
  10 C10            2.1526    -3.5644     0.5226 C.3     
  11 C11           -0.8438    -2.9064     0.5662 C.3     
  12 C12           -1.2574    -0.0412    -0.4160 C.ar    
  13 C13           -2.3090    -0.6880    -1.0516 C.ar    
  14 C14           -3.5373    -0.0658    -1.1591 C.ar    
  15 C15           -3.7205     1.2024    -0.6341 C.ar    
  16 C16           -2.6730     1.8493    -0.0003 C.ar    
  17 C17           -1.4448     1.2282     0.1149 C.ar    
  18 F18           -4.9227     1.8095    -0.7407 F       
  19 C19            5.5519     0.3189    -1.0330 C.ar    
  20 C20            6.0787     1.5559    -1.3873 C.ar    
  21 C21            7.4517     1.7127    -1.4431 C.ar    
  22 C22            8.2574     0.6177    -1.1402 C.ar    
  23 C23            7.6619    -0.5849    -0.7951 C.ar    
  24 N24            6.3483    -0.6982    -0.7468 N.ar    
  25 O25            9.6120     0.7274    -1.1830 O.3     
  26 N26           11.4975     2.4475     2.0569 N.ar    
  27 C27           10.1878     2.3723     2.0188 C.ar    
  28 C28            9.5179     1.8003     0.9446 C.ar    
  29 C29           10.2388     1.2917    -0.1214 C.ar    
  30 C30           11.6482     1.3782    -0.0695 C.ar    
  31 C31           12.4464     0.8851    -1.1125 C.ar    
  32 C32           13.8051     0.9859    -1.0290 C.ar    
  33 C33           14.4108     1.5774     0.0887 C.ar    
  34 C34           13.6576     2.0652     1.1175 C.ar    
  35 C35           12.2569     1.9761     1.0608 C.ar    
  36 O36           15.7654     1.6658     0.1489 O.3     
  37 C37           16.3245     2.2785     1.3126 C.3     
  38 O38           14.5790     0.5076    -2.0397 O.3     
  39 C39           13.9024    -0.0840    -3.1506 C.3     
  40 H40            3.5796     0.8654    -1.2597 H       
  41 H41            2.2174    -4.2210    -0.3450 H       
  42 H42            3.1530    -3.3799     0.9141 H       
  43 H43            1.5430    -4.0381     1.2921 H       
  44 H44           -1.2557    -3.4165    -0.3046 H       
  45 H45           -0.4212    -3.6411     1.2515 H       
  46 H46           -1.6353    -2.3520     1.0706 H       
  47 H47           -2.1664    -1.6768    -1.4619 H       
  48 H48           -4.3555    -0.5685    -1.6534 H       
  49 H49           -2.8177     2.8387     0.4080 H       
  50 H50           -0.6295     1.7311     0.6135 H       
  51 H51            5.4240     2.3838    -1.6163 H       
  52 H52            7.8889     2.6619    -1.7156 H       
  53 H53            8.2803    -1.4384    -0.5593 H       
  54 H54            9.6150     2.7660     2.8454 H       
  55 H55            8.4390     1.7520     0.9420 H       
  56 H56           11.9882     0.4277    -1.9770 H       
  57 H57           14.1373     2.5180     1.9726 H       
  58 H58           17.4116     2.2848     1.2332 H       
  59 H59           15.9602     3.3026     1.3946 H       
  60 H60           16.0281     1.7155     2.1976 H       
  61 H61           13.2440     0.6535    -3.6097 H       
  62 H62           14.6347    -0.4233    -3.8832 H       
  63 H63           13.3124    -0.9334    -2.8063 H       
@<TRIPOS>BOND
   1    1    2 1
   2    1    5 1
   3    1   11 1
   4    2    3 am
   5    2   12 1
   6    3    4 1
   7    3    9 2
   8    4    5 2
   9    4    6 1
  10    5   10 1
  11    6    7 2
  12    6    8 am
  13    8   19 1
  14    8   40 1
  15   10   41 1
  16   10   42 1
  17   10   43 1
  18   11   44 1
  19   11   45 1
  20   11   46 1
  21   12   13 ar
  22   12   17 ar
  23   13   14 ar
  24   13   47 1
  25   14   15 ar
  26   14   48 1
  27   15   16 ar
  28   15   18 1
  29   16   17 ar
  30   16   49 1
  31   17   50 1
  32   19   20 ar
  33   19   24 ar
  34   20   21 ar
  35   20   51 1
  36   21   22 ar
  37   21   52 1
  38   22   23 ar
  39   22   25 1
  40   23   24 ar
  41   23   53 1
  42   25   29 1
  43   26   27 ar
  44   26   35 ar
  45   27   28 ar
  46   27   54 1
  47   28   29 ar
  48   28   55 1
  49   29   30 ar
  50   30   31 ar
  51   30   35 ar
  52   31   32 ar
  53   31   56 1
  54   32   33 ar
  55   32   38 1
  56   33   34 ar
  57   33   36 1
  58   34   35 ar
  59   34   57 1
  60   36   37 1
  61   37   58 1
  62   37   59 1
  63   37   60 1
  64   38   39 1
  65   39   61 1
  66   39   62 1
  67   39   63 1

#	End of record

