#	Name: ASD01815588
#	Creating user name:	WinNT
#	Creation time:	15. 06. 2019 19:33

#	Modifying user name:	WinNT
#	Modification time:	15. 06. 2019 19:33

#	Program:	/corina/corina34_cracker 3.40 0067  02.08.2006

@<TRIPOS>MOLECULE
ASD01815588
  38   40    0    0    0
SMALL
NO_CHARGES


@<TRIPOS>ATOM
   1 C1            -0.0168     1.3845     0.0097 C.ar    
   2 C2             0.0021    -0.0041     0.0020 C.ar    
   3 C3             1.1978    -0.6920    -0.0131 C.ar    
   4 C4             2.4000     0.0096    -0.0207 C.ar    
   5 C5             2.3717     1.4151    -0.0129 C.ar    
   6 C6             1.1527     2.0926     0.0023 C.ar    
   7 N7             3.6034    -0.6617    -0.0353 N.pl3   
   8 C8             4.7853    -0.0319    -0.0423 C.2     
   9 C9             4.8852     1.3446    -0.0354 C.2     
  10 C10            3.6514     2.1473    -0.0212 C.2     
  11 O11            3.6862     3.3654    -0.0155 O.2     
  12 C12            6.2016     1.9982    -0.0425 C.2     
  13 O13            7.2141     1.3256    -0.0546 O.2     
  14 O14            6.2862     3.3436    -0.0356 O.3     
  15 C15            3.5892    -2.1266    -0.0430 C.3     
  16 C16            3.5714    -2.6213    -1.4663 C.ar    
  17 C17            4.7612    -2.8594    -2.1292 C.ar    
  18 C18            4.7476    -3.3129    -3.4340 C.ar    
  19 C19            3.5387    -3.5295    -4.0793 C.ar    
  20 C20            2.3462    -3.2899    -3.4120 C.ar    
  21 C21            2.3652    -2.8418    -2.1053 C.ar    
  22 Cl22          -1.4947    -0.8834     0.0121 Cl      
  23 O23            3.5226    -3.9752    -5.3630 O.3     
  24 C24            2.2418    -4.1760    -5.9640 C.3     
  25 F25            1.5381    -2.9669    -5.9771 F       
  26 F26            2.4087    -4.6326    -7.2759 F       
  27 F27            1.5247    -5.1250    -5.2276 F       
  28 H28           -0.9612     1.9083     0.0170 H       
  29 H29            1.2011    -1.7720    -0.0185 H       
  30 H30            1.1327     3.1724     0.0079 H       
  31 H31            5.6906    -0.6209    -0.0533 H       
  32 H32            7.1736     3.7277    -0.0408 H       
  33 H33            4.4803    -2.5012     0.4607 H       
  34 H34            2.7005    -2.4841     0.4771 H       
  35 H35            5.7021    -2.6903    -1.6266 H       
  36 H36            5.6772    -3.4984    -3.9515 H       
  37 H37            1.4039    -3.4577    -3.9121 H       
  38 H38            1.4372    -2.6551    -1.5854 H       
@<TRIPOS>BOND
   1    1    2 ar
   2    1    6 ar
   3    1   28 1
   4    2    3 ar
   5    2   22 1
   6    3    4 ar
   7    3   29 1
   8    4    5 ar
   9    4    7 1
  10    5    6 ar
  11    5   10 1
  12    6   30 1
  13    7    8 1
  14    7   15 1
  15    8    9 2
  16    8   31 1
  17    9   10 1
  18    9   12 1
  19   10   11 2
  20   12   13 2
  21   12   14 1
  22   14   32 1
  23   15   16 1
  24   15   33 1
  25   15   34 1
  26   16   17 ar
  27   16   21 ar
  28   17   18 ar
  29   17   35 1
  30   18   19 ar
  31   18   36 1
  32   19   20 ar
  33   19   23 1
  34   20   21 ar
  35   20   37 1
  36   21   38 1
  37   23   24 1
  38   24   25 1
  39   24   26 1
  40   24   27 1

#	End of record

