#	Name: ASD01148519
#	Creating user name:	WinNT
#	Creation time:	15. 06. 2019 19:02

#	Modifying user name:	WinNT
#	Modification time:	15. 06. 2019 19:02

#	Program:	/corina/corina34_cracker 3.40 0067  02.08.2006

@<TRIPOS>MOLECULE
ASD01148519
  61   65    0    0    0
SMALL
NO_CHARGES


@<TRIPOS>ATOM
   1 C1             0.0558     0.5137    -0.5867 C.ar    
   2 C2             0.3535    -0.8366    -0.6162 C.ar    
   3 C3             1.6650    -1.2590    -0.4766 C.ar    
   4 C4             2.6755    -0.3299    -0.3078 C.ar    
   5 C5             2.3761     1.0194    -0.2785 C.ar    
   6 C6             1.0672     1.4409    -0.4179 C.ar    
   7 C7             3.4776     2.0314    -0.0946 C.3     
   8 O8             4.7114     1.5625    -0.6754 O.3     
   9 C9             3.2021     3.3070    -0.9259 C.3     
  10 C10            3.9584     3.0322    -2.2119 C.2     
  11 N11            4.7733     2.0517    -2.0005 N.2     
  12 C12            3.7920     3.7576    -3.4829 C.ar    
  13 C13            4.5888     3.3878    -4.6502 C.ar    
  14 C14            2.8729     4.7932    -3.5810 C.ar    
  15 C15            2.6956     5.4912    -4.7622 C.ar    
  16 C16            3.4293     5.1858    -5.9008 C.ar    
  17 C17            4.4078     4.1015    -5.8585 C.ar    
  18 C18            3.2185     5.9462    -7.1449 C.2     
  19 O19            2.7059     5.4079    -8.1068 O.2     
  20 N20            3.5939     7.2386    -7.2166 N.am    
  21 C21            5.1696     3.7585    -6.9824 C.ar    
  22 C22            5.5236     2.3459    -4.5984 C.ar    
  23 C23            3.6636     2.3711     1.3856 C.3     
  24 F24            3.9802     1.2076     2.0949 F       
  25 F25            4.7015     3.2988     1.5243 F       
  26 F26            2.4790     2.9175     1.8910 F       
  27 Cl27           2.0403    -2.9535    -0.5128 Cl      
  28 Cl28          -0.9162    -2.0015    -0.8276 Cl      
  29 C29            3.4716     7.9679    -8.4813 C.3     
  30 C30            2.1149     8.6197    -8.5561 C.ar    
  31 N31            1.0829     7.9279    -8.9977 N.ar    
  32 C32            4.0820     7.8602    -6.1249 C.2     
  33 C33           -0.1224     8.4568    -9.0803 C.ar    
  34 C34           -0.3466     9.7672    -8.7036 C.ar    
  35 C35            0.7146    10.5264    -8.2341 C.ar    
  36 C36            1.9656     9.9343    -8.1557 C.ar    
  37 O37            4.1003     7.2844    -5.0555 O.2     
  38 O38            4.5490     9.1190    -6.2195 O.3     
  39 C39            5.0595     9.7259    -5.0032 C.3     
  40 C40            6.2459     2.0336    -5.7116 C.ar    
  41 C41            6.0714     2.7393    -6.8991 C.ar    
  42 H42           -0.9662     0.8439    -0.7000 H       
  43 H43            3.6985    -0.6586    -0.1985 H       
  44 H44            0.8343     2.4953    -0.3949 H       
  45 H45            2.1356     3.4190    -1.1207 H       
  46 H46            3.5997     4.1892    -0.4242 H       
  47 H47            2.2831     5.0597    -2.7164 H       
  48 H48            1.9704     6.2906    -4.7997 H       
  49 H49            5.0433     4.2978    -7.9095 H       
  50 H50            5.6715     1.7937    -3.6821 H       
  51 H51            4.2458     8.7331    -8.5359 H       
  52 H52            3.5875     7.2737    -9.3137 H       
  53 H53           -0.9436     7.8589    -9.4471 H       
  54 H54           -1.3358    10.1949    -8.7743 H       
  55 H55            0.5691    11.5533    -7.9329 H       
  56 H56            2.8146    10.4956    -7.7943 H       
  57 H57            5.4033    10.7376    -5.2185 H       
  58 H58            4.2673     9.7629    -4.2554 H       
  59 H59            5.8910     9.1328    -4.6225 H       
  60 H60            6.9665     1.2301    -5.6708 H       
  61 H61            6.6581     2.4753    -7.7665 H       
@<TRIPOS>BOND
   1    1    2 ar
   2    1    6 ar
   3    1   42 1
   4    2    3 ar
   5    2   28 1
   6    3    4 ar
   7    3   27 1
   8    4    5 ar
   9    4   43 1
  10    5    6 ar
  11    5    7 1
  12    6   44 1
  13    7    8 1
  14    7    9 1
  15    7   23 1
  16    8   11 1
  17    9   10 1
  18    9   45 1
  19    9   46 1
  20   10   11 2
  21   10   12 1
  22   12   13 ar
  23   12   14 ar
  24   13   22 ar
  25   13   17 ar
  26   14   15 ar
  27   14   47 1
  28   15   16 ar
  29   15   48 1
  30   16   17 ar
  31   16   18 1
  32   17   21 ar
  33   18   19 2
  34   18   20 am
  35   20   29 1
  36   20   32 am
  37   21   41 ar
  38   21   49 1
  39   22   40 ar
  40   22   50 1
  41   23   24 1
  42   23   25 1
  43   23   26 1
  44   29   30 1
  45   29   51 1
  46   29   52 1
  47   30   31 ar
  48   30   36 ar
  49   31   33 ar
  50   32   37 2
  51   32   38 1
  52   33   34 ar
  53   33   53 1
  54   34   35 ar
  55   34   54 1
  56   35   36 ar
  57   35   55 1
  58   36   56 1
  59   38   39 1
  60   39   57 1
  61   39   58 1
  62   39   59 1
  63   40   41 ar
  64   40   60 1
  65   41   61 1

#	End of record

