#	Name: ASD01911710
#	Creating user name:	WinNT
#	Creation time:	15. 06. 2019 19:58

#	Modifying user name:	WinNT
#	Modification time:	15. 06. 2019 19:58

#	Program:	/corina/corina34_cracker 3.40 0067  02.08.2006

@<TRIPOS>MOLECULE
ASD01911710
  41   43    0    0    0
SMALL
NO_CHARGES


@<TRIPOS>ATOM
   1 N1            -0.1140     1.1220    -0.3623 N.am    
   2 C2            -0.1209     0.1165     0.5352 C.2     
   3 C3            -1.3886    -0.4988     0.9362 C.2     
   4 C4            -1.6144    -1.8380     1.1071 C.2     
   5 S5            -2.8887     0.3560     1.2907 S.3     
   6 C6            -3.6818    -1.1796     1.6295 C.2     
   7 N7            -2.8247    -2.1572     1.4687 N.2     
   8 C8            -5.0496    -1.3351     2.0240 C.1     
   9 C9            -6.1709    -1.4625     2.3473 C.1     
  10 C10           -7.5387    -1.6179     2.7418 C.ar    
  11 C11           -8.0594    -2.8927     2.9845 C.ar    
  12 C12           -9.3783    -3.0341     3.3648 C.ar    
  13 C13          -10.1853    -1.9170     3.5059 C.ar    
  14 C14           -9.6763    -0.6528     3.2672 C.ar    
  15 C15           -8.3585    -0.4954     2.8917 C.ar    
  16 O16            0.9261    -0.2803     1.0125 O.2     
  17 C17            1.1343     1.8241    -0.6903 C.3     
  18 C18            0.9195     3.3284    -0.4964 C.3     
  19 C19           -0.2894     3.7775    -1.3205 C.3     
  20 C20           -1.5415     3.0441    -0.8338 C.3     
  21 C21           -1.3536     1.5328    -1.0357 C.3     
  22 C22            2.2525     1.3421     0.2360 C.3     
  23 O23            2.6566     0.0267    -0.1495 O.3     
  24 Cl24         -10.0280    -4.6155     3.6663 Cl      
  25 H25           -0.8434    -2.5783     0.9526 H       
  26 H26           -7.4311    -3.7642     2.8744 H       
  27 H27          -11.2170    -2.0334     3.8033 H       
  28 H28          -10.3114     0.2135     3.3792 H       
  29 H29           -7.9630     0.4923     2.7057 H       
  30 H30            1.4043     1.6242    -1.7273 H       
  31 H31            0.7388     3.5372     0.5580 H       
  32 H32            1.8065     3.8683    -0.8279 H       
  33 H33           -0.4296     4.8521    -1.2036 H       
  34 H34           -0.1185     3.5459    -2.3718 H       
  35 H35           -1.6989     3.2556     0.2238 H       
  36 H36           -2.4060     3.3816    -1.4055 H       
  37 H37           -1.2874     1.3119    -2.1010 H       
  38 H38           -2.1984     0.9983    -0.6014 H       
  39 H39            3.1030     2.0197     0.1620 H       
  40 H40            1.8905     1.3243     1.2639 H       
  41 H41            3.3643    -0.3431     0.3959 H       
@<TRIPOS>BOND
   1    1    2 am
   2    1   17 1
   3    1   21 1
   4    2    3 1
   5    2   16 2
   6    3    4 2
   7    3    5 1
   8    4    7 1
   9    4   25 1
  10    5    6 1
  11    6    7 2
  12    6    8 1
  13    8    9 3
  14    9   10 1
  15   10   11 ar
  16   10   15 ar
  17   11   12 ar
  18   11   26 1
  19   12   13 ar
  20   12   24 1
  21   13   14 ar
  22   13   27 1
  23   14   15 ar
  24   14   28 1
  25   15   29 1
  26   17   18 1
  27   17   22 1
  28   17   30 1
  29   18   19 1
  30   18   31 1
  31   18   32 1
  32   19   20 1
  33   19   33 1
  34   19   34 1
  35   20   21 1
  36   20   35 1
  37   20   36 1
  38   21   37 1
  39   21   38 1
  40   22   23 1
  41   22   39 1
  42   22   40 1
  43   23   41 1

#	End of record

