#	Name: ASD05313253
#	Creating user name:	WinNT
#	Creation time:	15. 06. 2019 20:59

#	Modifying user name:	WinNT
#	Modification time:	15. 06. 2019 20:59

#	Program:	/corina/corina34_cracker 3.40 0067  02.08.2006

@<TRIPOS>MOLECULE
ASD05313253
  33   35    0    0    0
SMALL
NO_CHARGES


@<TRIPOS>ATOM
   1 C1            -0.0737     0.8179     1.0260 C.2     
   2 C2             0.1131    -0.6201     0.5971 C.3     
   3 N3             0.9282     1.7302     1.0524 N.pl3   
   4 N4             1.4556    -0.7206    -0.0046 N.am    
   5 C5             2.5698    -0.0400     0.6728 C.3     
   6 C6             2.3160     1.4716     0.6632 C.3     
   7 N7            -1.1709     1.3886     1.4262 N.2     
   8 C8            -0.9170     2.6740     1.7238 C.2     
   9 C9             0.3941     2.9050     1.4976 C.2     
  10 C10            1.6558    -1.4161    -1.1415 C.2     
  11 O11            2.7477    -1.4061    -1.6758 O.2     
  12 C12            0.5481    -2.1908    -1.7386 C.ar    
  13 C13            0.3174    -2.1384    -3.1158 C.ar    
  14 C14           -0.7199    -2.8652    -3.6664 C.ar    
  15 C15           -1.5288    -3.6427    -2.8576 C.ar    
  16 C16           -1.3055    -3.6982    -1.4931 C.ar    
  17 C17           -0.2691    -2.9828    -0.9303 C.ar    
  18 C18           -0.9711    -2.8107    -5.1513 C.3     
  19 F19           -2.0654    -3.6223    -5.4692 F       
  20 F20           -1.2431    -1.4918    -5.5301 F       
  21 F21            0.1620    -3.2675    -5.8330 F       
  22 Cl22           1.3315    -1.1620    -4.1317 Cl      
  23 Cl23           1.2377     4.4041     1.7317 Cl      
  24 Cl24          -2.0720     3.8342     2.3016 Cl      
  25 H25            0.0437    -1.2783     1.4632 H       
  26 H26           -0.6449    -0.8903    -0.1380 H       
  27 H27            2.6394    -0.3914     1.7022 H       
  28 H28            3.5010    -0.2564     0.1492 H       
  29 H29            2.4925     1.8644    -0.3381 H       
  30 H30            2.9889     1.9579     1.3696 H       
  31 H31           -2.3389    -4.2089    -3.2931 H       
  32 H32           -1.9417    -4.3069    -0.8676 H       
  33 H33           -0.0933    -3.0315     0.1341 H       
@<TRIPOS>BOND
   1    1    2 1
   2    1    3 1
   3    1    7 2
   4    2    4 1
   5    2   25 1
   6    2   26 1
   7    3    6 1
   8    3    9 1
   9    4    5 1
  10    4   10 am
  11    5    6 1
  12    5   27 1
  13    5   28 1
  14    6   29 1
  15    6   30 1
  16    7    8 1
  17    8    9 2
  18    8   24 1
  19    9   23 1
  20   10   11 2
  21   10   12 1
  22   12   13 ar
  23   12   17 ar
  24   13   14 ar
  25   13   22 1
  26   14   15 ar
  27   14   18 1
  28   15   16 ar
  29   15   31 1
  30   16   17 ar
  31   16   32 1
  32   17   33 1
  33   18   19 1
  34   18   20 1
  35   18   21 1

#	End of record

