#	Name: ASD01916310
#	Creating user name:	WinNT
#	Creation time:	15. 06. 2019 20:07

#	Modifying user name:	WinNT
#	Modification time:	15. 06. 2019 20:07

#	Program:	/corina/corina34_cracker 3.40 0067  02.08.2006

@<TRIPOS>MOLECULE
ASD01916310
  40   41    0    0    0
SMALL
NO_CHARGES


@<TRIPOS>ATOM
   1 C1            -0.0167     1.3816     0.0096 C.ar    
   2 C2             0.0021    -0.0041     0.0020 C.ar    
   3 C3             1.2066    -0.6809    -0.0126 C.ar    
   4 C4             2.4057     0.0357    -0.0202 C.ar    
   5 C5             2.3775     1.4331    -0.0129 C.ar    
   6 C6             1.1683     2.0959     0.0022 C.ar    
   7 F7            -1.1593    -0.6943     0.0094 F       
   8 C8             3.6581    -0.6584    -0.0349 C.1     
   9 C9             4.6850    -1.2274    -0.0470 C.1     
  10 C10            5.9374    -1.9214    -0.0617 C.2     
  11 C11            9.5458    -1.5633    -0.0935 C.2     
  12 O12            9.7724    -0.3684    -0.0903 O.2     
  13 N13           10.5670    -2.4427    -0.1070 N.am    
  14 C14           11.9499    -1.9594    -0.1178 C.3     
  15 C15           12.8683    -3.0279     0.4785 C.3     
  16 O16           12.8649    -4.1827    -0.3633 O.3     
  17 C17           14.2918    -2.4767     0.5824 C.3     
  18 C18           12.3670    -3.4113     1.8723 C.3     
  19 C19           12.3764    -1.6660    -1.5576 C.3     
  20 N20            7.0952    -1.2934    -0.0693 N.2     
  21 C21            8.1552    -2.0493    -0.0826 C.2     
  22 S22            7.6708    -3.7412    -0.0862 S.3     
  23 C23            6.0220    -3.2873    -0.0631 C.2     
  24 H24           -0.9606     1.9063     0.0169 H       
  25 H25            1.2209    -1.7607    -0.0179 H       
  26 H26            3.3011     1.9928    -0.0184 H       
  27 H27            1.1461     3.1757     0.0078 H       
  28 H28           10.3863    -3.3958    -0.1095 H       
  29 H29           12.0207    -1.0474     0.4751 H       
  30 H30           11.9929    -4.5857    -0.4746 H       
  31 H31           14.2944    -1.5959     1.2244 H       
  32 H32           14.9461    -3.2380     1.0072 H       
  33 H33           14.6490    -2.2036    -0.4106 H       
  34 H34           11.3528    -3.8040     1.7983 H       
  35 H35           13.0213    -4.1726     2.2971 H       
  36 H36           12.3696    -2.5305     2.5144 H       
  37 H37           13.4053    -1.3064    -1.5656 H       
  38 H38           12.3056    -2.5779    -2.1504 H       
  39 H39           11.7221    -0.9048    -1.9824 H       
  40 H40            5.1836    -3.9681    -0.0566 H       
@<TRIPOS>BOND
   1    1    2 ar
   2    1    6 ar
   3    1   24 1
   4    2    3 ar
   5    2    7 1
   6    3    4 ar
   7    3   25 1
   8    4    5 ar
   9    4    8 1
  10    5    6 ar
  11    5   26 1
  12    6   27 1
  13    8    9 3
  14    9   10 1
  15   10   20 1
  16   10   23 2
  17   11   12 2
  18   11   13 am
  19   11   21 1
  20   13   14 1
  21   13   28 1
  22   14   15 1
  23   14   19 1
  24   14   29 1
  25   15   16 1
  26   15   17 1
  27   15   18 1
  28   16   30 1
  29   17   31 1
  30   17   32 1
  31   17   33 1
  32   18   34 1
  33   18   35 1
  34   18   36 1
  35   19   37 1
  36   19   38 1
  37   19   39 1
  38   20   21 2
  39   21   22 1
  40   22   23 1
  41   23   40 1

#	End of record

