#	Name: ASD01912370
#	Creating user name:	WinNT
#	Creation time:	15. 06. 2019 19:59

#	Modifying user name:	WinNT
#	Modification time:	15. 06. 2019 19:59

#	Program:	/corina/corina34_cracker 3.40 0067  02.08.2006

@<TRIPOS>MOLECULE
ASD01912370
  55   58    0    0    0
SMALL
NO_CHARGES


@<TRIPOS>ATOM
   1 C1            -0.1288     1.6228    -1.1929 C.ar    
   2 C2            -0.1105     0.2371    -1.3758 C.ar    
   3 C3             1.1010    -0.3966    -1.5824 C.ar    
   4 C4             2.2575     0.3720    -1.6002 C.ar    
   5 C5             2.1681     1.7392    -1.4124 C.ar    
   6 N6             1.0028     2.3212    -1.2172 N.ar    
   7 C7            -1.3753     2.2960    -0.9836 C.1     
   8 C8            -2.3973     2.8478    -0.8121 C.1     
   9 C9            -3.6438     3.5209    -0.6029 C.2     
  10 N10           -3.6029     7.1935     0.9987 N.am    
  11 C11           -4.8462     6.4151     1.0691 C.3     
  12 C12           -4.9731     5.5712    -0.2055 C.3     
  13 C13           -3.6666     4.8415    -0.4280 C.2     
  14 C14           -2.3866     5.6479    -0.4475 C.3     
  15 C15           -2.3245     6.4899     0.8332 C.3     
  16 C16           -3.6352     8.5385     1.0796 C.2     
  17 C17           -2.3729     9.3061     1.1389 C.ar    
  18 C18           -2.2234    10.4674     0.3801 C.ar    
  19 C19           -1.0385    11.1810     0.4406 C.ar    
  20 C20           -0.0029    10.7407     1.2540 C.ar    
  21 C21           -0.1494     9.5900     2.0060 C.ar    
  22 C22           -1.3287     8.8747     1.9583 C.ar    
  23 O23           -4.7021     9.1204     1.1039 O.2     
  24 O24           -0.8887    12.3128    -0.2969 O.3     
  25 C25            0.3599    12.9989    -0.1860 C.3     
  26 C26            0.3419    14.2204    -1.0685 C.ar    
  27 C27           -0.1031    15.4291    -0.5667 C.ar    
  28 C28           -0.1196    16.5495    -1.3762 C.ar    
  29 C29            0.3094    16.4613    -2.6873 C.ar    
  30 C30            0.7553    15.2528    -3.1888 C.ar    
  31 C31            0.7758    14.1333    -2.3781 C.ar    
  32 H32           -1.0292    -0.3304    -1.3557 H       
  33 H33            1.1469    -1.4660    -1.7265 H       
  34 H34            3.2187    -0.0941    -1.7590 H       
  35 H35            3.0666     2.3383    -1.4259 H       
  36 H36           -4.5654     2.9581    -0.5868 H       
  37 H37           -4.8184     5.7600     1.9398 H       
  38 H38           -5.6972     7.0919     1.1455 H       
  39 H39           -5.7814     4.8492    -0.0886 H       
  40 H40           -5.1804     6.2203    -1.0563 H       
  41 H41           -1.5297     4.9754    -0.4865 H       
  42 H42           -2.3791     6.3034    -1.3184 H       
  43 H43           -1.5153     7.2160     0.7542 H       
  44 H44           -2.1519     5.8391     1.6903 H       
  45 H45           -3.0294    10.8085    -0.2527 H       
  46 H46            0.9205    11.2990     1.2991 H       
  47 H47            0.6598     9.2523     2.6366 H       
  48 H48           -1.4416     7.9789     2.5508 H       
  49 H49            0.5178    13.3009     0.8493 H       
  50 H50            1.1673    12.3367    -0.4985 H       
  51 H51           -0.4383    15.4980     0.4577 H       
  52 H52           -0.4680    17.4937    -0.9843 H       
  53 H53            0.2958    17.3365    -3.3199 H       
  54 H54            1.0901    15.1838    -4.2133 H       
  55 H55            1.1277    13.1900    -2.7688 H       
@<TRIPOS>BOND
   1    1    2 ar
   2    1    6 ar
   3    1    7 1
   4    2    3 ar
   5    2   32 1
   6    3    4 ar
   7    3   33 1
   8    4    5 ar
   9    4   34 1
  10    5    6 ar
  11    5   35 1
  12    7    8 3
  13    8    9 1
  14    9   13 2
  15    9   36 1
  16   10   11 1
  17   10   15 1
  18   10   16 am
  19   11   12 1
  20   11   37 1
  21   11   38 1
  22   12   13 1
  23   12   39 1
  24   12   40 1
  25   13   14 1
  26   14   15 1
  27   14   41 1
  28   14   42 1
  29   15   43 1
  30   15   44 1
  31   16   17 1
  32   16   23 2
  33   17   18 ar
  34   17   22 ar
  35   18   19 ar
  36   18   45 1
  37   19   20 ar
  38   19   24 1
  39   20   21 ar
  40   20   46 1
  41   21   22 ar
  42   21   47 1
  43   22   48 1
  44   24   25 1
  45   25   26 1
  46   25   49 1
  47   25   50 1
  48   26   27 ar
  49   26   31 ar
  50   27   28 ar
  51   27   51 1
  52   28   29 ar
  53   28   52 1
  54   29   30 ar
  55   29   53 1
  56   30   31 ar
  57   30   54 1
  58   31   55 1

#	End of record

