#	Name: ASD01911990
#	Creating user name:	WinNT
#	Creation time:	15. 06. 2019 19:58

#	Modifying user name:	WinNT
#	Modification time:	15. 06. 2019 19:58

#	Program:	/corina/corina34_cracker 3.40 0067  02.08.2006

@<TRIPOS>MOLECULE
ASD01911990
  39   41    0    0    0
SMALL
NO_CHARGES


@<TRIPOS>ATOM
   1 C1             0.7742     1.1507    -0.1317 C.ar    
   2 C2             0.5661    -0.2266    -0.1283 C.ar    
   3 C3             1.6748    -1.0611    -0.2496 C.ar    
   4 N4             2.8760    -0.5194    -0.3628 N.ar    
   5 C5             3.0310     0.7895    -0.3617 C.ar    
   6 N6             2.0079     1.6127    -0.2491 N.ar    
   7 N7            -0.7210    -0.7571    -0.0059 N.pl3   
   8 C8            -0.9089    -2.1429    -0.0047 C.ar    
   9 C9            -1.3088    -4.1882    -1.2010 C.ar    
  10 C10           -1.2826    -4.8904    -0.0105 C.ar    
  11 C11           -1.0748    -4.2210     1.1883 C.ar    
  12 C12           -0.8880    -2.8456     1.1912 C.ar    
  13 N13           -1.0490    -4.9334     2.3926 N.am    
  14 C14           -1.5522    -4.3801     3.5138 C.2     
  15 C15           -1.6197    -5.1697     4.7616 C.ar    
  16 O16           -1.9506    -3.2317     3.4989 O.2     
  17 C17           -2.1403    -4.5996     5.9244 C.ar    
  18 C18           -1.1227    -2.8182    -1.2026 C.ar    
  19 C19           -1.8734     0.1384     0.1210 C.3     
  20 C20           -2.2011    -5.3418     7.0860 C.ar    
  21 C21           -1.7475    -6.6485     7.1002 C.ar    
  22 C22           -1.2299    -7.2206     5.9504 C.ar    
  23 C23           -1.1684    -6.4905     4.7806 C.ar    
  24 Br24          -0.6121    -9.0076     5.9811 Br      
  25 F25           -1.1489    -2.1346    -2.3676 F       
  26 H26           -0.0598     1.8313    -0.0442 H       
  27 H27            1.5553    -2.1345    -0.2509 H       
  28 H28            4.0257     1.1995    -0.4560 H       
  29 H29           -1.4702    -4.7113    -2.1320 H       
  30 H30           -1.4286    -5.9605    -0.0123 H       
  31 H31           -0.7263    -2.3235     2.1226 H       
  32 H32           -0.6690    -5.8255     2.4204 H       
  33 H33           -2.4945    -3.5794     5.9151 H       
  34 H34           -2.2618     0.3735    -0.8699 H       
  35 H35           -2.6502    -0.3502     0.7092 H       
  36 H36           -1.5657     1.0583     0.6183 H       
  37 H37           -2.6034    -4.9014     7.9863 H       
  38 H38           -1.7971    -7.2250     8.0122 H       
  39 H39           -0.7645    -6.9375     3.8842 H       
@<TRIPOS>BOND
   1    1    2 ar
   2    1    6 ar
   3    1   26 1
   4    2    3 ar
   5    2    7 1
   6    3    4 ar
   7    3   27 1
   8    4    5 ar
   9    5    6 ar
  10    5   28 1
  11    7    8 1
  12    7   19 1
  13    8   18 ar
  14    8   12 ar
  15    9   10 ar
  16    9   18 ar
  17    9   29 1
  18   10   11 ar
  19   10   30 1
  20   11   12 ar
  21   11   13 1
  22   12   31 1
  23   13   14 am
  24   13   32 1
  25   14   15 1
  26   14   16 2
  27   15   17 ar
  28   15   23 ar
  29   17   20 ar
  30   17   33 1
  31   18   25 1
  32   19   34 1
  33   19   35 1
  34   19   36 1
  35   20   21 ar
  36   20   37 1
  37   21   22 ar
  38   21   38 1
  39   22   23 ar
  40   22   24 1
  41   23   39 1

#	End of record

