#	Name: ASD00310151
#	Creating user name:	WinNT
#	Creation time:	15. 06. 2019 18:33

#	Modifying user name:	WinNT
#	Modification time:	15. 06. 2019 18:33

#	Program:	/corina/corina34_cracker 3.40 0067  02.08.2006

@<TRIPOS>MOLECULE
ASD00310151
  40   41    0    0    0
SMALL
NO_CHARGES


@<TRIPOS>ATOM
   1 C1            -0.0187     1.5258     0.0104 C.3     
   2 C2             0.0021    -0.0041     0.0020 C.3     
   3 C3            -1.4333    -0.5336     0.0129 C.3     
   4 O4             1.3220     2.0204     0.0003 O.3     
   5 O5            -1.4139    -1.9625     0.0050 O.3     
   6 C6             0.7074    -0.4901    -1.2379 C.ar    
   7 C7             0.2185    -0.1557    -2.4869 C.ar    
   8 C8             0.8654    -0.6008    -3.6244 C.ar    
   9 C9             2.0022    -1.3810    -3.5128 C.ar    
  10 C10            2.4910    -1.7153    -2.2627 C.ar    
  11 C11            1.8465    -1.2654    -1.1258 C.ar    
  12 Br12           2.8873    -1.9909    -5.0686 Br      
  13 C13            0.7421    -0.5109     1.2415 C.3     
  14 O14            0.0732    -0.0501     2.4172 O.3     
  15 C15            0.6869    -0.4701     3.6375 C.3     
  16 C16           -0.0970     0.0697     4.8059 C.ar    
  17 C17           -1.1344    -0.6695     5.3429 C.ar    
  18 C18           -1.8535    -0.1742     6.4146 C.ar    
  19 C19           -1.5349     1.0600     6.9495 C.ar    
  20 C20           -0.4970     1.7987     6.4131 C.ar    
  21 C21            0.2249     1.3016     5.3441 C.ar    
  22 H22           -0.5459     1.8868    -0.8726 H       
  23 H23           -0.5289     1.8773     0.9072 H       
  24 H24           -1.9435    -0.1821     0.9097 H       
  25 H25           -1.9605    -0.1726    -0.8702 H       
  26 H26            1.3852     2.9853     0.0049 H       
  27 H27           -2.2919    -2.3678     0.0112 H       
  28 H28           -0.6693     0.4531    -2.5740 H       
  29 H29            0.4831    -0.3399    -4.6002 H       
  30 H30            3.3783    -2.3248    -2.1751 H       
  31 H31            2.2305    -1.5229    -0.1498 H       
  32 H32            0.7568    -1.6008     1.2356 H       
  33 H33            1.7647    -0.1336     1.2338 H       
  34 H34            0.7005    -1.5592     3.6812 H       
  35 H35            1.7083    -0.0920     3.6795 H       
  36 H36           -1.3833    -1.6337     4.9249 H       
  37 H37           -2.6644    -0.7514     6.8337 H       
  38 H38           -2.0972     1.4472     7.7864 H       
  39 H39           -0.2483     2.7631     6.8308 H       
  40 H40            1.0382     1.8771     4.9274 H       
@<TRIPOS>BOND
   1    1    2 1
   2    1    4 1
   3    1   22 1
   4    1   23 1
   5    2    3 1
   6    2    6 1
   7    2   13 1
   8    3    5 1
   9    3   24 1
  10    3   25 1
  11    4   26 1
  12    5   27 1
  13    6    7 ar
  14    6   11 ar
  15    7    8 ar
  16    7   28 1
  17    8    9 ar
  18    8   29 1
  19    9   10 ar
  20    9   12 1
  21   10   11 ar
  22   10   30 1
  23   11   31 1
  24   13   14 1
  25   13   32 1
  26   13   33 1
  27   14   15 1
  28   15   16 1
  29   15   34 1
  30   15   35 1
  31   16   17 ar
  32   16   21 ar
  33   17   18 ar
  34   17   36 1
  35   18   19 ar
  36   18   37 1
  37   19   20 ar
  38   19   38 1
  39   20   21 ar
  40   20   39 1
  41   21   40 1

#	End of record

