#	Name: ASD01811169
#	Creating user name:	WinNT
#	Creation time:	15. 06. 2019 19:26

#	Modifying user name:	WinNT
#	Modification time:	15. 06. 2019 19:26

#	Program:	/corina/corina34_cracker 3.40 0067  02.08.2006

@<TRIPOS>MOLECULE
ASD01811169
  63   67    0    0    0
SMALL
NO_CHARGES


@<TRIPOS>ATOM
   1 C1            -7.3648     2.0359     1.0079 C.1     
   2 C2            -6.2529     2.9363     0.9479 C.ar    
   3 C3            -4.9872     2.5164     1.3618 C.ar    
   4 C4            -3.9205     3.3890     1.3014 C.ar    
   5 C5            -4.1027     4.6779     0.8324 C.ar    
   6 C6            -5.3543     5.1007     0.4210 C.ar    
   7 C7            -6.4284     4.2364     0.4698 C.ar    
   8 N8            -8.2468     1.3216     1.0555 N.1     
   9 N9            -1.6673     8.1247     1.1615 N.am    
  10 C10           -2.0911     7.7685    -0.1995 C.3     
  11 C11           -3.2944     6.8246    -0.1100 C.3     
  12 C12           -2.9328     5.6256     0.7697 C.3     
  13 C13           -2.5931     6.1103     2.1810 C.3     
  14 C14           -1.3820     7.0462     2.1176 C.3     
  15 F15           -1.8263     4.9649     0.2253 F       
  16 C16           -1.5374     9.4162     1.5243 C.2     
  17 C17           -1.2056     9.7613     2.9233 C.ar    
  18 C18           -2.0324    10.6244     3.6463 C.ar    
  19 C19           -1.7245    10.9474     4.9528 C.ar    
  20 C20           -0.5984    10.4205     5.5539 C.ar    
  21 C21            0.2371     9.5563     4.8426 C.ar    
  22 C22           -0.0709     9.2220     3.5251 C.ar    
  23 O23           -1.6929    10.2973     0.7015 O.2     
  24 C24           -3.2632    11.2047     2.9986 C.3     
  25 C25           -4.3967    10.1781     3.0461 C.3     
  26 C26           -0.2700    10.7791     6.9803 C.3     
  27 C27           -0.1574    12.2933     7.2245 C.3     
  28 C28           -0.8848    12.0528     8.5579 C.3     
  29 C29           -1.4962    10.8003     7.9081 C.3     
  30 O30            1.8255     7.6979     5.4736 O.3     
  31 C31            1.4420     8.9936     5.4872 C.2     
  32 N32            2.3356     9.6594     6.1768 N.2     
  33 N33            3.2471     8.8504     6.5890 N.2     
  34 C34            2.9708     7.6351     6.1782 C.2     
  35 N35            3.7175     6.4998     6.4242 N.pl3   
  36 H36           -4.8438     1.5108     1.7288 H       
  37 H37           -2.9410     3.0655     1.6212 H       
  38 H38           -5.4896     6.1083     0.0563 H       
  39 H39           -7.4038     4.5663     0.1439 H       
  40 H40           -2.3740     8.6706    -0.7420 H       
  41 H41           -1.2727     7.2692    -0.7181 H       
  42 H42           -4.1407     7.3544     0.3270 H       
  43 H43           -3.5587     6.4765    -1.1086 H       
  44 H44           -3.4461     6.6469     2.5965 H       
  45 H45           -2.3584     5.2540     2.8132 H       
  46 H46           -0.5057     6.4880     1.7879 H       
  47 H47           -1.1969     7.4717     3.1038 H       
  48 H48           -2.3670    11.6154     5.5071 H       
  49 H49            0.5695     8.5509     2.9718 H       
  50 H50           -3.5654    12.1048     3.5339 H       
  51 H51           -3.0436    11.4557     1.9609 H       
  52 H52           -5.2869    10.5979     2.5776 H       
  53 H53           -4.0944     9.2781     2.5108 H       
  54 H54           -4.6163     9.9272     4.0839 H       
  55 H55            0.5699    10.2091     7.3774 H       
  56 H56            0.8688    12.6412     7.3435 H       
  57 H57           -0.7295    12.8934     6.5170 H       
  58 H58           -0.2136    11.8308     9.3876 H       
  59 H59           -1.6186    12.8216     8.7998 H       
  60 H60           -2.4344    10.9923     7.3875 H       
  61 H61           -1.5510     9.9429     8.5790 H       
  62 H62            3.4266     5.6429     6.0750 H       
  63 H63            4.5329     6.5593     6.9461 H       
@<TRIPOS>BOND
   1    1    2 1
   2    1    8 3
   3    2    3 ar
   4    2    7 ar
   5    3    4 ar
   6    3   36 1
   7    4    5 ar
   8    4   37 1
   9    5    6 ar
  10    5   12 1
  11    6    7 ar
  12    6   38 1
  13    7   39 1
  14    9   10 1
  15    9   14 1
  16    9   16 am
  17   10   11 1
  18   10   40 1
  19   10   41 1
  20   11   12 1
  21   11   42 1
  22   11   43 1
  23   12   13 1
  24   12   15 1
  25   13   14 1
  26   13   44 1
  27   13   45 1
  28   14   46 1
  29   14   47 1
  30   16   17 1
  31   16   23 2
  32   17   18 ar
  33   17   22 ar
  34   18   19 ar
  35   18   24 1
  36   19   20 ar
  37   19   48 1
  38   20   21 ar
  39   20   26 1
  40   21   22 ar
  41   21   31 1
  42   22   49 1
  43   24   25 1
  44   24   50 1
  45   24   51 1
  46   25   52 1
  47   25   53 1
  48   25   54 1
  49   26   27 1
  50   26   29 1
  51   26   55 1
  52   27   28 1
  53   27   56 1
  54   27   57 1
  55   28   29 1
  56   28   58 1
  57   28   59 1
  58   29   60 1
  59   29   61 1
  60   30   31 1
  61   30   34 1
  62   31   32 2
  63   32   33 1
  64   33   34 2
  65   34   35 1
  66   35   62 1
  67   35   63 1

#	End of record

