#	Name: ASD01141013
#	Creating user name:	WinNT
#	Creation time:	15. 06. 2019 19:01

#	Modifying user name:	WinNT
#	Modification time:	15. 06. 2019 19:01

#	Program:	/corina/corina34_cracker 3.40 0067  02.08.2006

@<TRIPOS>MOLECULE
ASD01141013
  55   58    0    0    0
SMALL
NO_CHARGES


@<TRIPOS>ATOM
   1 C1            -0.0183     1.4973     0.0103 C.2     
   2 C2             0.0021    -0.0041     0.0020 C.3     
   3 C3             1.3499    -0.5166    -0.5104 C.3     
   4 C4             2.4691     0.2089     0.2509 C.3     
   5 N5             2.3291     1.6476    -0.0206 N.am    
   6 N6             1.0493     2.2175     0.0039 N.2     
   7 S7             3.6598     2.5769    -0.3494 S.o2    
   8 O8             3.3491     3.8921     0.0899 O.2     
   9 O9             4.7850     1.8465     0.1191 O.2     
  10 C10            3.1954     3.6638    -2.7832 C.ar    
  11 C11            3.8164     2.6619    -2.1024 C.ar    
  12 C12            4.5745     1.7028    -2.7708 C.ar    
  13 C13            4.7157     1.7395    -4.1242 C.ar    
  14 C14            4.0891     2.7585    -4.8612 C.ar    
  15 C15            4.2124     2.8297    -6.2594 C.ar    
  16 C16            3.5915     3.8313    -6.9400 C.ar    
  17 C17            2.8335     4.7909    -6.2712 C.ar    
  18 C18            2.6921     4.7542    -4.9182 C.ar    
  19 C19            3.3179     3.7342    -4.1811 C.ar    
  20 C20           -1.3252     2.1809     0.0201 C.ar    
  21 C21           -1.3872     3.5763     0.0279 C.ar    
  22 C22           -2.6129     4.2088     0.0366 C.ar    
  23 C23           -3.7793     3.4644     0.0379 C.ar    
  24 C24           -3.7255     2.0818     0.0306 C.ar    
  25 C25           -2.5068     1.4359     0.0156 C.ar    
  26 C26           -5.1147     4.1629     0.0479 C.3     
  27 C27           -5.5732     4.4071    -1.3912 C.3     
  28 C28           -6.9290     5.1161    -1.3811 C.3     
  29 C29           -7.3875     5.3604    -2.8202 C.3     
  30 H30           -0.1623    -0.3724     1.0146 H       
  31 H31           -0.7935    -0.3719    -0.6460 H       
  32 H32            1.4241    -1.5899    -0.3353 H       
  33 H33            1.4389    -0.3097    -1.5769 H       
  34 H34            2.3700     0.0228     1.3203 H       
  35 H35            3.4408    -0.1407    -0.0979 H       
  36 H36            2.6077     4.3979    -2.2521 H       
  37 H37            5.0575     0.9186    -2.2067 H       
  38 H38            5.3067     0.9895    -4.6289 H       
  39 H39            4.7971     2.0935    -6.7909 H       
  40 H40            3.6878     3.8837    -8.0144 H       
  41 H41            2.3513     5.5756    -6.8353 H       
  42 H42            2.1022     5.5050    -4.4135 H       
  43 H43           -0.4776     4.1585     0.0276 H       
  44 H44           -2.6624     5.2877     0.0427 H       
  45 H45           -4.6398     1.5071     0.0321 H       
  46 H46           -2.4662     0.3567     0.0054 H       
  47 H47           -5.8467     3.5398     0.5617 H       
  48 H48           -5.0217     5.1171     0.5665 H       
  49 H49           -4.8412     5.0301    -1.9050 H       
  50 H50           -5.6661     3.4529    -1.9098 H       
  51 H51           -7.6610     4.4931    -0.8672 H       
  52 H52           -6.8361     6.0704    -0.8625 H       
  53 H53           -6.6555     5.9834    -3.3340 H       
  54 H54           -7.4805     4.4061    -3.3388 H       
  55 H55           -8.3534     5.8655    -2.8130 H       
@<TRIPOS>BOND
   1    1    2 1
   2    1    6 2
   3    1   20 1
   4    2    3 1
   5    2   30 1
   6    2   31 1
   7    3    4 1
   8    3   32 1
   9    3   33 1
  10    4    5 1
  11    4   34 1
  12    4   35 1
  13    5    6 1
  14    5    7 am
  15    7    8 2
  16    7    9 2
  17    7   11 1
  18   10   11 ar
  19   10   19 ar
  20   10   36 1
  21   11   12 ar
  22   12   13 ar
  23   12   37 1
  24   13   14 ar
  25   13   38 1
  26   14   15 ar
  27   14   19 ar
  28   15   16 ar
  29   15   39 1
  30   16   17 ar
  31   16   40 1
  32   17   18 ar
  33   17   41 1
  34   18   19 ar
  35   18   42 1
  36   20   21 ar
  37   20   25 ar
  38   21   22 ar
  39   21   43 1
  40   22   23 ar
  41   22   44 1
  42   23   24 ar
  43   23   26 1
  44   24   25 ar
  45   24   45 1
  46   25   46 1
  47   26   27 1
  48   26   47 1
  49   26   48 1
  50   27   28 1
  51   27   49 1
  52   27   50 1
  53   28   29 1
  54   28   51 1
  55   28   52 1
  56   29   53 1
  57   29   54 1
  58   29   55 1

#	End of record

