#	Name: ASD06340014
#	Creating user name:	WinNT
#	Creation time:	15. 06. 2019 21:05

#	Modifying user name:	WinNT
#	Modification time:	15. 06. 2019 21:05

#	Program:	/corina/corina34_cracker 3.40 0067  02.08.2006

@<TRIPOS>MOLECULE
ASD06340014
  26   26    0    0    0
SMALL
NO_CHARGES


@<TRIPOS>ATOM
   1 N1            -0.0159     1.3206     0.0093 N.am    
   2 C2             0.0021    -0.0041     0.0020 C.2     
   3 N3             1.2079    -0.5931    -0.0127 N.am    
   4 S4             2.3479     0.6655    -0.0168 S.3     
   5 C5             1.1811     1.9312     0.0012 C.2     
   6 C6             1.4848    -2.0317    -0.0226 C.3     
   7 C7            -1.2703     2.0773     0.0195 C.3     
   8 O8             1.3957     3.1293     0.0049 O.2     
   9 O9            -1.0257    -0.6556     0.0087 O.2     
  10 C10            1.4439    -2.5490    -1.4619 C.3     
  11 C11           -1.6837     2.3232     1.4107 C.1     
  12 C12           -2.0135     2.5193     2.5202 C.1     
  13 C13            1.7331    -4.0514    -1.4723 C.3     
  14 C14            1.6921    -4.5687    -2.9116 C.3     
  15 H15            2.4723    -2.2145     0.4012 H       
  16 H16            0.7327    -2.5506     0.5716 H       
  17 H17           -1.1242     3.0298    -0.4899 H       
  18 H18           -2.0436     1.5057    -0.4937 H       
  19 H19            0.4564    -2.3662    -1.8857 H       
  20 H20            2.1960    -2.0301    -2.0561 H       
  21 H21           -2.3084     2.6947     3.5125 H       
  22 H22            2.7205    -4.2342    -1.0485 H       
  23 H23            0.9809    -4.5703    -0.8781 H       
  24 H24            0.7046    -4.3859    -3.3354 H       
  25 H25            2.4443    -4.0498    -3.5058 H       
  26 H26            1.8981    -5.6390    -2.9190 H       
@<TRIPOS>BOND
   1    1    2 am
   2    1    5 am
   3    1    7 1
   4    2    3 am
   5    2    9 2
   6    3    4 1
   7    3    6 1
   8    4    5 1
   9    5    8 2
  10    6   10 1
  11    6   15 1
  12    6   16 1
  13    7   11 1
  14    7   17 1
  15    7   18 1
  16   10   13 1
  17   10   19 1
  18   10   20 1
  19   11   12 3
  20   12   21 1
  21   13   14 1
  22   13   22 1
  23   13   23 1
  24   14   24 1
  25   14   25 1
  26   14   26 1

#	End of record

