#	Name: ASD01940273
#	Creating user name:	WinNT
#	Creation time:	15. 06. 2019 20:12

#	Modifying user name:	WinNT
#	Modification time:	15. 06. 2019 20:12

#	Program:	/corina/corina34_cracker 3.40 0067  02.08.2006

@<TRIPOS>MOLECULE
ASD01940273
  40   41    0    0    0
SMALL
NO_CHARGES


@<TRIPOS>ATOM
   1 C1            -0.5438     0.8673     0.0604 C.ar    
   2 C2            -0.9099     0.8681     1.3989 C.ar    
   3 C3            -2.2485     0.8960     1.7529 C.ar    
   4 C4            -3.2271     0.9233     0.7733 C.ar    
   5 C5            -2.8683     0.9227    -0.5695 C.ar    
   6 C6            -1.5237     0.9009    -0.9281 C.ar    
   7 N7            -1.1564     0.9007    -2.2842 N.am    
   8 S8            -0.3192    -0.3813    -2.9151 S.o2    
   9 O9            -0.0742    -0.0099    -4.2646 O.2     
  10 O10            0.7529    -0.5820    -2.0043 O.2     
  11 F11           -2.6006     0.8963     3.0572 F       
  12 F12           -4.5318     0.9501     1.1232 F       
  13 N13           -3.8589     0.9494    -1.5610 N.pl3   
  14 C14           -4.7158    -0.1435    -1.7226 C.ar    
  15 C15           -6.0675     0.0622    -1.9814 C.ar    
  16 C16           -4.2191    -1.4366    -1.6310 C.ar    
  17 C17           -5.0685    -2.5148    -1.7912 C.ar    
  18 C18           -6.4119    -2.3079    -2.0430 C.ar    
  19 C19           -6.9109    -1.0214    -2.1405 C.ar    
  20 F20           -6.5546     1.3187    -2.0766 F       
  21 C21           -7.3341    -3.4870    -2.2175 C.3     
  22 C22           -1.4876    -1.7668    -2.8382 C.3     
  23 N23            0.8114     0.8384    -0.2961 N.pl3   
  24 C24            1.8338     0.6129     0.7287 C.3     
  25 H25           -0.1498     0.8465     2.1657 H       
  26 H26           -1.3932     1.6514    -2.8510 H       
  27 H27           -3.9500     1.7261    -2.1348 H       
  28 H28           -3.1697    -1.5999    -1.4351 H       
  29 H29           -4.6820    -3.5207    -1.7199 H       
  30 H30           -7.9610    -0.8634    -2.3373 H       
  31 H31           -7.7460    -3.7725    -1.2495 H       
  32 H32           -8.1462    -3.2163    -2.8923 H       
  33 H33           -6.7772    -4.3249    -2.6368 H       
  34 H34           -2.4368    -1.4666    -3.2820 H       
  35 H35           -1.0815    -2.6155    -3.3886 H       
  36 H36           -1.6464    -2.0508    -1.7979 H       
  37 H37            1.0724     0.9678    -1.2213 H       
  38 H38            2.8207     0.6239     0.2660 H       
  39 H39            1.7757     1.4009     1.4795 H       
  40 H40            1.6657    -0.3540     1.2030 H       
@<TRIPOS>BOND
   1    1    2 ar
   2    1   23 1
   3    1    6 ar
   4    2    3 ar
   5    2   25 1
   6    3    4 ar
   7    3   11 1
   8    4    5 ar
   9    4   12 1
  10    5    6 ar
  11    5   13 1
  12    6    7 1
  13    7    8 am
  14    7   26 1
  15    8    9 2
  16    8   10 2
  17    8   22 1
  18   13   14 1
  19   13   27 1
  20   14   15 ar
  21   14   16 ar
  22   15   20 1
  23   15   19 ar
  24   16   17 ar
  25   16   28 1
  26   17   18 ar
  27   17   29 1
  28   18   19 ar
  29   18   21 1
  30   19   30 1
  31   21   31 1
  32   21   32 1
  33   21   33 1
  34   22   34 1
  35   22   35 1
  36   22   36 1
  37   23   24 1
  38   23   37 1
  39   24   38 1
  40   24   39 1
  41   24   40 1

#	End of record

