#	Name: ASD01814259
#	Creating user name:	WinNT
#	Creation time:	15. 06. 2019 19:32

#	Modifying user name:	WinNT
#	Modification time:	15. 06. 2019 19:32

#	Program:	/corina/corina34_cracker 3.40 0067  02.08.2006

@<TRIPOS>MOLECULE
ASD01814259
  57   61    0    0    0
SMALL
NO_CHARGES


@<TRIPOS>ATOM
   1 C1            -0.0168     1.3869     0.0097 C.ar    
   2 C2             0.0021    -0.0041     0.0020 C.ar    
   3 C3             1.1801    -0.6897    -0.0129 C.ar    
   4 C4             2.3948     0.0129    -0.0207 C.ar    
   5 C5             2.3717     1.4290    -0.0129 C.ar    
   6 C6             1.1455     2.1015     0.0024 C.ar    
   7 C7             3.6293    -0.6694    -0.0365 C.ar    
   8 C8             4.8031     0.0063    -0.0446 C.ar    
   9 C9             4.8359     1.4095    -0.0374 C.ar    
  10 C10            3.6406     2.1511    -0.0211 C.ar    
  11 C11            6.1026     2.1526    -0.0470 C.2     
  12 N12            6.0328     3.5041    -0.0399 N.am    
  13 C13            4.8302     4.1313    -0.0241 C.2     
  14 N14            3.6961     3.4935    -0.0158 N.2     
  15 C15            3.6424    -2.1763    -0.0442 C.3     
  16 C16            3.5087    -2.6726    -1.4608 C.ar    
  17 C17            4.6367    -2.8928    -2.2367 C.ar    
  18 C18            4.4664    -3.3494    -3.5343 C.ar    
  19 C19            3.1855    -3.5688    -4.0089 C.ar    
  20 N20            2.1348    -3.3481    -3.2413 N.ar    
  21 C21            2.2607    -2.9192    -2.0006 C.ar    
  22 O22            7.1745     1.5748    -0.0604 O.2     
  23 Cl23           2.9576    -4.1401    -5.6323 Cl      
  24 C24            7.2655     4.2957    -0.0490 C.3     
  25 C25            7.3178     5.1723     1.2039 C.3     
  26 C26            8.6052     5.9990     1.1945 C.3     
  27 C27            8.6317     6.8873    -0.0509 C.3     
  28 C28            8.5794     6.0107    -1.3038 C.3     
  29 C29            7.2920     5.1840    -1.2944 C.3     
  30 O30            7.2927     4.3292     2.3859 O.3     
  31 C31            6.7287     4.8442     3.4897 C.2     
  32 O32            6.2712     5.9623     3.4690 O.2     
  33 C33            6.6661     4.0277     4.7548 C.3     
  34 H34           -0.9630     1.9076     0.0169 H       
  35 H35           -0.9305    -0.5488     0.0083 H       
  36 H36            1.1786    -1.7697    -0.0183 H       
  37 H37            1.1188     3.1811     0.0081 H       
  38 H38            5.7317    -0.5451    -0.0563 H       
  39 H39            4.8132     5.2111    -0.0182 H       
  40 H40            4.5813    -2.5336     0.3789 H       
  41 H41            2.8098    -2.5499     0.5518 H       
  42 H42            5.6246    -2.7124    -1.8395 H       
  43 H43            5.3226    -3.5313    -4.1669 H       
  44 H44            1.3776    -2.7501    -1.4022 H       
  45 H45            8.1264     3.6273    -0.0610 H       
  46 H46            6.4569     5.8406     1.2159 H       
  47 H47            8.6425     6.6235     2.0871 H       
  48 H48            9.4662     5.3306     1.1825 H       
  49 H49            7.7708     7.5557    -0.0389 H       
  50 H50            9.5489     7.4763    -0.0577 H       
  51 H51            8.5983     6.6436    -2.1911 H       
  52 H52            9.4403     5.3423    -1.3159 H       
  53 H53            7.2547     4.5595    -2.1870 H       
  54 H54            6.4311     5.8523    -1.2824 H       
  55 H55            7.6768     3.7699     5.0713 H       
  56 H56            6.1770     4.6075     5.5376 H       
  57 H57            6.0991     3.1151     4.5706 H       
@<TRIPOS>BOND
   1    1    2 ar
   2    1    6 ar
   3    1   34 1
   4    2    3 ar
   5    2   35 1
   6    3    4 ar
   7    3   36 1
   8    4    5 ar
   9    4    7 ar
  10    5    6 ar
  11    5   10 ar
  12    6   37 1
  13    7    8 ar
  14    7   15 1
  15    8    9 ar
  16    8   38 1
  17    9   10 ar
  18    9   11 1
  19   10   14 1
  20   11   12 am
  21   11   22 2
  22   12   13 1
  23   12   24 1
  24   13   14 2
  25   13   39 1
  26   15   16 1
  27   15   40 1
  28   15   41 1
  29   16   17 ar
  30   16   21 ar
  31   17   18 ar
  32   17   42 1
  33   18   19 ar
  34   18   43 1
  35   19   20 ar
  36   19   23 1
  37   20   21 ar
  38   21   44 1
  39   24   25 1
  40   24   29 1
  41   24   45 1
  42   25   26 1
  43   25   30 1
  44   25   46 1
  45   26   27 1
  46   26   47 1
  47   26   48 1
  48   27   28 1
  49   27   49 1
  50   27   50 1
  51   28   29 1
  52   28   51 1
  53   28   52 1
  54   29   53 1
  55   29   54 1
  56   30   31 1
  57   31   32 2
  58   31   33 1
  59   33   55 1
  60   33   56 1
  61   33   57 1

#	End of record

