#	Name: ASD01911489
#	Creating user name:	WinNT
#	Creation time:	15. 06. 2019 19:57

#	Modifying user name:	WinNT
#	Modification time:	15. 06. 2019 19:57

#	Program:	/corina/corina34_cracker 3.40 0067  02.08.2006

@<TRIPOS>MOLECULE
ASD01911489
  20   20    0    0    0
SMALL
NO_CHARGES


@<TRIPOS>ATOM
   1 O1            -0.0161     1.3379     0.0094 O.3     
   2 C2             0.0021    -0.0041     0.0020 C.2     
   3 N3             1.0815    -0.7176    -0.3359 N.am    
   4 C4             2.3616    -0.1059    -0.6831 C.3     
   5 C5             2.1512     1.3613    -1.0680 C.3     
   6 C6             1.2684     2.0198     0.0008 C.3     
   7 O7            -1.0096    -0.5986     0.3176 O.2     
   8 C8             1.0660     3.4986    -0.3354 C.3     
   9 C9             1.9329     1.8873     1.3726 C.3     
  10 H10            1.0112    -1.6849    -0.3509 H       
  11 H11            3.0340    -0.1627     0.1729 H       
  12 H12            2.8024    -0.6412    -1.5241 H       
  13 H13            3.1139     1.8705    -1.1138 H       
  14 H14            1.6581     1.4192    -2.0384 H       
  15 H15            0.4194     3.9563     0.4132 H       
  16 H16            2.0310     4.0054    -0.3407 H       
  17 H17            0.6034     3.5877    -1.3184 H       
  18 H18            2.0856     0.8327     1.6019 H       
  19 H19            2.8949     2.3997     1.3613 H       
  20 H20            1.2915     2.3350     2.1317 H       
@<TRIPOS>BOND
   1    1    2 1
   2    1    6 1
   3    2    3 am
   4    2    7 2
   5    3    4 1
   6    3   10 1
   7    4    5 1
   8    4   11 1
   9    4   12 1
  10    5    6 1
  11    5   13 1
  12    5   14 1
  13    6    8 1
  14    6    9 1
  15    8   15 1
  16    8   16 1
  17    8   17 1
  18    9   18 1
  19    9   19 1
  20    9   20 1

#	End of record

