#	Name: ASD03240286
#	Creating user name:	WinNT
#	Creation time:	15. 06. 2019 20:34

#	Modifying user name:	WinNT
#	Modification time:	15. 06. 2019 20:34

#	Program:	/corina/corina34_cracker 3.40 0067  02.08.2006

@<TRIPOS>MOLECULE
ASD03240286
  92   98    0    0    0
SMALL
NO_CHARGES


@<TRIPOS>ATOM
   1 C1            -0.6724     0.6007    -1.0779 C.2     
   2 N2            -0.6451    -0.6948    -0.6183 N.pl3   
   3 C3            -4.1750     1.7607    -0.4391 C.3     
   4 C4            -3.0368     0.7386    -0.4137 C.3     
   5 N5            -1.8312     1.3357    -0.9934 N.pl3   
   6 N6             0.4017     1.1337    -1.5887 N.2     
   7 N7            -5.3807     1.1636     0.1406 N.pl3   
   8 C8            -6.5505     1.9056     0.2258 C.ar    
   9 C9            -7.7056     1.3335     0.7813 C.ar    
  10 C10           -8.8738     2.0799     0.8650 C.ar    
  11 C11           -8.8920     3.3943     0.3963 C.ar    
  12 C12           -7.7358     3.9560    -0.1557 C.ar    
  13 C13           -6.5766     3.2177    -0.2338 C.ar    
  14 C14          -10.1305     4.1911     0.4825 C.2     
  15 N15          -10.1480     5.4605     0.0298 N.am    
  16 O16          -11.1357     3.7026     0.9620 O.2     
  17 C17          -11.3494     6.1807     0.0106 C.ar    
  18 C18          -11.3391     7.5537     0.2181 C.ar    
  19 C19          -12.5499     5.5224    -0.2217 C.ar    
  20 C20          -13.7339     6.2322    -0.2412 C.ar    
  21 C21          -13.7243     7.6046    -0.0280 C.ar    
  22 C22          -12.5231     8.2636     0.1996 C.ar    
  23 N23          -14.9240     8.3240    -0.0481 N.pl3   
  24 C24          -14.9449     9.7255     0.3781 C.3     
  25 C25          -16.1594     7.6759    -0.4954 C.3     
  26 C26           -7.6789    -0.0628     1.2764 C.ar    
  27 C27           -8.1603    -0.3594     2.5523 C.ar    
  28 C28           -8.1360    -1.6559     3.0133 C.ar    
  29 C29           -7.6293    -2.6759     2.2028 C.ar    
  30 C30           -7.1479    -2.3776     0.9248 C.ar    
  31 C31           -7.1777    -1.0811     0.4642 C.ar    
  32 C32          -16.5417     8.2063    -1.8532 C.ar    
  33 C33          -15.6276     9.8332     1.7173 C.ar    
  34 C34          -16.9475    10.1572     1.7881 C.ar    
  35 C35          -17.5959    10.2614     3.0175 C.ar    
  36 C36          -16.9279    10.0421     4.1828 C.ar    
  37 C37          -15.5640     9.7048     4.1496 C.ar    
  38 C38          -14.9060     9.5937     2.8993 C.ar    
  39 C39          -17.4325     9.2294    -1.9619 C.ar    
  40 C40          -17.7982     9.7330    -3.2090 C.ar    
  41 C41          -17.2750     9.2163    -4.3542 C.ar    
  42 C42          -16.3516     8.1593    -4.2818 C.ar    
  43 C43          -15.9758     7.6508    -3.0135 C.ar    
  44 C44          -15.7900     7.6000    -5.4423 C.ar    
  45 C45          -14.8989     6.5772    -5.3336 C.ar    
  46 C46          -14.5333     6.0735    -4.0865 C.ar    
  47 C47          -15.0525     6.5937    -2.9411 C.ar    
  48 C48          -14.8410     9.4710     5.3318 C.ar    
  49 C49          -13.5212     9.1465     5.2609 C.ar    
  50 C50          -12.8728     9.0424     4.0316 C.ar    
  51 C51          -13.5421     9.2566     2.8661 C.ar    
  52 C52           -7.6031    -4.0253     2.6815 C.1     
  53 N53           -7.5822    -5.0957     3.0613 N.1     
  54 H54            0.1736    -1.2121    -0.6742 H       
  55 H55           -1.4444    -1.0915    -0.2381 H       
  56 H56           -3.8888     2.6377     0.1413 H       
  57 H57           -4.3751     2.0561    -1.4691 H       
  58 H58           -2.8367     0.4432     0.6163 H       
  59 H59           -3.3230    -0.1385    -0.9942 H       
  60 H60           -1.8505     2.2497    -1.3177 H       
  61 H61            1.2204     0.6164    -1.6447 H       
  62 H62           -5.3614     0.2496     0.4649 H       
  63 H63           -9.7655     1.6444     1.2911 H       
  64 H64           -7.7518     4.9732    -0.5183 H       
  65 H65           -5.6867     3.6564    -0.6605 H       
  66 H66           -9.3288     5.8753    -0.2826 H       
  67 H67          -10.4049     8.0662     0.3944 H       
  68 H68          -12.5573     4.4553    -0.3875 H       
  69 H69          -14.6674     5.7204    -0.4226 H       
  70 H70          -12.5156     9.3308     0.3654 H       
  71 H71          -13.9230    10.0955     0.4605 H       
  72 H72          -15.4887    10.3204    -0.3558 H       
  73 H73          -16.0030     6.5990    -0.5568 H       
  74 H74          -16.9584     7.8871     0.2153 H       
  75 H75           -8.5517     0.4288     3.1783 H       
  76 H76           -8.5079    -1.8851     4.0010 H       
  77 H77           -6.7562    -3.1648     0.2977 H       
  78 H78           -6.8061    -0.8503    -0.5232 H       
  79 H79          -17.5007    10.3367     0.8781 H       
  80 H80          -18.6440    10.5204     3.0458 H       
  81 H81          -17.4432    10.1271     5.1281 H       
  82 H82          -17.8628     9.6572    -1.0685 H       
  83 H83          -18.5076    10.5453    -3.2674 H       
  84 H84          -17.5682     9.6162    -5.3136 H       
  85 H85          -16.0645     7.9797    -6.4155 H       
  86 H86          -14.4688     6.1492    -6.2270 H       
  87 H87          -13.8245     5.2608    -4.0281 H       
  88 H88          -14.7597     6.1935    -1.9817 H       
  89 H89          -15.3301     9.5487     6.2916 H       
  90 H90          -12.9679     8.9673     6.1710 H       
  91 H91          -11.8245     8.7842     4.0033 H       
  92 H92          -13.0267     9.1721     1.9208 H       
@<TRIPOS>BOND
   1    1    2 1
   2    1    6 2
   3    1    5 1
   4    2   54 1
   5    2   55 1
   6    3    4 1
   7    3    7 1
   8    3   56 1
   9    3   57 1
  10    4    5 1
  11    4   58 1
  12    4   59 1
  13    5   60 1
  14    6   61 1
  15    7    8 1
  16    7   62 1
  17    8    9 ar
  18    8   13 ar
  19    9   10 ar
  20    9   26 1
  21   10   11 ar
  22   10   63 1
  23   11   12 ar
  24   11   14 1
  25   12   13 ar
  26   12   64 1
  27   13   65 1
  28   14   15 am
  29   14   16 2
  30   15   17 1
  31   15   66 1
  32   17   18 ar
  33   17   19 ar
  34   18   22 ar
  35   18   67 1
  36   19   20 ar
  37   19   68 1
  38   20   21 ar
  39   20   69 1
  40   21   22 ar
  41   21   23 1
  42   22   70 1
  43   23   24 1
  44   23   25 1
  45   24   33 1
  46   24   71 1
  47   24   72 1
  48   25   32 1
  49   25   73 1
  50   25   74 1
  51   26   27 ar
  52   26   31 ar
  53   27   28 ar
  54   27   75 1
  55   28   29 ar
  56   28   76 1
  57   29   30 ar
  58   29   52 1
  59   30   31 ar
  60   30   77 1
  61   31   78 1
  62   32   39 ar
  63   32   43 ar
  64   33   34 ar
  65   33   38 ar
  66   34   35 ar
  67   34   79 1
  68   35   36 ar
  69   35   80 1
  70   36   37 ar
  71   36   81 1
  72   37   38 ar
  73   37   48 ar
  74   38   51 ar
  75   39   40 ar
  76   39   82 1
  77   40   41 ar
  78   40   83 1
  79   41   42 ar
  80   41   84 1
  81   42   43 ar
  82   42   44 ar
  83   43   47 ar
  84   44   45 ar
  85   44   85 1
  86   45   46 ar
  87   45   86 1
  88   46   47 ar
  89   46   87 1
  90   47   88 1
  91   48   49 ar
  92   48   89 1
  93   49   50 ar
  94   49   90 1
  95   50   51 ar
  96   50   91 1
  97   51   92 1
  98   52   53 3

#	End of record

