#	Name: ASD01914721
#	Creating user name:	WinNT
#	Creation time:	15. 06. 2019 20:04

#	Modifying user name:	WinNT
#	Modification time:	15. 06. 2019 20:04

#	Program:	/corina/corina34_cracker 3.40 0067  02.08.2006

@<TRIPOS>MOLECULE
ASD01914721
  29   31    0    0    0
SMALL
NO_CHARGES


@<TRIPOS>ATOM
   1 N1            -0.0166     1.3705     0.0096 N.am    
   2 C2             0.0021    -0.0041     0.0020 C.2     
   3 C3            -1.2736    -0.7246     0.0099 C.2     
   4 C4            -2.4136    -0.0072     0.0243 C.2     
   5 N5            -2.3602     1.3664     0.0312 N.am    
   6 C6            -1.1892     2.0260     0.0292 C.2     
   7 C7             1.2928     1.7853    -0.0007 C.2     
   8 C8             2.0584     0.6765    -0.0140 C.2     
   9 N9             1.2576    -0.3978    -0.0121 N.2     
  10 C10            3.5651     0.6493    -0.0292 C.3     
  11 O11           -1.1912     3.2419     0.0360 O.2     
  12 O12            4.0658     1.9877    -0.0276 O.3     
  13 C13            5.4160     2.1414    -0.0404 C.ar    
  14 C14            5.9706     3.4130    -0.0396 C.ar    
  15 C15            6.2421     1.0269    -0.0485 C.ar    
  16 C16            7.6143     1.1858    -0.0610 C.ar    
  17 C17            8.1645     2.4542    -0.0650 C.ar    
  18 C18            7.3434     3.5666    -0.0521 C.ar    
  19 H19           -1.2993    -1.8043     0.0040 H       
  20 H20           -3.3690    -0.5109     0.0300 H       
  21 H21           -3.1879     1.8720     0.0415 H       
  22 H22            1.6427     2.8070     0.0011 H       
  23 H23            3.9280     0.1245     0.8545 H       
  24 H24            3.9101     0.1334    -0.9253 H       
  25 H25            5.3296     4.2822    -0.0295 H       
  26 H26            5.8128     0.0359    -0.0446 H       
  27 H27            8.2578     0.3185    -0.0673 H       
  28 H28            9.2376     2.5764    -0.0745 H       
  29 H29            7.7756     4.5563    -0.0556 H       
@<TRIPOS>BOND
   1    1    2 1
   2    1    7 1
   3    1    6 am
   4    2    3 1
   5    2    9 2
   6    3    4 2
   7    3   19 1
   8    4    5 1
   9    4   20 1
  10    5    6 am
  11    5   21 1
  12    6   11 2
  13    7    8 2
  14    7   22 1
  15    8    9 1
  16    8   10 1
  17   10   12 1
  18   10   23 1
  19   10   24 1
  20   12   13 1
  21   13   14 ar
  22   13   15 ar
  23   14   18 ar
  24   14   25 1
  25   15   16 ar
  26   15   26 1
  27   16   17 ar
  28   16   27 1
  29   17   18 ar
  30   17   28 1
  31   18   29 1

#	End of record

