#	Name: ASD02560489
#	Creating user name:	WinNT
#	Creation time:	15. 06. 2019 20:25

#	Modifying user name:	WinNT
#	Modification time:	15. 06. 2019 20:25

#	Program:	/corina/corina34_cracker 3.40 0067  02.08.2006

@<TRIPOS>MOLECULE
ASD02560489
  43   46    0    0    0
SMALL
NO_CHARGES


@<TRIPOS>ATOM
   1 C1            -0.0037     1.4179     0.0736 C.2     
   2 C2             0.0095     0.0135     0.0003 C.2     
   3 C3             1.1788    -0.6566    -0.0217 C.2     
   4 N4             2.3694     0.0178     0.0265 N.pl3   
   5 C5             2.3881     1.3920     0.0981 C.2     
   6 C6             1.1693     2.1031     0.1221 C.2     
   7 C7             3.6691    -0.4070     0.0187 C.2     
   8 C8             4.4583     0.7220     0.0860 C.2     
   9 N9             3.6475     1.7950     0.1329 N.2     
  10 C10            5.9396     0.7489     0.1037 C.ar    
  11 N11            4.1117    -1.7284    -0.0447 N.3     
  12 C12            2.9882    -2.6664     0.0811 C.3     
  13 C13            2.3637    -2.9534    -1.3069 C.3     
  14 C14            6.6171     1.9661     0.1744 C.ar    
  15 C15            3.4867    -4.0442     0.5638 C.3     
  16 C16            2.6543    -5.0999    -0.1848 C.3     
  17 C17            1.6790    -4.3268    -1.0963 C.3     
  18 C18            6.6619    -0.4430     0.0555 C.ar    
  19 C19            8.0415    -0.4115     0.0722 C.ar    
  20 C20            8.7078     0.7990     0.1366 C.ar    
  21 C21            7.9965     1.9846     0.1905 C.ar    
  22 C22            5.8439     3.2583     0.2326 C.3     
  23 F23            6.7367     4.3334     0.2983 F       
  24 F24            5.0515     3.3796    -0.9140 F       
  25 F25            5.0257     3.2615     1.3674 F       
  26 H26           -0.9430     1.9508     0.0868 H       
  27 H27           -0.9224    -0.5311    -0.0382 H       
  28 H28            1.1766    -1.7351    -0.0774 H       
  29 H29            1.1685     3.1816     0.1778 H       
  30 H30            4.6293    -1.8960    -0.8944 H       
  31 H31            2.2373    -2.2713     0.7652 H       
  32 H32            1.6287    -2.1910    -1.5650 H       
  33 H33            3.1370    -3.0207    -2.0721 H       
  34 H34            4.5435    -4.1637     0.3248 H       
  35 H35            3.3333    -4.1412     1.6386 H       
  36 H36            3.3071    -5.7317    -0.7871 H       
  37 H37            2.0969    -5.7092     0.5267 H       
  38 H38            0.7149    -4.2008    -0.6036 H       
  39 H39            1.5572    -4.8424    -2.0489 H       
  40 H40            6.1428    -1.3887     0.0055 H       
  41 H41            8.6021    -1.3339     0.0353 H       
  42 H42            9.7875     0.8185     0.1499 H       
  43 H43            8.5222     2.9267     0.2403 H       
@<TRIPOS>BOND
   1    1    2 1
   2    1    6 2
   3    1   26 1
   4    2    3 2
   5    2   27 1
   6    3    4 1
   7    3   28 1
   8    4    5 1
   9    4    7 1
  10    5    6 1
  11    5    9 2
  12    6   29 1
  13    7    8 2
  14    7   11 1
  15    8    9 1
  16    8   10 1
  17   10   14 ar
  18   10   18 ar
  19   11   12 1
  20   11   30 1
  21   12   15 1
  22   12   13 1
  23   12   31 1
  24   13   17 1
  25   13   32 1
  26   13   33 1
  27   14   22 1
  28   14   21 ar
  29   15   16 1
  30   15   34 1
  31   15   35 1
  32   16   17 1
  33   16   36 1
  34   16   37 1
  35   17   38 1
  36   17   39 1
  37   18   19 ar
  38   18   40 1
  39   19   20 ar
  40   19   41 1
  41   20   21 ar
  42   20   42 1
  43   21   43 1
  44   22   23 1
  45   22   24 1
  46   22   25 1

#	End of record

