#	Name: ASD02039343
#	Creating user name:	WinNT
#	Creation time:	15. 06. 2019 20:18

#	Modifying user name:	WinNT
#	Modification time:	15. 06. 2019 20:18

#	Program:	/corina/corina34_cracker 3.40 0067  02.08.2006

@<TRIPOS>MOLECULE
ASD02039343
  51   53    0    0    0
SMALL
NO_CHARGES


@<TRIPOS>ATOM
   1 C1            -0.2120     1.3551     0.3617 C.ar    
   2 C2             0.0575    -0.0014     0.3865 C.ar    
   3 C3            -0.9778    -0.9178     0.4127 C.ar    
   4 C4            -2.5664     0.8868     0.4010 C.ar    
   5 C5            -1.5174     1.8033     0.3688 C.ar    
   6 C6            -3.9709     1.3625     0.4083 C.ar    
   7 C7             0.9227     2.3464     0.3332 C.3     
   8 N8             1.3746     2.5317    -1.0480 N.am    
   9 C9             0.6816     3.4791    -1.9246 C.3     
  10 C10            2.4279     1.8306    -1.5122 C.2     
  11 C11            3.0586     0.8021    -0.6667 C.2     
  12 C12            4.0467    -0.0587    -1.0457 C.2     
  13 N13            2.7664     0.5423     0.6334 N.2     
  14 C14            3.5241    -0.4313     1.0487 C.2     
  15 N15            4.3315    -0.8285     0.0309 N.pl3   
  16 O16            2.8578     2.0470    -2.6292 O.2     
  17 C17            5.3305    -1.8985     0.0879 C.3     
  18 C18           -4.2368     2.7260     0.5028 C.ar    
  19 C19           -2.2897    -0.4816     0.4144 C.ar    
  20 C20            1.6303     4.6218    -2.2919 C.3     
  21 C21            0.2318     2.7603    -3.1982 C.3     
  22 F22           -3.3011    -1.3769     0.4396 F       
  23 N23           -4.9629     0.4850     0.3192 N.ar    
  24 C24           -6.2276     0.8687     0.3223 C.ar    
  25 C25           -6.5619     2.2138     0.4192 C.ar    
  26 C26           -5.5528     3.1589     0.5086 C.ar    
  27 O27           -7.2109    -0.0615     0.2293 O.3     
  28 C28           -6.8041    -1.4279     0.1318 C.3     
  29 H29            1.0810    -0.3464     0.3849 H       
  30 H30           -0.7613    -1.9756     0.4316 H       
  31 H31           -1.7254     2.8631     0.3583 H       
  32 H32            0.5818     3.3005     0.7351 H       
  33 H33            1.7481     1.9713     0.9383 H       
  34 H34           -0.1895     3.8819    -1.4078 H       
  35 H35            4.5124    -0.1155    -2.0185 H       
  36 H36            3.5146    -0.8531     2.0428 H       
  37 H37            4.8675    -2.8434    -0.1962 H       
  38 H38            6.1453    -1.6718    -0.5998 H       
  39 H39            5.7222    -1.9762     1.1021 H       
  40 H40           -3.4271     3.4373     0.5710 H       
  41 H41            2.4296     4.2405    -2.9274 H       
  42 H42            1.0782     5.3947    -2.8268 H       
  43 H43            2.0589     5.0445    -1.3832 H       
  44 H44           -0.3586     1.8837    -2.9314 H       
  45 H45           -0.3737     3.4361    -3.8022 H       
  46 H46            1.1072     2.4491    -3.7682 H       
  47 H47           -7.5976     2.5198     0.4207 H       
  48 H48           -5.7871     4.2104     0.5852 H       
  49 H49           -6.1894    -1.5614    -0.7585 H       
  50 H50           -6.2269    -1.6992     1.0158 H       
  51 H51           -7.6855    -2.0655     0.0637 H       
@<TRIPOS>BOND
   1    1    2 ar
   2    1    7 1
   3    1    5 ar
   4    2    3 ar
   5    2   29 1
   6    3   19 ar
   7    3   30 1
   8    4    5 ar
   9    4    6 1
  10    4   19 ar
  11    5   31 1
  12    6   18 ar
  13    6   23 ar
  14    7    8 1
  15    7   32 1
  16    7   33 1
  17    8    9 1
  18    8   10 am
  19    9   21 1
  20    9   20 1
  21    9   34 1
  22   10   11 1
  23   10   16 2
  24   11   12 2
  25   11   13 1
  26   12   15 1
  27   12   35 1
  28   13   14 2
  29   14   15 1
  30   14   36 1
  31   15   17 1
  32   17   37 1
  33   17   38 1
  34   17   39 1
  35   18   26 ar
  36   18   40 1
  37   19   22 1
  38   20   41 1
  39   20   42 1
  40   20   43 1
  41   21   44 1
  42   21   45 1
  43   21   46 1
  44   23   24 ar
  45   24   25 ar
  46   24   27 1
  47   25   26 ar
  48   25   47 1
  49   26   48 1
  50   27   28 1
  51   28   49 1
  52   28   50 1
  53   28   51 1

#	End of record

