#	Name: ASD00190047
#	Creating user name:	WinNT
#	Creation time:	15. 06. 2019 18:33

#	Modifying user name:	WinNT
#	Modification time:	15. 06. 2019 18:33

#	Program:	/corina/corina34_cracker 3.40 0067  02.08.2006

@<TRIPOS>MOLECULE
ASD00190047
  62   68    0    0    0
SMALL
NO_CHARGES


@<TRIPOS>ATOM
   1 C1            -0.0154     1.3889     0.0329 C.ar    
   2 C2             0.0026    -0.0011     0.0114 C.ar    
   3 C3             1.1801    -0.6877    -0.0102 C.ar    
   4 C4             2.3964     0.0123    -0.0114 C.ar    
   5 C5             2.3718     1.4268     0.0100 C.ar    
   6 C6             1.1497     2.1010     0.0324 C.ar    
   7 N7             3.5674    -0.6415    -0.0320 N.ar    
   8 C8             4.7273    -0.0214    -0.0334 C.ar    
   9 C9             4.8189     1.3796    -0.0128 C.ar    
  10 C10            3.6478     2.1440     0.0085 C.ar    
  11 N11            5.8587     2.2833    -0.0080 N.pl3   
  12 C12            5.3154     3.5207     0.0160 C.2     
  13 N13            4.0133     3.4342     0.0255 N.2     
  14 N14            5.8931    -0.7726    -0.0555 N.pl3   
  15 C15            5.8289    -2.1658     0.0437 C.ar    
  16 C16            6.7405    -2.9549    -0.6458 C.ar    
  17 C17            6.6753    -4.3311    -0.5465 C.ar    
  18 C18            5.7028    -4.9243     0.2385 C.ar    
  19 C19            4.7921    -4.1402     0.9275 C.ar    
  20 C20            4.8569    -2.7628     0.8364 C.ar    
  21 Cl21           3.5728    -4.8881     1.9112 Cl      
  22 Cl22           5.6233    -6.6542     0.3599 Cl      
  23 C23            6.0973     4.8089     0.0299 C.3     
  24 C24            6.4813     5.1570     1.4695 C.3     
  25 C25            7.2751     6.4649     1.4836 C.3     
  26 C26            8.5429     6.3010     0.6430 C.3     
  27 C27            8.1590     5.9530    -0.7966 C.3     
  28 C28            7.3652     4.6451    -0.8107 C.3     
  29 N29            9.3030     7.5534     0.6565 N.am    
  30 C30           10.5612     7.6752     1.1168 C.2     
  31 C31           10.9842     9.0833     0.9642 C.ar    
  32 C32            9.8874     9.7552     0.3878 C.ar    
  33 C33            8.8368     8.7316     0.2049 C.2     
  34 C34           12.1444     9.7823     1.2563 C.ar    
  35 C35           12.2178    11.1385     0.9793 C.ar    
  36 C36           11.1420    11.7975     0.4145 C.ar    
  37 C37            9.9752    11.1112     0.1164 C.ar    
  38 O38            7.7347     8.9237    -0.2677 O.2     
  39 O39           11.2362     6.7786     1.5809 O.2     
  40 H40           -0.9608     1.9110     0.0457 H       
  41 H41           -0.9304    -0.5451     0.0122 H       
  42 H42            1.1769    -1.7676    -0.0261 H       
  43 H43            1.1258     3.1806     0.0492 H       
  44 H44            6.8051     2.0709    -0.0195 H       
  45 H45            6.7528    -0.3315    -0.1396 H       
  46 H46            7.4996    -2.4928    -1.2595 H       
  47 H47            7.3841    -4.9448    -1.0826 H       
  48 H48            4.1469    -2.1514     1.3735 H       
  49 H49            5.4861     5.6095    -0.3867 H       
  50 H50            5.5780     5.2737     2.0683 H       
  51 H51            7.0926     4.3564     1.8861 H       
  52 H52            6.6638     7.2654     1.0669 H       
  53 H53            7.5486     6.7128     2.5092 H       
  54 H54            9.1542     5.5005     1.0597 H       
  55 H55            7.5477     6.7535    -1.2132 H       
  56 H56            9.0622     5.8363    -1.3954 H       
  57 H57            7.9764     3.8446    -0.3940 H       
  58 H58            7.0916     4.3972    -1.8362 H       
  59 H59           12.9879     9.2727     1.6983 H       
  60 H60           13.1217    11.6841     1.2067 H       
  61 H61           11.2111    12.8545     0.2040 H       
  62 H62            9.1378    11.6312    -0.3247 H       
@<TRIPOS>BOND
   1    1    2 ar
   2    1    6 ar
   3    1   40 1
   4    2    3 ar
   5    2   41 1
   6    3    4 ar
   7    3   42 1
   8    4    5 ar
   9    4    7 ar
  10    5    6 ar
  11    5   10 ar
  12    6   43 1
  13    7    8 ar
  14    8    9 ar
  15    8   14 1
  16    9   10 ar
  17    9   11 1
  18   10   13 1
  19   11   12 1
  20   11   44 1
  21   12   13 2
  22   12   23 1
  23   14   15 1
  24   14   45 1
  25   15   16 ar
  26   15   20 ar
  27   16   17 ar
  28   16   46 1
  29   17   18 ar
  30   17   47 1
  31   18   19 ar
  32   18   22 1
  33   19   20 ar
  34   19   21 1
  35   20   48 1
  36   23   24 1
  37   23   28 1
  38   23   49 1
  39   24   25 1
  40   24   50 1
  41   24   51 1
  42   25   26 1
  43   25   52 1
  44   25   53 1
  45   26   27 1
  46   26   29 1
  47   26   54 1
  48   27   28 1
  49   27   55 1
  50   27   56 1
  51   28   57 1
  52   28   58 1
  53   29   30 am
  54   29   33 am
  55   30   31 1
  56   30   39 2
  57   31   32 ar
  58   31   34 ar
  59   32   33 1
  60   32   37 ar
  61   33   38 2
  62   34   35 ar
  63   34   59 1
  64   35   36 ar
  65   35   60 1
  66   36   37 ar
  67   36   61 1
  68   37   62 1

#	End of record

