#	Name: ASD01028086
#	Creating user name:	WinNT
#	Creation time:	15. 06. 2019 18:56

#	Modifying user name:	WinNT
#	Modification time:	15. 06. 2019 18:56

#	Program:	/corina/corina34_cracker 3.40 0067  02.08.2006

@<TRIPOS>MOLECULE
ASD01028086
  76   80    0    0    0
SMALL
NO_CHARGES


@<TRIPOS>ATOM
   1 C1            -0.0836     1.3788     0.1744 C.3     
   2 C2            -0.0153    -0.1489     0.1792 C.3     
   3 C3            -0.5892    -0.6868     1.4898 C.3     
   4 C4             1.8370     2.2599     1.3169 C.2     
   5 N5             1.2960     1.9233     0.1039 N.am    
   6 N6             3.8190     2.6358     2.6818 N.3     
   7 N7             3.1336    -1.1394     4.3305 N.pl3   
   8 C8             4.1098    -0.3437     4.9034 C.ar    
   9 C9             4.2629     0.9388     4.3888 C.ar    
  10 C10            3.3582     1.3739     3.2653 C.3     
  11 C11            4.9091    -0.7675     5.9619 C.ar    
  12 C12            5.8689     0.0898     6.4806 C.ar    
  13 C13            6.0279     1.3631     5.9445 C.ar    
  14 C14            5.2238     1.7819     4.9017 C.ar    
  15 O15           -0.7594    -2.1020     1.4107 O.3     
  16 C16           -0.0138    -2.8638     2.2520 C.ar    
  17 C17            1.0186    -2.2743     2.9315 C.ar    
  18 C18            1.8020    -3.0485     3.7956 C.ar    
  19 C19            2.8841    -2.4666     4.5151 C.ar    
  20 N20            3.5862    -3.2509     5.3148 N.ar    
  21 O21            4.9398    -1.9417     6.6501 O.3     
  22 C22            5.9239    -1.8128     7.6811 C.3     
  23 O23            6.5231    -0.5259     7.5025 O.3     
  24 C24           -0.2950    -4.2250     2.4220 C.ar    
  25 C25            0.4700    -5.0030     3.2659 C.ar    
  26 C26            1.5356    -4.4261     3.9676 C.ar    
  27 N27            2.3205    -5.1285     4.8009 N.ar    
  28 C28            3.3026    -4.5374     5.4417 C.ar    
  29 O29           -1.3331    -4.7855     1.7485 O.3     
  30 C30           -1.5697    -6.1783     1.9637 C.3     
  31 O31            1.2125     2.0833     2.3415 O.2     
  32 C32            3.2214     2.8527     1.3556 C.3     
  33 C33            3.5369     3.7654     3.5776 C.3     
  34 C34           -2.7696    -6.6270     1.1273 C.3     
  35 C35           -3.0229    -8.1182     1.3577 C.3     
  36 N36           -4.1750    -8.5490     0.5546 N.3     
  37 C37           -4.4484    -9.9790     0.7509 C.3     
  38 C38           -5.6521   -10.3896    -0.0997 C.3     
  39 O39           -5.3255   -10.2537    -1.4842 O.3     
  40 C40           -6.3875   -10.6139    -2.3700 C.3     
  41 H41           -0.6535     1.7158    -0.6916 H       
  42 H42           -0.5664     1.7254     1.0881 H       
  43 H43           -0.5936    -0.5404    -0.6576 H       
  44 H44            1.0231    -0.4657     0.0811 H       
  45 H45            0.0928    -0.4504     2.3066 H       
  46 H46           -1.5542    -0.2173     1.6809 H       
  47 H47            1.7752     2.0315    -0.7325 H       
  48 H48            2.5418    -0.6879     3.7085 H       
  49 H49            2.3469     1.5054     3.6502 H       
  50 H50            3.3497     0.6043     2.4935 H       
  51 H51            6.7812     2.0259     6.3440 H       
  52 H52            5.3491     2.7716     4.4880 H       
  53 H53            1.2266    -1.2225     2.8017 H       
  54 H54            5.4503    -1.8730     8.6610 H       
  55 H55            6.6771    -2.5942     7.5802 H       
  56 H56            0.2474    -6.0530     3.3856 H       
  57 H57            3.9114    -5.1325     6.1062 H       
  58 H58           -0.6878    -6.7466     1.6680 H       
  59 H59           -1.7772    -6.3527     3.0195 H       
  60 H60            3.8409     2.3763     0.5958 H       
  61 H61            3.1632     3.9226     1.1556 H       
  62 H62            2.4654     3.9655     3.5835 H       
  63 H63            3.8662     3.5196     4.5872 H       
  64 H64            4.0697     4.6492     3.2267 H       
  65 H65           -3.6515    -6.0588     1.4230 H       
  66 H66           -2.5622    -6.4526     0.0715 H       
  67 H67           -2.1410    -8.6865     1.0620 H       
  68 H68           -3.2304    -8.2926     2.4134 H       
  69 H69           -4.9903    -7.9929     0.7644 H       
  70 H70           -3.5764   -10.5601     0.4510 H       
  71 H71           -4.6657   -10.1663     1.8024 H       
  72 H72           -5.9101   -11.4271     0.1127 H       
  73 H73           -6.5007    -9.7482     0.1381 H       
  74 H74           -6.6607   -11.6561    -2.2047 H       
  75 H75           -7.2514    -9.9772    -2.1793 H       
  76 H76           -6.0604   -10.4832    -3.4015 H       
@<TRIPOS>BOND
   1    1    2 1
   2    1    5 1
   3    1   41 1
   4    1   42 1
   5    2    3 1
   6    2   43 1
   7    2   44 1
   8    3   15 1
   9    3   45 1
  10    3   46 1
  11    4    5 am
  12    4   31 2
  13    4   32 1
  14    5   47 1
  15    6   32 1
  16    6   33 1
  17    6   10 1
  18    7    8 1
  19    7   19 1
  20    7   48 1
  21    8    9 ar
  22    8   11 ar
  23    9   10 1
  24    9   14 ar
  25   10   49 1
  26   10   50 1
  27   11   12 ar
  28   11   21 1
  29   12   13 ar
  30   12   23 1
  31   13   14 ar
  32   13   51 1
  33   14   52 1
  34   15   16 1
  35   16   17 ar
  36   16   24 ar
  37   17   18 ar
  38   17   53 1
  39   18   19 ar
  40   18   26 ar
  41   19   20 ar
  42   20   28 ar
  43   21   22 1
  44   22   23 1
  45   22   54 1
  46   22   55 1
  47   24   25 ar
  48   24   29 1
  49   25   26 ar
  50   25   56 1
  51   26   27 ar
  52   27   28 ar
  53   28   57 1
  54   29   30 1
  55   30   34 1
  56   30   58 1
  57   30   59 1
  58   32   60 1
  59   32   61 1
  60   33   62 1
  61   33   63 1
  62   33   64 1
  63   34   35 1
  64   34   65 1
  65   34   66 1
  66   35   36 1
  67   35   67 1
  68   35   68 1
  69   36   37 1
  70   36   69 1
  71   37   38 1
  72   37   70 1
  73   37   71 1
  74   38   39 1
  75   38   72 1
  76   38   73 1
  77   39   40 1
  78   40   74 1
  79   40   75 1
  80   40   76 1

#	End of record

