#	Name: ASD03091135
#	Creating user name:	WinNT
#	Creation time:	15. 06. 2019 20:30

#	Modifying user name:	WinNT
#	Modification time:	15. 06. 2019 20:30

#	Program:	/corina/corina34_cracker 3.40 0067  02.08.2006

@<TRIPOS>MOLECULE
ASD03091135
  43   45    0    0    0
SMALL
NO_CHARGES


@<TRIPOS>ATOM
   1 C1             1.0477    -0.3502    -1.1393 C.ar    
   2 C2             0.2179     0.0924    -0.1174 C.ar    
   3 C3             0.6699     1.0536     0.7767 C.ar    
   4 C4             1.9448     1.5694     0.6500 C.ar    
   5 C5             2.7745     1.1266    -0.3714 C.ar    
   6 C6             2.3222     0.1654    -1.2660 C.ar    
   7 S7             0.4765    -1.5750    -2.2699 S.o2    
   8 O8             1.5214    -1.7689    -3.2132 O.2     
   9 O9            -0.0646    -2.6268    -1.4824 O.2     
  10 N10           -0.7922    -0.9167    -3.1061 N.am    
  11 C11           -0.5709     0.2320    -3.9881 C.3     
  12 N12            6.7558     2.5118     0.3919 N.3     
  13 C13            5.6208     3.4363     0.2490 C.3     
  14 C14            4.3047     2.7117     0.4849 C.3     
  15 N15            4.0667     1.6498    -0.5001 N.3     
  16 C16            5.0783     0.5912    -0.3751 C.3     
  17 C17            6.2260     0.8367    -1.3432 C.3     
  18 C18            7.1347     1.9742    -0.9228 C.3     
  19 C19            6.6222     1.4852     1.4031 C.3     
  20 C20            5.5193     0.4926     1.0738 C.3     
  21 N21           -1.0744    -0.4305     0.0110 N.pl3   
  22 H22            0.0244     1.3983     1.5709 H       
  23 H23            2.2963     2.3174     1.3452 H       
  24 H24            2.9676    -0.1790    -2.0605 H       
  25 H25           -1.6818    -1.2916    -3.0120 H       
  26 H26           -0.1777     1.0659    -3.4068 H       
  27 H27            0.1442    -0.0388    -4.7648 H       
  28 H28           -1.5148     0.5234    -4.4489 H       
  29 H29            5.7215     4.2433     0.9748 H       
  30 H30            5.6242     3.8563    -0.7568 H       
  31 H31            4.3177     2.2718     1.4821 H       
  32 H32            3.4897     3.4333     0.4300 H       
  33 H33            4.6091    -0.3564    -0.6398 H       
  34 H34            6.8193    -0.0744    -1.4201 H       
  35 H35            5.8120     1.0649    -2.3253 H       
  36 H36            7.0737     2.7710    -1.6640 H       
  37 H37            8.1613     1.6110    -0.8763 H       
  38 H38            7.5670     0.9483     1.4888 H       
  39 H39            6.3984     1.9579     2.3594 H       
  40 H40            4.6627     0.6879     1.7189 H       
  41 H41            5.8825    -0.5171     1.2657 H       
  42 H42           -1.4192    -1.0414    -0.6589 H       
  43 H43           -1.6251    -0.1817     0.7698 H       
@<TRIPOS>BOND
   1    1    2 ar
   2    1    6 ar
   3    1    7 1
   4    2    3 ar
   5    2   21 1
   6    3    4 ar
   7    3   22 1
   8    4    5 ar
   9    4   23 1
  10    5    6 ar
  11    5   15 1
  12    6   24 1
  13    7    8 2
  14    7    9 2
  15    7   10 am
  16   10   11 1
  17   10   25 1
  18   11   26 1
  19   11   27 1
  20   11   28 1
  21   12   13 1
  22   12   18 1
  23   12   19 1
  24   13   14 1
  25   13   29 1
  26   13   30 1
  27   14   15 1
  28   14   31 1
  29   14   32 1
  30   15   16 1
  31   16   17 1
  32   16   20 1
  33   16   33 1
  34   17   18 1
  35   17   34 1
  36   17   35 1
  37   18   36 1
  38   18   37 1
  39   19   20 1
  40   19   38 1
  41   19   39 1
  42   20   40 1
  43   20   41 1
  44   21   42 1
  45   21   43 1

#	End of record

