#	Name: ASD02030660
#	Creating user name:	WinNT
#	Creation time:	15. 06. 2019 20:15

#	Modifying user name:	WinNT
#	Modification time:	15. 06. 2019 20:15

#	Program:	/corina/corina34_cracker 3.40 0067  02.08.2006

@<TRIPOS>MOLECULE
ASD02030660
  41   44    0    0    0
SMALL
NO_CHARGES


@<TRIPOS>ATOM
   1 C1            -0.1166     1.1906    -0.9036 C.2     
   2 N2            -0.0486    -0.0824    -0.4595 N.am    
   3 N3             2.2504    -0.1550    -0.9282 N.2     
   4 C4             2.2302     1.0914    -1.3735 C.2     
   5 C5             1.0485     1.8065    -1.3766 C.2     
   6 C6             1.1462    -0.7482    -0.4765 C.2     
   7 O7            -1.1782     1.7936    -0.8977 O.2     
   8 C8             3.4982     1.7312    -1.8772 C.3     
   9 N9             4.2427     2.2947    -0.7483 N.pl3   
  10 C10            4.9375     3.7257     0.7652 C.2     
  11 N11            4.1096     3.5929    -0.2392 N.2     
  12 C12            5.1739     1.6529    -0.0114 C.2     
  13 C13            5.6216     2.5171     0.9307 C.2     
  14 C14            5.1204     4.9661     1.6012 C.3     
  15 Cl15           5.7024     0.0139    -0.2313 Cl      
  16 F16            4.1841     5.9311     1.2150 F       
  17 F17            4.9345     4.6501     2.9513 F       
  18 F18            6.4125     5.4686     1.4136 F       
  19 C19           -1.1798    -0.7000     0.0069 C.2     
  20 C20           -1.1256    -1.9973     0.4627 C.2     
  21 C21            0.0880    -2.6895     0.4507 C.2     
  22 C22            1.2139    -2.0736    -0.0130 C.2     
  23 C23           -2.3731    -2.6702     0.9746 C.3     
  24 C24           -2.4637     0.0308     0.0207 C.ar    
  25 C25           -2.6617     1.1220     0.8752 C.ar    
  26 C26           -3.5149    -0.3446    -0.8243 C.ar    
  27 C27           -4.7916     1.3558     0.0459 C.ar    
  28 N28           -4.6459     0.3372    -0.7787 N.ar    
  29 N29           -3.8261     1.7466     0.8545 N.ar    
  30 H30            1.0235     2.8238    -1.7382 H       
  31 H31            4.1100     0.9805    -2.3775 H       
  32 H32            3.2497     2.5253    -2.5812 H       
  33 H33            6.3736     2.3095     1.6776 H       
  34 H34            0.1350    -3.7078     0.8076 H       
  35 H35            2.1548    -2.6037    -0.0252 H       
  36 H36           -2.9259    -3.0959     0.1372 H       
  37 H37           -2.0988    -3.4636     1.6699 H       
  38 H38           -2.9968    -1.9377     1.4869 H       
  39 H39           -1.8759     1.4477     1.5406 H       
  40 H40           -3.4030    -1.1775    -1.5027 H       
  41 H41           -5.7300     1.8902     0.0558 H       
@<TRIPOS>BOND
   1    1    2 am
   2    1    5 1
   3    1    7 2
   4    2    6 1
   5    2   19 1
   6    3    4 1
   7    3    6 2
   8    4    5 2
   9    4    8 1
  10    5   30 1
  11    6   22 1
  12    8    9 1
  13    8   31 1
  14    8   32 1
  15    9   12 1
  16    9   11 1
  17   10   11 2
  18   10   13 1
  19   10   14 1
  20   12   13 2
  21   12   15 1
  22   13   33 1
  23   14   16 1
  24   14   17 1
  25   14   18 1
  26   19   20 2
  27   19   24 1
  28   20   21 1
  29   20   23 1
  30   21   22 2
  31   21   34 1
  32   22   35 1
  33   23   36 1
  34   23   37 1
  35   23   38 1
  36   24   25 ar
  37   24   26 ar
  38   25   29 ar
  39   25   39 1
  40   26   28 ar
  41   26   40 1
  42   27   28 ar
  43   27   29 ar
  44   27   41 1

#	End of record

