#	Name: ASD07931694
#	Creating user name:	WinNT
#	Creation time:	15. 06. 2019 21:13

#	Modifying user name:	WinNT
#	Modification time:	15. 06. 2019 21:13

#	Program:	/corina/corina34_cracker 3.40 0067  02.08.2006

@<TRIPOS>MOLECULE
ASD07931694
  53   57    0    0    0
SMALL
NO_CHARGES


@<TRIPOS>ATOM
   1 C1             0.4251     6.1324     1.1831 C.2     
   2 C2            -0.3138     4.9833     1.2535 C.2     
   3 C3             0.3680     3.6949     1.1074 C.2     
   4 N4             1.6976     3.6726     0.9105 N.am    
   5 C5             2.4189     4.8430     0.8413 C.2     
   6 C6             1.8074     6.0516     0.9741 C.2     
   7 C7             2.4135     2.3978     0.7662 C.3     
   8 C8             3.4675     2.5662    -0.3382 C.3     
   9 N9             4.3893     3.6408     0.0565 N.am    
  10 C10            3.8793     4.7633     0.6174 C.2     
  11 C11            5.8325     3.5005    -0.1528 C.3     
  12 O12           -0.2639     2.6537     1.1643 O.2     
  13 N13           -1.6949     5.0375     1.4615 N.pl3   
  14 C14           -2.6278     5.5688     0.6082 C.2     
  15 C15           -2.3679     4.5683     2.5450 C.2     
  16 N16           -3.6410     4.8004     2.3758 N.2     
  17 C17           -3.8286     5.4128     1.1971 C.2     
  18 C18           -5.1544     5.8506     0.6299 C.3     
  19 O19            4.6064     5.6863     0.9300 O.2     
  20 C20            6.4441     2.6299     0.9588 C.3     
  21 C21            7.0668     1.4014     0.2640 C.3     
  22 C22            7.3360     1.8800    -1.1843 C.3     
  23 C23            6.1049     2.7707    -1.4843 C.3     
  24 C24            5.3700     2.1901     1.9200 C.ar    
  25 C25            4.7786     3.1115     2.7634 C.ar    
  26 C26            4.9730     0.8667     1.9534 C.ar    
  27 C27            3.7918     2.7085     3.6473 C.ar    
  28 C28            3.3974     1.3822     3.6856 C.ar    
  29 C29            3.9861     0.4614     2.8361 C.ar    
  30 F30            3.2146     3.6092     4.4723 F       
  31 F31            3.6018    -0.8333     2.8721 F       
  32 H32           -0.0547     7.0948     1.2836 H       
  33 H33            2.3937     6.9568     0.9175 H       
  34 H34            2.9026     2.1417     1.7061 H       
  35 H35            1.7121     1.6109     0.4890 H       
  36 H36            4.0213     1.6354    -0.4610 H       
  37 H37            2.9771     2.8301    -1.2752 H       
  38 H38            6.3055     4.4825    -0.1609 H       
  39 H39           -2.4361     6.0248    -0.3519 H       
  40 H40           -1.9237     4.0842     3.4022 H       
  41 H41           -5.3683     6.8699     0.9515 H       
  42 H42           -5.1137     5.8141    -0.4587 H       
  43 H43           -5.9399     5.1846     0.9868 H       
  44 H44            7.2146     3.1891     1.4897 H       
  45 H45            7.9997     1.1192     0.7521 H       
  46 H46            6.3664     0.5663     0.2659 H       
  47 H47            8.2557     2.4628    -1.2339 H       
  48 H48            7.3765     1.0333    -1.8696 H       
  49 H49            5.2490     2.1567    -1.7648 H       
  50 H50            6.3357     3.4878    -2.2721 H       
  51 H51            5.0865     4.1463     2.7334 H       
  52 H52            5.4325     0.1484     1.2905 H       
  53 H53            2.6279     1.0669     4.3746 H       
@<TRIPOS>BOND
   1    1    2 2
   2    1    6 1
   3    1   32 1
   4    2    3 1
   5    2   13 1
   6    3    4 am
   7    3   12 2
   8    4    5 1
   9    4    7 1
  10    5    6 2
  11    5   10 1
  12    6   33 1
  13    7    8 1
  14    7   34 1
  15    7   35 1
  16    8    9 1
  17    8   36 1
  18    8   37 1
  19    9   10 am
  20    9   11 1
  21   10   19 2
  22   11   20 1
  23   11   23 1
  24   11   38 1
  25   13   14 1
  26   13   15 1
  27   14   17 2
  28   14   39 1
  29   15   16 2
  30   15   40 1
  31   16   17 1
  32   17   18 1
  33   18   41 1
  34   18   42 1
  35   18   43 1
  36   20   21 1
  37   20   24 1
  38   20   44 1
  39   21   22 1
  40   21   45 1
  41   21   46 1
  42   22   23 1
  43   22   47 1
  44   22   48 1
  45   23   49 1
  46   23   50 1
  47   24   25 ar
  48   24   26 ar
  49   25   27 ar
  50   25   51 1
  51   26   29 ar
  52   26   52 1
  53   27   28 ar
  54   27   30 1
  55   28   29 ar
  56   28   53 1
  57   29   31 1

#	End of record

