#	Name: ASD01917208
#	Creating user name:	WinNT
#	Creation time:	15. 06. 2019 20:08

#	Modifying user name:	WinNT
#	Modification time:	15. 06. 2019 20:08

#	Program:	/corina/corina34_cracker 3.40 0067  02.08.2006

@<TRIPOS>MOLECULE
ASD01917208
  40   43    0    0    0
SMALL
NO_CHARGES


@<TRIPOS>ATOM
   1 C1            -0.0601     1.4483     0.1024 C.2     
   2 C2            -0.0187    -0.0232     0.1043 C.2     
   3 N3             1.0942     2.1901    -0.0136 N.pl3   
   4 N4             1.2088    -0.5895     0.1921 N.am    
   5 C5             2.3941     0.1947     0.5209 C.3     
   6 C6             2.4058     1.5587    -0.1696 C.3     
   7 N7             0.7399     3.5321     0.0367 N.2     
   8 C8            -0.5685     3.6174     0.1613 C.2     
   9 C9            -1.1024     2.3222     0.2065 C.2     
  10 O10           -1.0309    -0.6937     0.0314 O.2     
  11 C11            1.3427    -1.9569    -0.0371 C.ar    
  12 C12            1.5949    -2.4180    -1.3244 C.ar    
  13 C13            1.7258    -3.7788    -1.5388 C.ar    
  14 C14            1.5995    -4.6355    -0.4541 C.ar    
  15 C15            1.3486    -4.1084     0.7986 C.ar    
  16 N16            1.2340    -2.8050     0.9735 N.ar    
  17 Br17           1.1745    -5.2683     2.2819 Br      
  18 O18           -1.2834     4.7720     0.2364 O.3     
  19 C19           -0.5480     5.9956     0.1739 C.3     
  20 C20           -1.5002     7.1595     0.2717 C.ar    
  21 C21           -1.8236     7.6861     1.5083 C.ar    
  22 C22           -2.6971     8.7537     1.5979 C.ar    
  23 C23           -3.2469     9.2951     0.4510 C.ar    
  24 C24           -2.9229     8.7691    -0.7857 C.ar    
  25 C25           -2.0460     7.7043    -0.8756 C.ar    
  26 H26            2.4286     0.3454     1.5998 H       
  27 H27            3.2804    -0.3619     0.2164 H       
  28 H28            2.6232     1.4284    -1.2297 H       
  29 H29            3.1698     2.1898     0.2844 H       
  30 H30           -2.1464     2.0638     0.3046 H       
  31 H31            1.6871    -1.7233    -2.1462 H       
  32 H32            1.9215    -4.1656    -2.5280 H       
  33 H33            1.6959    -5.7028    -0.5876 H       
  34 H34            0.1612     6.0359     1.0007 H       
  35 H35           -0.0074     6.0468    -0.7712 H       
  36 H36           -1.3940     7.2631     2.4043 H       
  37 H37           -2.9503     9.1646     2.5641 H       
  38 H38           -3.9299    10.1287     0.5211 H       
  39 H39           -3.3527     9.1919    -1.6817 H       
  40 H40           -1.7899     7.2958    -1.8420 H       
@<TRIPOS>BOND
   1    1    2 1
   2    1    3 1
   3    1    9 2
   4    2    4 am
   5    2   10 2
   6    3    6 1
   7    3    7 1
   8    4    5 1
   9    4   11 1
  10    5    6 1
  11    5   26 1
  12    5   27 1
  13    6   28 1
  14    6   29 1
  15    7    8 2
  16    8    9 1
  17    8   18 1
  18    9   30 1
  19   11   12 ar
  20   11   16 ar
  21   12   13 ar
  22   12   31 1
  23   13   14 ar
  24   13   32 1
  25   14   15 ar
  26   14   33 1
  27   15   16 ar
  28   15   17 1
  29   18   19 1
  30   19   20 1
  31   19   34 1
  32   19   35 1
  33   20   21 ar
  34   20   25 ar
  35   21   22 ar
  36   21   36 1
  37   22   23 ar
  38   22   37 1
  39   23   24 ar
  40   23   38 1
  41   24   25 ar
  42   24   39 1
  43   25   40 1

#	End of record

