#	Name: ASD01028608
#	Creating user name:	WinNT
#	Creation time:	15. 06. 2019 18:57

#	Modifying user name:	WinNT
#	Modification time:	15. 06. 2019 18:57

#	Program:	/corina/corina34_cracker 3.40 0067  02.08.2006

@<TRIPOS>MOLECULE
ASD01028608
  24   25    0    0    0
SMALL
NO_CHARGES


@<TRIPOS>ATOM
   1 N1            -0.0164     1.3618     0.0095 N.pl3   
   2 N2             0.0021    -0.0041     0.0020 N.3     
   3 C3             1.1771     2.0727     0.0020 C.ar    
   4 C4             1.1475     3.4675     0.0097 C.ar    
   5 C5             2.3383     4.1669     0.0021 C.ar    
   6 C6             3.5378     3.4400    -0.0132 C.ar    
   7 C7             3.4853     2.0471    -0.0202 C.ar    
   8 N8             2.3278     1.4174    -0.0071 N.ar    
   9 O9             5.0400     5.4707    -0.0172 O.3     
  10 N10            6.2187     5.7390    -0.0270 N.2     
  11 C11            6.9616     4.6685    -0.0399 C.2     
  12 C12            6.0816     3.5676    -0.0374 C.2     
  13 C13            4.8384     4.1408    -0.0224 C.2     
  14 C14            8.4676     4.6176    -0.0551 C.3     
  15 F15           -0.0320     4.1262     0.0241 F       
  16 H16           -0.8630     1.8353     0.0161 H       
  17 H17            0.5405    -0.3627     0.7764 H       
  18 H18           -0.9349    -0.3784     0.0090 H       
  19 H19            2.3458     5.2468     0.0075 H       
  20 H20            4.4031     1.4779    -0.0324 H       
  21 H21            6.3301     2.5166    -0.0457 H       
  22 H22            8.8409     4.5996     0.9689 H       
  23 H23            8.7956     3.7187    -0.5772 H       
  24 H24            8.8558     5.4977    -0.5678 H       
@<TRIPOS>BOND
   1    1    2 1
   2    1    3 1
   3    1   16 1
   4    2   17 1
   5    2   18 1
   6    3    4 ar
   7    3    8 ar
   8    4    5 ar
   9    4   15 1
  10    5    6 ar
  11    5   19 1
  12    6    7 ar
  13    6   13 1
  14    7    8 ar
  15    7   20 1
  16    9   10 1
  17    9   13 1
  18   10   11 2
  19   11   12 1
  20   11   14 1
  21   12   13 2
  22   12   21 1
  23   14   22 1
  24   14   23 1
  25   14   24 1

#	End of record

