#	Name: ASD02039273
#	Creating user name:	WinNT
#	Creation time:	15. 06. 2019 20:18

#	Modifying user name:	WinNT
#	Modification time:	15. 06. 2019 20:18

#	Program:	/corina/corina34_cracker 3.40 0067  02.08.2006

@<TRIPOS>MOLECULE
ASD02039273
  47   49    0    0    0
SMALL
NO_CHARGES


@<TRIPOS>ATOM
   1 C1            -0.0488     0.7634    -0.4190 C.ar    
   2 C2             0.3486    -0.5658    -0.3990 C.ar    
   3 C3            -0.5912    -1.5579    -0.6109 C.ar    
   4 N4            -1.8547    -1.2568    -0.8306 N.ar    
   5 C5            -2.2754     0.0013    -0.8577 C.ar    
   6 C6            -1.3837     1.0506    -0.6470 C.ar    
   7 C7            -3.7081     0.2926    -1.1089 C.ar    
   8 C8            -4.6082    -0.7510    -1.3155 C.ar    
   9 C9            -5.9401    -0.4741    -1.5483 C.ar    
  10 C10           -6.3820     0.8363    -1.5771 C.ar    
  11 C11           -5.4930     1.8761    -1.3727 C.ar    
  12 C12           -4.1599     1.6107    -1.1334 C.ar    
  13 C13            0.9492     1.8694    -0.1915 C.3     
  14 N14            1.5221     2.2819    -1.4751 N.am    
  15 C15            0.8860     3.3486    -2.2522 C.3     
  16 C16            2.6344     1.6802    -1.9412 C.2     
  17 C17            3.1518     2.0218    -3.2776 C.2     
  18 C18            4.1875     1.4107    -3.9218 C.2     
  19 C19            1.5841     4.6783    -1.9600 C.3     
  20 N20            2.6808     2.9981    -4.0950 N.2     
  21 C21            3.3839     3.0054    -5.1905 C.2     
  22 N22            4.3287     2.0320    -5.1163 N.pl3   
  23 O23            3.2111     0.8553    -1.2584 O.2     
  24 C24            5.3226     1.7126    -6.1440 C.3     
  25 C25            0.9197     5.7922    -2.7716 C.3     
  26 H26            1.3822    -0.8231    -0.2201 H       
  27 H27           -0.2851    -2.5935    -0.5963 H       
  28 H28           -1.7276     2.0741    -0.6690 H       
  29 H29           -4.2641    -1.7745    -1.2939 H       
  30 H30           -6.6386    -1.2821    -1.7085 H       
  31 H31           -7.4250     1.0484    -1.7603 H       
  32 H32           -5.8434     2.8974    -1.3963 H       
  33 H33           -3.4666     2.4233    -0.9739 H       
  34 H34            0.4499     2.7194     0.2735 H       
  35 H35            1.7442     1.5124     0.4633 H       
  36 H36            0.9670     3.1215    -3.3152 H       
  37 H37           -0.1658     3.4219    -1.9755 H       
  38 H38            4.7814     0.5889    -3.5499 H       
  39 H39            1.5030     4.9053    -0.8970 H       
  40 H40            2.6358     4.6050    -2.2367 H       
  41 H41            3.2377     3.6751    -6.0251 H       
  42 H42            6.2237     2.3018    -5.9736 H       
  43 H43            5.5676     0.6516    -6.0953 H       
  44 H44            4.9160     1.9468    -7.1279 H       
  45 H45            1.4171     6.7395    -2.5635 H       
  46 H46            1.0008     5.5652    -3.8346 H       
  47 H47           -0.1320     5.8655    -2.4949 H       
@<TRIPOS>BOND
   1    1    2 ar
   2    1   13 1
   3    1    6 ar
   4    2    3 ar
   5    2   26 1
   6    3    4 ar
   7    3   27 1
   8    4    5 ar
   9    5    6 ar
  10    5    7 1
  11    6   28 1
  12    7    8 ar
  13    7   12 ar
  14    8    9 ar
  15    8   29 1
  16    9   10 ar
  17    9   30 1
  18   10   11 ar
  19   10   31 1
  20   11   12 ar
  21   11   32 1
  22   12   33 1
  23   13   14 1
  24   13   34 1
  25   13   35 1
  26   14   15 1
  27   14   16 am
  28   15   19 1
  29   15   36 1
  30   15   37 1
  31   16   17 1
  32   16   23 2
  33   17   18 2
  34   17   20 1
  35   18   22 1
  36   18   38 1
  37   19   25 1
  38   19   39 1
  39   19   40 1
  40   20   21 2
  41   21   22 1
  42   21   41 1
  43   22   24 1
  44   24   42 1
  45   24   43 1
  46   24   44 1
  47   25   45 1
  48   25   46 1
  49   25   47 1

#	End of record

