#	Name: ASD01948021
#	Creating user name:	WinNT
#	Creation time:	15. 06. 2019 20:13

#	Modifying user name:	WinNT
#	Modification time:	15. 06. 2019 20:13

#	Program:	/corina/corina34_cracker 3.40 0067  02.08.2006

@<TRIPOS>MOLECULE
ASD01948021
  45   48    0    0    0
SMALL
NO_CHARGES


@<TRIPOS>ATOM
   1 C1            -0.3391     1.6825     0.8422 C.3     
   2 C2            -0.7554     0.2483     1.1748 C.3     
   3 C3             0.7133     0.5732     0.8949 C.3     
   4 S4            -0.7935     2.3292    -0.7906 S.o2    
   5 O5             0.1646     1.9400    -1.7653 O.2     
   6 O6            -2.1852     2.1618    -1.0236 O.2     
   7 N7            -0.5962     3.9678    -0.6556 N.am    
   8 C8             1.7816     3.6734    -0.3036 C.2     
   9 C9             0.6954     4.5120    -0.4970 C.2     
  10 C10            0.8804     5.9017    -0.5356 C.2     
  11 C11            2.1624     6.4163    -0.3771 C.2     
  12 C12            3.2255     5.5410    -0.1847 C.2     
  13 N13            3.0270     4.2065    -0.1507 N.am    
  14 N14            1.7935     2.2922    -0.2321 N.pl3   
  15 C15            3.1688     1.8304    -0.0178 C.3     
  16 C16            4.0030     3.1201     0.0385 C.3     
  17 O17            4.3554     5.9863    -0.0450 O.2     
  18 C18            2.3969     7.9045    -0.4137 C.3     
  19 N19           -0.1996     6.7504    -0.7296 N.pl3   
  20 C20           -0.9559     6.6632    -1.9036 C.ar    
  21 C21           -2.1193     7.4138    -2.0408 C.ar    
  22 C22           -2.8637     7.3248    -3.2022 C.ar    
  23 C23           -2.4521     6.4903    -4.2268 C.ar    
  24 C24           -1.2960     5.7431    -4.0920 C.ar    
  25 C25           -0.5441     5.8321    -2.9361 C.ar    
  26 F26           -2.5211     8.2279    -1.0403 F       
  27 Br27          -3.4729     6.3711    -5.8142 Br      
  28 H28           -0.3452     2.4095     1.6543 H       
  29 H29           -1.0353     0.0317     2.2058 H       
  30 H30           -1.3022    -0.3067     0.4126 H       
  31 H31            1.1326     0.2320    -0.0516 H       
  32 H32            1.3996     0.5704     1.7416 H       
  33 H33           -1.3689     4.5535    -0.6855 H       
  34 H34            1.0148     1.7192    -0.3112 H       
  35 H35            3.2460     1.2897     0.9255 H       
  36 H36            3.4920     1.2001    -0.8463 H       
  37 H37            4.7430     3.1310    -0.7618 H       
  38 H38            4.4906     3.2125     1.0089 H       
  39 H39            2.3961     8.2975     0.6030 H       
  40 H40            3.3598     8.1092    -0.8817 H       
  41 H41            1.6043     8.3831    -0.9889 H       
  42 H42           -0.4306     7.4043    -0.0513 H       
  43 H43           -3.7673     7.9066    -3.3100 H       
  44 H44           -0.9782     5.0924    -4.8932 H       
  45 H45            0.3610     5.2517    -2.8342 H       
@<TRIPOS>BOND
   1    1    2 1
   2    1    3 1
   3    1    4 1
   4    1   28 1
   5    2    3 1
   6    2   29 1
   7    2   30 1
   8    3   31 1
   9    3   32 1
  10    4    5 2
  11    4    6 2
  12    4    7 am
  13    7    9 1
  14    7   33 1
  15    8    9 2
  16    8   13 1
  17    8   14 1
  18    9   10 1
  19   10   11 2
  20   10   19 1
  21   11   12 1
  22   11   18 1
  23   12   13 am
  24   12   17 2
  25   13   16 1
  26   14   15 1
  27   14   34 1
  28   15   16 1
  29   15   35 1
  30   15   36 1
  31   16   37 1
  32   16   38 1
  33   18   39 1
  34   18   40 1
  35   18   41 1
  36   19   20 1
  37   19   42 1
  38   20   21 ar
  39   20   25 ar
  40   21   22 ar
  41   21   26 1
  42   22   23 ar
  43   22   43 1
  44   23   24 ar
  45   23   27 1
  46   24   25 ar
  47   24   44 1
  48   25   45 1

#	End of record

