#	Name: ASD02038383
#	Creating user name:	WinNT
#	Creation time:	15. 06. 2019 20:16

#	Modifying user name:	WinNT
#	Modification time:	15. 06. 2019 20:16

#	Program:	/corina/corina34_cracker 3.40 0067  02.08.2006

@<TRIPOS>MOLECULE
ASD02038383
  50   53    0    0    0
SMALL
NO_CHARGES


@<TRIPOS>ATOM
   1 N1            -0.0162     1.3436     0.0094 N.am    
   2 C2             0.0021    -0.0041     0.0020 C.2     
   3 C3            -1.2926    -0.7753     0.0102 C.3     
   4 C4            -0.9927    -2.2755    -0.0007 C.3     
   5 O5            -2.2204    -3.0068     0.0071 O.3     
   6 C6            -2.1308    -4.3635    -0.0010 C.ar    
   7 C7            -3.2828    -5.1383     0.0058 C.ar    
   8 C8             1.2357     2.1156     0.0016 C.3     
   9 C9             1.1612     3.1524    -1.1243 C.3     
  10 N10           -0.0610     3.9524    -0.9688 N.3     
  11 C11           -1.2637     3.1194    -1.1013 C.3     
  12 C12           -1.2886     2.0812     0.0194 C.3     
  13 C13           -0.0841     5.0139    -1.8784 C.ar    
  14 C14           -1.1594     5.8928    -1.8941 C.ar    
  15 C15           -1.1798     6.9419    -2.7948 C.ar    
  16 C16           -0.1275     7.1154    -3.6816 C.ar    
  17 C17            0.9440     6.2399    -3.6661 C.ar    
  18 C18            0.9707     5.1941    -2.7633 C.ar    
  19 F19           -0.1488     8.1401    -4.5618 F       
  20 O20            1.0605    -0.5961    -0.0113 O.2     
  21 C21           -0.8878    -4.9796    -0.0220 C.ar    
  22 C22           -0.7929    -6.3553    -0.0313 C.ar    
  23 C23           -1.9460    -7.1377    -0.0196 C.ar    
  24 C24           -3.1856    -6.5115    -0.0030 C.ar    
  25 N25           -2.1069    -8.5258    -0.0253 N.am    
  26 C26           -3.4009    -8.8873    -0.0087 C.2     
  27 C27           -4.2194    -7.6140     0.0069 C.3     
  28 O28           -3.8322   -10.0210    -0.0094 O.2     
  29 F29           -2.2251     7.7976    -2.8114 F       
  30 H30           -1.8592    -0.5245     0.9070 H       
  31 H31           -1.8762    -0.5150    -0.8728 H       
  32 H32           -0.4261    -2.5263    -0.8975 H       
  33 H33           -0.4091    -2.5358     0.8824 H       
  34 H34           -4.2533    -4.6647     0.0184 H       
  35 H35            1.3592     2.6225     0.9586 H       
  36 H36            2.0778     1.4458    -0.1725 H       
  37 H37            2.0323     3.8057    -1.0753 H       
  38 H38            1.1421     2.6426    -2.0875 H       
  39 H39           -2.1512     3.7488    -1.0356 H       
  40 H40           -1.2490     2.6100    -2.0648 H       
  41 H41           -2.1158     1.3897    -0.1405 H       
  42 H42           -1.4069     2.5823     0.9801 H       
  43 H43           -1.9789     5.7568    -1.2039 H       
  44 H44            1.7624     6.3767    -4.3574 H       
  45 H45            1.8075     4.5115    -2.7522 H       
  46 H46            0.0096    -4.3789    -0.0315 H       
  47 H47            0.1781    -6.8279    -0.0480 H       
  48 H48           -1.3694    -9.1558    -0.0398 H       
  49 H49           -4.8253    -7.5607     0.9114 H       
  50 H50           -4.8500    -7.5545    -0.8802 H       
@<TRIPOS>BOND
   1    1    2 am
   2    1    8 1
   3    1   12 1
   4    2   20 2
   5    2    3 1
   6    3    4 1
   7    3   30 1
   8    3   31 1
   9    4    5 1
  10    4   32 1
  11    4   33 1
  12    5    6 1
  13    6    7 ar
  14    6   21 ar
  15    7   24 ar
  16    7   34 1
  17    8    9 1
  18    8   35 1
  19    8   36 1
  20    9   10 1
  21    9   37 1
  22    9   38 1
  23   10   11 1
  24   10   13 1
  25   11   12 1
  26   11   39 1
  27   11   40 1
  28   12   41 1
  29   12   42 1
  30   13   14 ar
  31   13   18 ar
  32   14   15 ar
  33   14   43 1
  34   15   16 ar
  35   15   29 1
  36   16   17 ar
  37   16   19 1
  38   17   18 ar
  39   17   44 1
  40   18   45 1
  41   21   22 ar
  42   21   46 1
  43   22   23 ar
  44   22   47 1
  45   23   24 ar
  46   23   25 1
  47   24   27 1
  48   25   26 am
  49   25   48 1
  50   26   27 1
  51   26   28 2
  52   27   49 1
  53   27   50 1

#	End of record

