#	Name: ASD02560195
#	Creating user name:	WinNT
#	Creation time:	15. 06. 2019 20:24

#	Modifying user name:	WinNT
#	Modification time:	15. 06. 2019 20:24

#	Program:	/corina/corina34_cracker 3.40 0067  02.08.2006

@<TRIPOS>MOLECULE
ASD02560195
  70   74    0    0    0
SMALL
NO_CHARGES


@<TRIPOS>ATOM
   1 C1            -1.0925    -0.4259     0.3454 C.2     
   2 Br2          -14.8979    10.6080    -0.7622 Br      
   3 N3           -12.4918    10.5329     0.7338 N.2     
   4 N4           -12.3065     9.4712     1.3366 N.2     
   5 C5           -12.9617    10.2909    -0.6364 C.3     
   6 N6           -12.6540     8.8615    -0.8951 N.3     
   7 C7           -12.6170     8.3155     0.4852 C.3     
   8 S8           -11.3196     7.0562     0.6317 S.3     
   9 C9            -9.8112     7.9740     0.2160 C.3     
  10 C10           -8.6233     7.0498     0.2939 C.2     
  11 O11           -8.7790     5.8866     0.5997 O.2     
  12 N12           -7.3880     7.5160     0.0236 N.am    
  13 C13          -13.6644     8.2607    -1.6427 C.ar    
  14 C14           -6.2811     6.6783     0.1603 C.ar    
  15 C15           -5.0467     7.2116     0.5223 C.ar    
  16 C16           -3.9519     6.3866     0.6580 C.ar    
  17 C17           -4.0817     5.0134     0.4318 C.ar    
  18 C18           -5.3219     4.4823     0.0687 C.ar    
  19 C19           -6.4139     5.3116    -0.0598 C.ar    
  20 Cl20          -4.8873     8.9174     0.8024 Cl      
  21 C21           -2.9108     4.1263     0.5757 C.2     
  22 C22          -13.9817     8.7447    -2.9300 C.ar    
  23 C23          -14.3598     7.1841    -1.1342 C.ar    
  24 C24          -15.3706     6.5770    -1.8728 C.ar    
  25 C25          -15.7008     7.0267    -3.1151 C.ar    
  26 C26          -15.0130     8.1180    -3.6721 C.ar    
  27 C27          -13.2955     9.8346    -3.4880 C.ar    
  28 C28          -15.3329     8.6038    -4.9519 C.ar    
  29 C29          -14.6467     9.6632    -5.4610 C.ar    
  30 C30          -13.6285    10.2752    -4.7326 C.ar    
  31 C31          -16.7994     6.3506    -3.8942 C.3     
  32 N32           -3.0375     2.8024     0.3572 N.am    
  33 O33           -1.8320     4.5899     0.8913 O.2     
  34 C34           -1.8753     1.9220     0.5000 C.3     
  35 C35           -2.2880     0.4798     0.1985 C.3     
  36 C36          -16.6230     4.8666    -4.2217 C.3     
  37 C37          -17.6401     5.3010    -3.1646 C.3     
  38 O38           -1.2187    -1.7444     0.1277 O.3     
  39 O39           -0.0194     0.0355     0.6542 O.2     
  40 C40           -0.0240    -2.5552     0.2816 C.3     
  41 C41           -0.3613    -4.0198    -0.0047 C.3     
  42 H42          -12.4254    10.9279    -1.3397 H       
  43 H43          -13.5865     7.8959     0.7535 H       
  44 H44           -9.8955     8.3729    -0.7949 H       
  45 H45           -9.6796     8.7950     0.9208 H       
  46 H46           -7.2686     8.4341    -0.2659 H       
  47 H47           -2.9945     6.8003     0.9385 H       
  48 H48           -5.4251     3.4217    -0.1068 H       
  49 H49           -7.3727     4.9012    -0.3401 H       
  50 H50          -14.1168     6.8076    -0.1515 H       
  51 H51          -15.9019     5.7350    -1.4542 H       
  52 H52          -12.5074    10.3215    -2.9328 H       
  53 H53          -16.1188     8.1386    -5.5283 H       
  54 H54          -14.8944    10.0345    -6.4444 H       
  55 H55          -13.0996    11.1146    -5.1591 H       
  56 H56          -17.3024     6.9730    -4.6344 H       
  57 H57           -3.8981     2.4326     0.1053 H       
  58 H58           -1.0975     2.2309    -0.1983 H       
  59 H59           -1.4946     1.9854     1.5193 H       
  60 H60           -2.6688     0.4165    -0.8209 H       
  61 H61           -3.0659     0.1709     0.8967 H       
  62 H62          -17.0102     4.5125    -5.1771 H       
  63 H63          -15.7123     4.3791    -3.8736 H       
  64 H64          -17.3986     5.0994    -2.1209 H       
  65 H65          -18.6965     5.2328    -3.4245 H       
  66 H66            0.7389    -2.2145    -0.4183 H       
  67 H67            0.3501    -2.4611     1.3011 H       
  68 H68            0.5355    -4.6285     0.1108 H       
  69 H69           -1.1243    -4.3605     0.6952 H       
  70 H70           -0.7355    -4.1139    -1.0242 H       
@<TRIPOS>BOND
   1    1   38 1
   2    1   39 2
   3    1   35 1
   4    2    5 1
   5    3    4 2
   6    3    5 1
   7    4    7 1
   8    5    6 1
   9    5   42 1
  10    6    7 1
  11    6   13 1
  12    7    8 1
  13    7   43 1
  14    8    9 1
  15    9   10 1
  16    9   44 1
  17    9   45 1
  18   10   11 2
  19   10   12 am
  20   12   14 1
  21   12   46 1
  22   13   22 ar
  23   13   23 ar
  24   14   15 ar
  25   14   19 ar
  26   15   16 ar
  27   15   20 1
  28   16   17 ar
  29   16   47 1
  30   17   18 ar
  31   17   21 1
  32   18   19 ar
  33   18   48 1
  34   19   49 1
  35   21   32 am
  36   21   33 2
  37   22   26 ar
  38   22   27 ar
  39   23   24 ar
  40   23   50 1
  41   24   25 ar
  42   24   51 1
  43   25   26 ar
  44   25   31 1
  45   26   28 ar
  46   27   30 ar
  47   27   52 1
  48   28   29 ar
  49   28   53 1
  50   29   30 ar
  51   29   54 1
  52   30   55 1
  53   31   36 1
  54   31   37 1
  55   31   56 1
  56   32   34 1
  57   32   57 1
  58   34   35 1
  59   34   58 1
  60   34   59 1
  61   35   60 1
  62   35   61 1
  63   36   37 1
  64   36   62 1
  65   36   63 1
  66   37   64 1
  67   37   65 1
  68   38   40 1
  69   40   41 1
  70   40   66 1
  71   40   67 1
  72   41   68 1
  73   41   69 1
  74   41   70 1

#	End of record

