#	Name: ASD01813503
#	Creating user name:	WinNT
#	Creation time:	15. 06. 2019 19:30

#	Modifying user name:	WinNT
#	Modification time:	15. 06. 2019 19:30

#	Program:	/corina/corina34_cracker 3.40 0067  02.08.2006

@<TRIPOS>MOLECULE
ASD01813503
  46   49    0    0    0
SMALL
NO_CHARGES


@<TRIPOS>ATOM
   1 C1            -0.0168     1.3834    -0.0465 C.ar    
   2 C2             0.0020    -0.0038    -0.0535 C.ar    
   3 C3             1.1976    -0.6920    -0.0502 C.ar    
   4 C4             2.4035     0.0084    -0.0395 C.ar    
   5 C5             2.3796     1.4130    -0.0324 C.ar    
   6 C6             1.1627     2.0947    -0.0359 C.ar    
   7 N7             3.6056    -0.6668    -0.0350 N.pl3   
   8 C8             4.7891    -0.0410    -0.0235 C.2     
   9 C9             4.8932     1.3356    -0.0152 C.2     
  10 C10            3.6619     2.1417    -0.0212 C.2     
  11 O11            3.7002     3.3596    -0.0146 O.2     
  12 C12            6.2115     1.9851    -0.0016 C.2     
  13 O13            6.3001     3.3303     0.0063 O.3     
  14 O14            7.2221     1.3094     0.0024 O.2     
  15 C15            3.5871    -2.1316    -0.0427 C.3     
  16 C16            3.4445    -2.6248    -1.4595 C.ar    
  17 N17            2.2428    -2.7288    -1.9929 N.ar    
  18 C18            2.0643    -3.1541    -3.2270 C.ar    
  19 C19            3.1535    -3.5124    -4.0180 C.ar    
  20 C20            4.4403    -3.4133    -3.4815 C.ar    
  21 C21            4.5764    -2.9558    -2.1823 C.ar    
  22 C22            2.9508    -3.9921    -5.4075 C.ar    
  23 F23            1.2003    -2.0430    -0.0567 F       
  24 C24            2.0283    -5.0023    -5.6708 C.ar    
  25 C25            1.8434    -5.4444    -6.9654 C.ar    
  26 C26            2.5720    -4.8864    -8.0000 C.ar    
  27 C27            3.4897    -3.8833    -7.7442 C.ar    
  28 C28            3.6784    -3.4297    -6.4546 C.ar    
  29 C29            1.2341    -5.6117    -4.5444 C.3     
  30 H30           -0.9608     1.9082    -0.0538 H       
  31 H31           -0.9293    -0.5507    -0.0614 H       
  32 H32            1.1454     3.1745    -0.0308 H       
  33 H33            5.6925    -0.6328    -0.0202 H       
  34 H34            7.1887     3.7117     0.0152 H       
  35 H35            4.5175    -2.5090     0.3815 H       
  36 H36            2.7459    -2.4875     0.5522 H       
  37 H37            1.0644    -3.2258    -3.6289 H       
  38 H38            5.3066    -3.6829    -4.0673 H       
  39 H39            5.5553    -2.8662    -1.7349 H       
  40 H40            1.1288    -6.2278    -7.1706 H       
  41 H41            2.4242    -5.2353    -9.0114 H       
  42 H42            4.0563    -3.4513    -8.5559 H       
  43 H43            4.3951    -2.6466    -6.2560 H       
  44 H44            0.3082    -5.0526    -4.4087 H       
  45 H45            1.0003    -6.6489    -4.7842 H       
  46 H46            1.8192    -5.5742    -3.6255 H       
@<TRIPOS>BOND
   1    1    2 ar
   2    1    6 ar
   3    1   30 1
   4    2    3 ar
   5    2   31 1
   6    3    4 ar
   7    3   23 1
   8    4    5 ar
   9    4    7 1
  10    5    6 ar
  11    5   10 1
  12    6   32 1
  13    7    8 1
  14    7   15 1
  15    8    9 2
  16    8   33 1
  17    9   10 1
  18    9   12 1
  19   10   11 2
  20   12   13 1
  21   12   14 2
  22   13   34 1
  23   15   16 1
  24   15   35 1
  25   15   36 1
  26   16   17 ar
  27   16   21 ar
  28   17   18 ar
  29   18   19 ar
  30   18   37 1
  31   19   20 ar
  32   19   22 1
  33   20   21 ar
  34   20   38 1
  35   21   39 1
  36   22   24 ar
  37   22   28 ar
  38   24   25 ar
  39   24   29 1
  40   25   26 ar
  41   25   40 1
  42   26   27 ar
  43   26   41 1
  44   27   28 ar
  45   27   42 1
  46   28   43 1
  47   29   44 1
  48   29   45 1
  49   29   46 1

#	End of record

