#	Name: ASD01908220
#	Creating user name:	WinNT
#	Creation time:	15. 06. 2019 19:54

#	Modifying user name:	WinNT
#	Modification time:	15. 06. 2019 19:54

#	Program:	/corina/corina34_cracker 3.40 0067  02.08.2006

@<TRIPOS>MOLECULE
ASD01908220
  41   43    0    0    0
SMALL
NO_CHARGES


@<TRIPOS>ATOM
   1 C1             0.9851     3.1571     0.7505 C.ar    
   2 C2             2.0488     3.6072     1.5298 C.ar    
   3 C3             3.2479     2.9133     1.4973 C.ar    
   4 C4             3.3417     1.7928     0.6864 C.ar    
   5 C5             2.2432     1.4021    -0.0621 C.ar    
   6 N6             1.1167     2.0791    -0.0126 N.ar    
   7 C7            -0.3052     3.8841     0.7787 C.2     
   8 O8            -0.4327     4.8687     1.4794 O.2     
   9 N9            -1.3378     3.4535     0.0271 N.am    
  10 C10           -2.5839     4.0799     0.1266 C.ar    
  11 C11           -2.6583     5.4500     0.3374 C.ar    
  12 C12           -3.8952     6.0672     0.4350 C.ar    
  13 C13           -5.0562     5.3148     0.3219 C.ar    
  14 C14           -4.9804     3.9511     0.1127 C.ar    
  15 C15           -3.7492     3.3329     0.0091 C.ar    
  16 O16           -3.9714     7.4082     0.6417 O.3     
  17 C17           -5.2791     7.9774     0.7320 C.3     
  18 C18           -5.1658     9.4626     0.9606 C.2     
  19 O19           -4.0730     9.9825     1.0384 O.2     
  20 C20           -6.3806    10.2816     1.0892 C.ar    
  21 C21           -6.2797    11.6619     1.3016 C.ar    
  22 C22           -7.4254    12.4229     1.4207 C.ar    
  23 C23           -8.6696    11.8248     1.3306 C.ar    
  24 C24           -8.7769    10.4606     1.1212 C.ar    
  25 C25           -7.6430     9.6869     0.9943 C.ar    
  26 Cl26          -4.7192    12.4138     1.4154 Cl      
  27 H27            1.9405     4.4847     2.1500 H       
  28 H28            4.0903     3.2382     2.0900 H       
  29 H29            4.2623     1.2301     0.6383 H       
  30 H30            2.3130     0.5299    -0.6952 H       
  31 H31           -1.2165     2.7091    -0.5828 H       
  32 H32           -1.7539     6.0337     0.4254 H       
  33 H33           -6.0202     5.7960     0.3980 H       
  34 H34           -5.8853     3.3681     0.0254 H       
  35 H35           -3.6927     2.2675    -0.1590 H       
  36 H36           -5.8206     7.7928    -0.1958 H       
  37 H37           -5.8170     7.5218     1.5634 H       
  38 H38           -7.3502    13.4877     1.5849 H       
  39 H39           -9.5622    12.4254     1.4246 H       
  40 H40           -9.7521    10.0016     1.0525 H       
  41 H41           -7.7292     8.6235     0.8264 H       
@<TRIPOS>BOND
   1    1    2 ar
   2    1    6 ar
   3    1    7 1
   4    2    3 ar
   5    2   27 1
   6    3    4 ar
   7    3   28 1
   8    4    5 ar
   9    4   29 1
  10    5    6 ar
  11    5   30 1
  12    7    8 2
  13    7    9 am
  14    9   10 1
  15    9   31 1
  16   10   11 ar
  17   10   15 ar
  18   11   12 ar
  19   11   32 1
  20   12   13 ar
  21   12   16 1
  22   13   14 ar
  23   13   33 1
  24   14   15 ar
  25   14   34 1
  26   15   35 1
  27   16   17 1
  28   17   18 1
  29   17   36 1
  30   17   37 1
  31   18   19 2
  32   18   20 1
  33   20   21 ar
  34   20   25 ar
  35   21   22 ar
  36   21   26 1
  37   22   23 ar
  38   22   38 1
  39   23   24 ar
  40   23   39 1
  41   24   25 ar
  42   24   40 1
  43   25   41 1

#	End of record

