#	Name: ASD01811702
#	Creating user name:	WinNT
#	Creation time:	15. 06. 2019 19:27

#	Modifying user name:	WinNT
#	Modification time:	15. 06. 2019 19:27

#	Program:	/corina/corina34_cracker 3.40 0067  02.08.2006

@<TRIPOS>MOLECULE
ASD01811702
  57   61    0    0    0
SMALL
NO_CHARGES


@<TRIPOS>ATOM
   1 C1            -0.0167     1.3805     0.0096 C.ar    
   2 C2             0.0021    -0.0041     0.0020 C.ar    
   3 C3            -1.1845    -0.7161     0.0090 C.ar    
   4 C4            -2.3942    -0.0535     0.0241 C.ar    
   5 C5            -2.4213     1.3425     0.0323 C.ar    
   6 C6            -1.2177     2.0512     0.0304 C.ar    
   7 C7             1.2777     2.1522     0.0014 C.3     
   8 C8            -1.1549    -2.2228    -0.0004 C.3     
   9 C9            -1.1315    -2.7336     1.4172 C.ar    
  10 C10           -2.3189    -2.9911     2.0776 C.ar    
  11 C11           -2.3007    -3.4597     3.3767 C.ar    
  12 C12           -1.0886    -3.6723     4.0196 C.ar    
  13 C13            0.1019    -3.4128     3.3539 C.ar    
  14 C14            0.0773    -2.9493     2.0531 C.ar    
  15 N15           -1.0668    -4.1474     5.3382 N.pl3   
  16 N16           -2.1863    -4.4492     6.1244 N.2     
  17 C17           -1.7662    -4.8643     7.2923 C.2     
  18 C18           -0.3672    -4.8406     7.2884 C.2     
  19 C19            0.0386    -4.4012     6.0746 C.2     
  20 C20           -3.5309     2.3149     0.0477 C.2     
  21 N21           -3.0504     3.5703     0.0501 N.am    
  22 C22           -1.5841     3.5142     0.0402 C.3     
  23 O23           -4.7107     2.0226     0.0563 O.2     
  24 C24           -3.8575     4.7928     0.0640 C.3     
  25 C25           -4.7285     4.8146     1.3217 C.3     
  26 C26           -5.5714     6.0914     1.3363 C.3     
  27 C27           -6.4661     6.1261     0.0956 C.3     
  28 C28           -5.5951     6.1043    -1.1620 C.3     
  29 C29           -4.7522     4.8275    -1.1766 C.3     
  30 O30           -3.8929     4.7823     2.4805 O.3     
  31 H31            0.9454    -0.5297    -0.0098 H       
  32 H32           -3.3180    -0.6130     0.0291 H       
  33 H33            1.5800     2.3437    -1.0282 H       
  34 H34            1.1390     3.0999     0.5217 H       
  35 H35            2.0504     1.5710     0.5048 H       
  36 H36           -2.0425    -2.6005    -0.5080 H       
  37 H37           -0.2629    -2.5654    -0.5248 H       
  38 H38           -3.2614    -2.8252     1.5771 H       
  39 H39           -3.2283    -3.6603     3.8920 H       
  40 H40            1.0463    -3.5769     3.8516 H       
  41 H41            1.0030    -2.7473     1.5348 H       
  42 H42           -2.3917    -5.1719     8.1172 H       
  43 H43            0.2753    -5.1264     8.1080 H       
  44 H44            1.0616    -4.2709     5.7536 H       
  45 H45           -1.1849     3.9949     0.9333 H       
  46 H46           -1.1966     4.0028    -0.8538 H       
  47 H47           -3.2001     5.6623     0.0623 H       
  48 H48           -5.3859     3.9452     1.3235 H       
  49 H49           -6.1919     6.1069     2.2323 H       
  50 H50           -4.9140     6.9608     1.3345 H       
  51 H51           -7.1235     5.2566     0.0974 H       
  52 H52           -7.0666     7.0357     0.1060 H       
  53 H53           -6.2325     6.1290    -2.0459 H       
  54 H54           -4.9377     6.9737    -1.1638 H       
  55 H55           -4.1317     4.8120    -2.0726 H       
  56 H56           -5.4096     3.9581    -1.1749 H       
  57 H57           -4.3789     4.7937     3.3164 H       
@<TRIPOS>BOND
   1    1    2 ar
   2    1    7 1
   3    1    6 ar
   4    2    3 ar
   5    2   31 1
   6    3    4 ar
   7    3    8 1
   8    4    5 ar
   9    4   32 1
  10    5    6 ar
  11    5   20 1
  12    6   22 1
  13    7   33 1
  14    7   34 1
  15    7   35 1
  16    8    9 1
  17    8   36 1
  18    8   37 1
  19    9   10 ar
  20    9   14 ar
  21   10   11 ar
  22   10   38 1
  23   11   12 ar
  24   11   39 1
  25   12   13 ar
  26   12   15 1
  27   13   14 ar
  28   13   40 1
  29   14   41 1
  30   15   16 1
  31   15   19 1
  32   16   17 2
  33   17   18 1
  34   17   42 1
  35   18   19 2
  36   18   43 1
  37   19   44 1
  38   20   21 am
  39   20   23 2
  40   21   22 1
  41   21   24 1
  42   22   45 1
  43   22   46 1
  44   24   25 1
  45   24   29 1
  46   24   47 1
  47   25   26 1
  48   25   30 1
  49   25   48 1
  50   26   27 1
  51   26   49 1
  52   26   50 1
  53   27   28 1
  54   27   51 1
  55   27   52 1
  56   28   29 1
  57   28   53 1
  58   28   54 1
  59   29   55 1
  60   29   56 1
  61   30   57 1

#	End of record

