#	Name: ASD03091933
#	Creating user name:	WinNT
#	Creation time:	15. 06. 2019 20:31

#	Modifying user name:	WinNT
#	Modification time:	15. 06. 2019 20:31

#	Program:	/corina/corina34_cracker 3.40 0067  02.08.2006

@<TRIPOS>MOLECULE
ASD03091933
  60   64    0    0    0
SMALL
NO_CHARGES


@<TRIPOS>ATOM
   1 C1            -0.0170     1.3989     0.0097 C.ar    
   2 C2            -1.2292     2.0674     0.0172 C.ar    
   3 C3            -2.4097     1.3492     0.0075 C.ar    
   4 C4            -2.3924    -0.0361    -0.0097 C.ar    
   5 C5            -1.1928    -0.7181    -0.0124 C.ar    
   6 C6             0.0021    -0.0041     0.0020 C.ar    
   7 O7             1.1598     2.0716     0.0021 O.3     
   8 C8             2.2743     1.4627     0.6521 C.3     
   9 N9             2.4122     0.0612     0.2540 N.am    
  10 C10            1.3112    -0.6873     0.0165 C.2     
  11 C11           -3.6902    -0.8019    -0.0249 C.3     
  12 C12           -4.1796    -0.9329    -1.4442 C.ar    
  13 C13           -3.7998    -2.0208    -2.2187 C.ar    
  14 O14            1.3965    -1.8842    -0.1793 O.2     
  15 C15           -3.7280     2.0794     0.0161 C.3     
  16 C16            3.7444    -0.5315     0.1122 C.3     
  17 C17           -5.0150     0.0255    -1.9851 C.ar    
  18 C18           -4.2711    -2.1042    -3.5167 C.ar    
  19 C19           -5.1065    -1.0986    -3.9997 C.ar    
  20 N20           -5.4506    -0.0781    -3.2250 N.ar    
  21 C21           -5.6199    -1.1730    -5.3893 C.2     
  22 C22            4.1793    -1.1346     1.4494 C.3     
  23 O23            3.3390    -2.2475     1.7767 O.3     
  24 C24            4.1224    -3.4494     1.8481 C.3     
  25 C25            5.5633    -2.9751     2.1635 C.3     
  26 C26            5.6272    -1.6592     1.3411 C.3     
  27 C27           -6.4636    -0.2350    -6.0170 C.2     
  28 N28           -6.6936    -0.6481    -7.2349 N.2     
  29 N29           -6.0123    -1.8552    -7.4319 N.pl3   
  30 C30           -5.3564    -2.1598    -6.2953 C.2     
  31 C31           -7.0065     1.0243    -5.3923 C.3     
  32 C32           -6.0087    -2.6479    -8.6639 C.3     
  33 H33           -1.2522     3.1471     0.0309 H       
  34 H34           -1.1810    -1.7980    -0.0257 H       
  35 H35            3.1831     2.0019     0.3847 H       
  36 H36            2.1321     1.5159     1.7315 H       
  37 H37           -3.5317    -1.7940     0.3978 H       
  38 H38           -4.4336    -0.2689     0.5679 H       
  39 H39           -3.1506    -2.7847    -1.8170 H       
  40 H40           -4.0453     2.2685    -1.0094 H       
  41 H41           -4.4773     1.4705     0.5219 H       
  42 H42           -3.6148     3.0274     0.5421 H       
  43 H43            3.7153    -1.3134    -0.6467 H       
  44 H44            4.4549     0.2390    -0.1871 H       
  45 H45           -5.3156     0.8708    -1.3839 H       
  46 H46           -3.9952    -2.9367    -4.1470 H       
  47 H47            4.1156    -0.3800     2.2333 H       
  48 H48            3.7535    -4.0947     2.6454 H       
  49 H49            4.0975    -3.9745     0.8933 H       
  50 H50            5.6882    -2.7792     3.2285 H       
  51 H51            6.3005    -3.6957     1.8095 H       
  52 H52            5.8894    -1.8629     0.3029 H       
  53 H53            6.3292    -0.9556     1.7887 H       
  54 H54           -4.7362    -3.0283    -6.1300 H       
  55 H55           -6.3144     1.8469    -5.5724 H       
  56 H56           -7.9746     1.2608    -5.8338 H       
  57 H57           -7.1232     0.8762    -4.3187 H       
  58 H58           -5.1845    -2.3262    -9.3005 H       
  59 H59           -5.8869    -3.7025    -8.4171 H       
  60 H60           -6.9521    -2.5046    -9.1908 H       
@<TRIPOS>BOND
   1    1    6 ar
   2    1    7 1
   3    1    2 ar
   4    2    3 ar
   5    2   33 1
   6    3    4 ar
   7    3   15 1
   8    4    5 ar
   9    4   11 1
  10    5    6 ar
  11    5   34 1
  12    6   10 1
  13    7    8 1
  14    8    9 1
  15    8   35 1
  16    8   36 1
  17    9   10 am
  18    9   16 1
  19   10   14 2
  20   11   12 1
  21   11   37 1
  22   11   38 1
  23   12   13 ar
  24   12   17 ar
  25   13   18 ar
  26   13   39 1
  27   15   40 1
  28   15   41 1
  29   15   42 1
  30   16   22 1
  31   16   43 1
  32   16   44 1
  33   17   20 ar
  34   17   45 1
  35   18   19 ar
  36   18   46 1
  37   19   20 ar
  38   19   21 1
  39   21   30 2
  40   21   27 1
  41   22   23 1
  42   22   26 1
  43   22   47 1
  44   23   24 1
  45   24   25 1
  46   24   48 1
  47   24   49 1
  48   25   26 1
  49   25   50 1
  50   25   51 1
  51   26   52 1
  52   26   53 1
  53   27   28 2
  54   27   31 1
  55   28   29 1
  56   29   30 1
  57   29   32 1
  58   30   54 1
  59   31   55 1
  60   31   56 1
  61   31   57 1
  62   32   58 1
  63   32   59 1
  64   32   60 1

#	End of record

