#	Name: ASD01218001
#	Creating user name:	WinNT
#	Creation time:	15. 06. 2019 19:11

#	Modifying user name:	WinNT
#	Modification time:	15. 06. 2019 19:11

#	Program:	/corina/corina34_cracker 3.40 0067  02.08.2006

@<TRIPOS>MOLECULE
ASD01218001
  35   35    0    0    0
SMALL
NO_CHARGES


@<TRIPOS>ATOM
   1 O1            -0.0173     1.4248     0.0099 O.3     
   2 C2             0.0021    -0.0041     0.0020 C.3     
   3 C3            -1.4341    -0.5342     0.0129 C.3     
   4 C4            -2.1258    -0.0858     1.3039 C.3     
   5 O5            -3.4430    -0.6373     1.3569 O.3     
   6 C6            -1.3138    -0.5822     2.5042 C.3     
   7 O7            -1.9103    -0.1081     3.7131 O.3     
   8 C8             0.1177    -0.0502     2.3971 C.3     
   9 O9             0.6920    -0.4777     1.1604 O.3     
  10 C10            0.9513    -0.5907     3.5606 C.3     
  11 O11            2.2535    -0.0032     3.5270 O.3     
  12 P12            3.3978    -0.3450     4.6067 P.3     
  13 O13            2.8793    -0.0966     5.9705 O.2     
  14 O14            3.8224    -1.8917     4.4675 O.3     
  15 O15            4.6816     0.5898     4.3422 O.3     
  16 N16           -2.1611    -0.0021    -1.1423 N.am    
  17 C17           -2.0785    -0.6238    -2.3353 C.2     
  18 O18           -1.4023    -1.6238    -2.4524 O.2     
  19 C19           -2.8264    -0.0765    -3.5236 C.3     
  20 H20            0.8606     1.8301     0.0037 H       
  21 H21            0.5126    -0.3558    -0.8945 H       
  22 H22           -1.4208    -1.6231    -0.0340 H       
  23 H23           -2.1850     1.0023     1.3269 H       
  24 H24           -3.9399    -0.3937     2.1499 H       
  25 H25           -1.2990    -1.6721     2.5083 H       
  26 H26           -1.4468    -0.3853     4.5153 H       
  27 H27            0.1044     1.0391     2.4344 H       
  28 H28            0.4643    -0.3410     4.5033 H       
  29 H29            1.0388    -1.6736     3.4726 H       
  30 H30            4.1720    -2.1268     3.5971 H       
  31 H31            5.4122     0.4380     4.9573 H       
  32 H32           -2.7019     0.7977    -1.0486 H       
  33 H33           -2.4861     0.9380    -3.7313 H       
  34 H34           -2.6395    -0.7074    -4.3926 H       
  35 H35           -3.8945    -0.0641    -3.3065 H       
@<TRIPOS>BOND
   1    1    2 1
   2    1   20 1
   3    2    3 1
   4    2    9 1
   5    2   21 1
   6    3    4 1
   7    3   16 1
   8    3   22 1
   9    4    5 1
  10    4    6 1
  11    4   23 1
  12    5   24 1
  13    6    7 1
  14    6    8 1
  15    6   25 1
  16    7   26 1
  17    8    9 1
  18    8   10 1
  19    8   27 1
  20   10   11 1
  21   10   28 1
  22   10   29 1
  23   11   12 1
  24   12   13 2
  25   12   14 1
  26   12   15 1
  27   14   30 1
  28   15   31 1
  29   16   17 am
  30   16   32 1
  31   17   18 2
  32   17   19 1
  33   19   33 1
  34   19   34 1
  35   19   35 1

#	End of record

