#	Name: ASD03092362
#	Creating user name:	WinNT
#	Creation time:	15. 06. 2019 20:32

#	Modifying user name:	WinNT
#	Modification time:	15. 06. 2019 20:32

#	Program:	/corina/corina34_cracker 3.40 0067  02.08.2006

@<TRIPOS>MOLECULE
ASD03092362
  58   61    0    0    0
SMALL
NO_CHARGES


@<TRIPOS>ATOM
   1 O1             0.4848     0.3848     0.3503 O.3     
   2 N2             0.6570    -0.8093     0.3285 N.2     
   3 C3             1.9150    -1.1248     0.2379 C.2     
   4 C4             2.6355     0.1571     0.1980 C.2     
   5 C5             1.6217     1.0805     0.2765 C.2     
   6 C6             4.0872     0.3924     0.0988 C.2     
   7 O7             4.8533    -0.5501     0.0380 O.2     
   8 N8             4.5656     1.6522     0.0756 N.am    
   9 C9             2.5086    -2.5090     0.1855 C.3     
  10 C10            6.0084     1.8862    -0.0230 C.3     
  11 S11            6.7291     5.7580    -0.7213 S.3     
  12 C12            6.6119     5.3515     0.9349 C.2     
  13 N13            6.3779     4.0809     1.0716 N.2     
  14 C14            6.2776     3.3689    -0.0298 C.2     
  15 C15            6.4361     4.0788    -1.1665 C.2     
  16 C16            7.2675     3.3337    -4.7523 C.ar    
  17 C17            7.3644     3.8569    -3.4811 C.ar    
  18 C18            6.3744     3.5430    -2.5404 C.ar    
  19 C19            5.3245     2.7056    -2.9405 C.ar    
  20 C20            5.3070     2.2277    -4.2329 C.ar    
  21 N21            6.2608     2.5483    -5.0875 N.ar    
  22 C22            4.1838     1.3262    -4.6767 C.3     
  23 C23            8.3218     3.6682    -5.7758 C.3     
  24 N24            6.7475     6.2470     1.9800 N.3     
  25 C25            7.0067     7.6050     1.4799 C.3     
  26 C26            7.0903     8.5718     2.6641 C.3     
  27 O27            8.1048     8.1246     3.5675 O.3     
  28 C28            7.8835     6.8058     4.0745 C.3     
  29 C29            7.8081     5.8211     2.9047 C.3     
  30 C30            9.0380     6.4135     4.9989 C.3     
  31 C31            7.4393     9.9723     2.1565 C.3     
  32 H32            1.7240     2.1556     0.2781 H       
  33 H33            3.9545     2.4040     0.1242 H       
  34 H34            2.5803    -2.8345    -0.8523 H       
  35 H35            3.5031    -2.4949     0.6315 H       
  36 H36            1.8717    -3.1987     0.7394 H       
  37 H37            6.5096     1.4299     0.8307 H       
  38 H38            6.3860     1.4441    -0.9449 H       
  39 H39            8.1910     4.4985    -3.2138 H       
  40 H40            4.5412     2.4385    -2.2465 H       
  41 H41            3.3710     1.9301    -5.0800 H       
  42 H42            4.5470     0.6452    -5.4464 H       
  43 H43            3.8211     0.7513    -3.8246 H       
  44 H44            9.1225     2.9301    -5.7273 H       
  45 H45            7.8780     3.6579    -6.7713 H       
  46 H46            8.7276     4.6585    -5.5692 H       
  47 H47            7.9493     7.6175     0.9327 H       
  48 H48            6.1965     7.9098     0.8176 H       
  49 H49            6.1303     8.5996     3.1797 H       
  50 H50            6.9467     6.7823     4.6311 H       
  51 H51            7.5827     4.8238     3.2824 H       
  52 H52            8.7634     5.8051     2.3802 H       
  53 H53            9.0936     7.1172     5.8294 H       
  54 H54            8.8688     5.4083     5.3850 H       
  55 H55            9.9739     6.4356     4.4407 H       
  56 H56            6.6678    10.3110     1.4651 H       
  57 H57            7.4987    10.6601     3.0000 H       
  58 H58            8.4003     9.9436     1.6429 H       
@<TRIPOS>BOND
   1    1    2 1
   2    1    5 1
   3    2    3 2
   4    3    4 1
   5    3    9 1
   6    4    5 2
   7    4    6 1
   8    5   32 1
   9    6    7 2
  10    6    8 am
  11    8   10 1
  12    8   33 1
  13    9   34 1
  14    9   35 1
  15    9   36 1
  16   10   14 1
  17   10   37 1
  18   10   38 1
  19   11   12 1
  20   11   15 1
  21   12   13 2
  22   12   24 1
  23   13   14 1
  24   14   15 2
  25   15   18 1
  26   16   17 ar
  27   16   21 ar
  28   16   23 1
  29   17   18 ar
  30   17   39 1
  31   18   19 ar
  32   19   20 ar
  33   19   40 1
  34   20   21 ar
  35   20   22 1
  36   22   41 1
  37   22   42 1
  38   22   43 1
  39   23   44 1
  40   23   45 1
  41   23   46 1
  42   24   25 1
  43   24   29 1
  44   25   26 1
  45   25   47 1
  46   25   48 1
  47   26   27 1
  48   26   31 1
  49   26   49 1
  50   27   28 1
  51   28   29 1
  52   28   30 1
  53   28   50 1
  54   29   51 1
  55   29   52 1
  56   30   53 1
  57   30   54 1
  58   30   55 1
  59   31   56 1
  60   31   57 1
  61   31   58 1

#	End of record

