#	Name: ASD08170311
#	Creating user name:	WinNT
#	Creation time:	15. 06. 2019 21:17

#	Modifying user name:	WinNT
#	Modification time:	15. 06. 2019 21:17

#	Program:	/corina/corina34_cracker 3.40 0067  02.08.2006

@<TRIPOS>MOLECULE
ASD08170311
  58   63    0    0    0
SMALL
NO_CHARGES


@<TRIPOS>ATOM
   1 C1            -0.0162     1.3436     0.0094 C.2     
   2 N2             0.0021    -0.0041     0.0020 N.am    
   3 C3             1.2158    -0.6830    -0.0132 C.2     
   4 S4             1.4076    -2.3853    -0.0242 S.3     
   5 C5             3.1580    -2.1679    -0.0404 C.2     
   6 C6             4.1900    -3.2660    -0.0570 C.3     
   7 C7             5.9649    -5.1406     2.7999 C.3     
   8 C8             6.9968    -6.2387     2.7833 C.2     
   9 S9             6.6713    -7.9723     2.7767 S.3     
  10 C10            8.3583    -8.2694     2.7582 C.2     
  11 N11            2.3916    -0.1314    -0.0272 N.2     
  12 N12            3.3971    -0.8949    -0.0360 N.2     
  13 N13            8.2821    -6.0790     2.7658 N.2     
  14 N14            8.9817    -7.1299     2.7585 N.2     
  15 O15            1.0258     1.9642     0.0028 O.2     
  16 C16           -1.3314     2.0792     0.0197 C.3     
  17 C17            4.5536    -3.6458     1.3798 C.3     
  18 C18            5.6013    -4.7607     1.3631 C.3     
  19 N19            8.9606    -9.5229     2.7455 N.am    
  20 C20           10.3044    -9.6248     2.7315 C.2     
  21 O21           10.9885    -8.6233     2.7299 O.2     
  22 O22           -1.2062     3.3488    -0.6481 O.3     
  23 O23           -2.3112     1.3749    -0.7658 O.3     
  24 C24           -3.0862     2.3434    -1.3357 C.ar    
  25 C25           -2.4068     3.5569    -1.2633 C.ar    
  26 C26           10.9570   -10.9831     2.7177 C.3     
  27 O27           12.2352   -10.9370     3.3792 O.3     
  28 C28           12.3715   -12.1484     3.9934 C.ar    
  29 C29           11.1185   -12.7512     4.0718 C.ar    
  30 O30           10.1971   -11.9175     3.5067 O.3     
  31 C31           -4.3403     2.2896    -1.9221 C.ar    
  32 C32           -4.9146     3.4382    -2.4337 C.ar    
  33 C33           -4.2403     4.6430    -2.3615 C.ar    
  34 C34           -2.9882     4.7040    -1.7787 C.ar    
  35 C35           13.4829   -12.8004     4.5025 C.ar    
  36 C36           13.3471   -14.0461     5.0862 C.ar    
  37 C37           12.1033   -14.6445     5.1640 C.ar    
  38 C38           10.9899   -13.9999     4.6581 C.ar    
  39 H39           -0.8313    -0.5005     0.0073 H       
  40 H40            3.7851    -4.1373    -0.5717 H       
  41 H41            5.0822    -2.9183    -0.5777 H       
  42 H42            5.0727    -5.4882     3.3206 H       
  43 H43            6.3698    -4.2692     3.3146 H       
  44 H44           -1.6839     2.2172     1.0418 H       
  45 H45            4.9585    -2.7745     1.8946 H       
  46 H46            3.6614    -3.9935     1.9006 H       
  47 H47            6.4935    -4.4131     0.8423 H       
  48 H48            5.1964    -5.6320     0.8483 H       
  49 H49            8.4135   -10.3239     2.7467 H       
  50 H50           11.0679   -11.3432     1.6949 H       
  51 H51           -4.8693     1.3498    -1.9798 H       
  52 H52           -5.8922     3.3944    -2.8905 H       
  53 H53           -4.6922     5.5383    -2.7623 H       
  54 H54           -2.4640     5.6466    -1.7233 H       
  55 H55           14.4558   -12.3353     4.4430 H       
  56 H56           14.2147   -14.5531     5.4819 H       
  57 H57           12.0012   -15.6178     5.6208 H       
  58 H58           10.0195   -14.4697     4.7203 H       
@<TRIPOS>BOND
   1    1    2 am
   2    1   15 2
   3    1   16 1
   4    2    3 1
   5    2   39 1
   6    3    4 1
   7    3   11 2
   8    4    5 1
   9    5    6 1
  10    5   12 2
  11    6   17 1
  12    6   40 1
  13    6   41 1
  14    7    8 1
  15    7   18 1
  16    7   42 1
  17    7   43 1
  18    8    9 1
  19    8   13 2
  20    9   10 1
  21   10   19 1
  22   10   14 2
  23   11   12 1
  24   13   14 1
  25   16   22 1
  26   16   23 1
  27   16   44 1
  28   17   18 1
  29   17   45 1
  30   17   46 1
  31   18   47 1
  32   18   48 1
  33   19   20 am
  34   19   49 1
  35   20   21 2
  36   20   26 1
  37   22   25 1
  38   23   24 1
  39   24   25 ar
  40   24   31 ar
  41   25   34 ar
  42   26   27 1
  43   26   30 1
  44   26   50 1
  45   27   28 1
  46   28   29 ar
  47   28   35 ar
  48   29   30 1
  49   29   38 ar
  50   31   32 ar
  51   31   51 1
  52   32   33 ar
  53   32   52 1
  54   33   34 ar
  55   33   53 1
  56   34   54 1
  57   35   36 ar
  58   35   55 1
  59   36   37 ar
  60   36   56 1
  61   37   38 ar
  62   37   57 1
  63   38   58 1

#	End of record

