#	Name: ASD01883819
#	Creating user name:	WinNT
#	Creation time:	15. 06. 2019 19:47

#	Modifying user name:	WinNT
#	Modification time:	15. 06. 2019 19:47

#	Program:	/corina/corina34_cracker 3.40 0067  02.08.2006

@<TRIPOS>MOLECULE
ASD01883819
  60   64    0    0    0
SMALL
NO_CHARGES


@<TRIPOS>ATOM
   1 C1            -0.0168     1.3856     0.0097 C.ar    
   2 C2             0.0021    -0.0041     0.0020 C.ar    
   3 C3             1.2125    -0.6892    -0.0056 C.ar    
   4 C4             2.3968     0.0103    -0.0061 C.ar    
   5 C5             2.3806     1.4083    -0.0133 C.ar    
   6 C6             1.1660     2.0933     0.0022 C.ar    
   7 O7            -1.1656    -0.6956     0.0024 O.3     
   8 C8            -2.3726     0.0694     0.0109 C.3     
   9 C9            -3.5575    -0.8617     0.0101 C.ar    
  10 C10           -4.0947    -1.2938     1.2056 C.ar    
  11 C11           -5.1907    -2.1545     1.2033 C.ar    
  12 C12           -5.7380    -2.5740    -0.0072 C.ar    
  13 C13           -5.1927    -2.1356    -1.1971 C.ar    
  14 C14           -4.1083    -1.2773    -1.1890 C.ar    
  15 C15           -5.7724    -2.6229     2.4857 C.ar    
  16 C16           -5.2227    -2.2021     3.6964 C.ar    
  17 C17           -5.7611    -2.6356     4.8919 C.ar    
  18 C18           -6.8482    -3.4887     4.8974 C.ar    
  19 C19           -7.4081    -3.9176     3.6898 C.ar    
  20 C20           -6.8696    -3.4771     2.4813 C.ar    
  21 Cl21          -7.5189    -4.0290     6.4047 Cl      
  22 C22           -8.5695    -4.8296     3.6945 C.2     
  23 O23           -9.1072    -5.2414     2.5300 O.3     
  24 O24           -9.0399    -5.2085     4.7485 O.2     
  25 C25            3.7168    -0.7144     0.0212 C.3     
  26 C26            4.7629     0.0726    -0.7642 C.3     
  27 N27            4.7960     1.4696    -0.3373 N.am    
  28 C28            3.6621     2.1393    -0.0574 C.2     
  29 O29            3.6934     3.3357     0.1571 O.2     
  30 C30            6.0855     2.1534    -0.2116 C.3     
  31 C31            6.1313     3.3694    -1.1534 C.3     
  32 C32            6.3289     4.6115    -0.2600 C.3     
  33 C33            6.9839     4.0529     1.0276 C.3     
  34 C34            6.2570     2.6989     1.2211 C.3     
  35 H35           -0.9598     1.9118     0.0170 H       
  36 H36            1.2225    -1.7691    -0.0108 H       
  37 H37            1.1521     3.1732     0.0074 H       
  38 H38           -2.4012     0.6931     0.9044 H       
  39 H39           -2.4076     0.7028    -0.8755 H       
  40 H40           -3.6664    -0.9658     2.1411 H       
  41 H41           -6.5872    -3.2412    -0.0146 H       
  42 H42           -5.6162    -2.4602    -2.1361 H       
  43 H43           -3.6849    -0.9364    -2.1222 H       
  44 H44           -4.3731    -1.5353     3.6990 H       
  45 H45           -5.3307    -2.3069     5.8262 H       
  46 H46           -7.2980    -3.8046     1.5455 H       
  47 H47           -9.8663    -5.8380     2.5837 H       
  48 H48            4.0475    -0.8245     1.0540 H       
  49 H49            3.5967    -1.7015    -0.4252 H       
  50 H50            5.7436    -0.3746    -0.6021 H       
  51 H51            4.5213     0.0284    -1.8261 H       
  52 H52            6.8972     1.4659    -0.4498 H       
  53 H53            6.9656     3.2725    -1.8481 H       
  54 H54            5.1940     3.4508    -1.7039 H       
  55 H55            6.9914     5.3285    -0.7448 H       
  56 H56            5.3685     5.0728    -0.0302 H       
  57 H57            8.0532     3.8999     0.8820 H       
  58 H58            6.7990     4.7149     1.8735 H       
  59 H59            5.2850     2.8514     1.6901 H       
  60 H60            6.8670     2.0202     1.8173 H       
@<TRIPOS>BOND
   1    1    2 ar
   2    1    6 ar
   3    1   35 1
   4    2    3 ar
   5    2    7 1
   6    3    4 ar
   7    3   36 1
   8    4    5 ar
   9    4   25 1
  10    5    6 ar
  11    5   28 1
  12    6   37 1
  13    7    8 1
  14    8    9 1
  15    8   38 1
  16    8   39 1
  17    9   10 ar
  18    9   14 ar
  19   10   11 ar
  20   10   40 1
  21   11   12 ar
  22   11   15 1
  23   12   13 ar
  24   12   41 1
  25   13   14 ar
  26   13   42 1
  27   14   43 1
  28   15   16 ar
  29   15   20 ar
  30   16   17 ar
  31   16   44 1
  32   17   18 ar
  33   17   45 1
  34   18   19 ar
  35   18   21 1
  36   19   20 ar
  37   19   22 1
  38   20   46 1
  39   22   23 1
  40   22   24 2
  41   23   47 1
  42   25   26 1
  43   25   48 1
  44   25   49 1
  45   26   27 1
  46   26   50 1
  47   26   51 1
  48   27   28 am
  49   27   30 1
  50   28   29 2
  51   30   31 1
  52   30   34 1
  53   30   52 1
  54   31   32 1
  55   31   53 1
  56   31   54 1
  57   32   33 1
  58   32   55 1
  59   32   56 1
  60   33   34 1
  61   33   57 1
  62   33   58 1
  63   34   59 1
  64   34   60 1

#	End of record

