#	Name: ASD03490080
#	Creating user name:	WinNT
#	Creation time:	15. 06. 2019 20:42

#	Modifying user name:	WinNT
#	Modification time:	15. 06. 2019 20:42

#	Program:	/corina/corina34_cracker 3.40 0067  02.08.2006

@<TRIPOS>MOLECULE
ASD03490080
  45   46    0    0    0
SMALL
NO_CHARGES


@<TRIPOS>ATOM
   1 C1            -0.0187     1.5251     0.0104 C.3     
   2 C2             0.0021    -0.0041     0.0020 C.3     
   3 O3             0.8082    -0.4860     1.0794 O.3     
   4 C4             2.1717    -0.0453     1.0179 C.3     
   5 C5             2.1673     1.4674     0.9218 C.2     
   6 O6             1.3496     2.0248     0.0000 O.3     
   7 C7             2.8097    -0.6079    -0.2585 C.3     
   8 C8             0.5571    -0.5127    -1.3282 C.3     
   9 C9             2.0228    -0.0930    -1.4684 C.3     
  10 O10            2.1085     1.3324    -1.5227 O.3     
  11 O11            2.9001    -0.4782     2.1970 O.3     
  12 C12            2.3906    -0.1315     3.3895 C.2     
  13 C13            3.0918    -0.5453     4.6576 C.3     
  14 O14            1.3698     0.5124     3.4461 O.2     
  15 C15            2.3094    -0.0265     5.8657 C.3     
  16 O16            2.8642     2.1462     1.6383 O.2     
  17 C17           -0.7334     2.0193     1.2697 C.3     
  18 O18           -2.0741     1.5251     1.2815 O.3     
  19 C19           -0.7537     3.5492     1.2774 C.3     
  20 O20           -1.3165     4.0119     2.5067 O.3     
  21 N21            0.4623    -1.9741    -1.3693 N.am    
  22 O22            0.4244    -1.9769    -3.5875 O.2     
  23 C23            0.4010    -2.6123    -2.5547 C.2     
  24 C24            0.3034    -4.1156    -2.5970 C.3     
  25 H25           -0.5449     1.8867    -0.8730 H       
  26 H26           -1.0151    -0.3778     0.1193 H       
  27 H27            3.8453    -0.2749    -0.3272 H       
  28 H28            2.7741    -1.6971    -0.2357 H       
  29 H29           -0.0218    -0.0889    -2.1487 H       
  30 H30            2.4382    -0.5192    -2.3816 H       
  31 H31            3.0112     1.6693    -1.6057 H       
  32 H32            3.1501    -1.6329     4.7022 H       
  33 H33            4.0982    -0.1268     4.6695 H       
  34 H34            2.8165    -0.3258     6.7829 H       
  35 H35            2.2511     1.0611     5.8210 H       
  36 H36            1.3030    -0.4450     5.8538 H       
  37 H37           -0.2054     1.6585     2.1524 H       
  38 H38           -2.6040     1.8072     0.5233 H       
  39 H39            0.2641     3.9266     1.1789 H       
  40 H40           -1.3568     3.9087     0.4436 H       
  41 H41           -1.3608     4.9750     2.5811 H       
  42 H42            0.4436    -2.4823    -0.5433 H       
  43 H43            0.2955    -4.5079    -1.5801 H       
  44 H44           -0.6159    -4.4058    -3.1056 H       
  45 H45            1.1602    -4.5202    -3.1359 H       
@<TRIPOS>BOND
   1    1    2 1
   2    1    6 1
   3    1   17 1
   4    1   25 1
   5    2    3 1
   6    2    8 1
   7    2   26 1
   8    3    4 1
   9    4    5 1
  10    4    7 1
  11    4   11 1
  12    5    6 1
  13    5   16 2
  14    7    9 1
  15    7   27 1
  16    7   28 1
  17    8    9 1
  18    8   21 1
  19    8   29 1
  20    9   10 1
  21    9   30 1
  22   10   31 1
  23   11   12 1
  24   12   13 1
  25   12   14 2
  26   13   15 1
  27   13   32 1
  28   13   33 1
  29   15   34 1
  30   15   35 1
  31   15   36 1
  32   17   18 1
  33   17   19 1
  34   17   37 1
  35   18   38 1
  36   19   20 1
  37   19   39 1
  38   19   40 1
  39   20   41 1
  40   21   23 am
  41   21   42 1
  42   22   23 2
  43   23   24 1
  44   24   43 1
  45   24   44 1
  46   24   45 1

#	End of record

