#	Name: ASD02508396
#	Creating user name:	WinNT
#	Creation time:	15. 06. 2019 20:24

#	Modifying user name:	WinNT
#	Modification time:	15. 06. 2019 20:24

#	Program:	/corina/corina34_cracker 3.40 0067  02.08.2006

@<TRIPOS>MOLECULE
ASD02508396
  37   39    0    0    0
SMALL
NO_CHARGES


@<TRIPOS>ATOM
   1 C1            -0.1983     1.7494     0.2771 C.2     
   2 C2            -0.1740     0.3504     0.4491 C.2     
   3 C3             1.1155    -0.0405     0.4079 C.2     
   4 N4             1.8914     1.0679     0.2164 N.pl3   
   5 C5             1.0773     2.1625     0.1371 C.2     
   6 C6             3.2860     1.0800     0.1184 C.ar    
   7 C7             4.0239     1.9620     0.9003 C.ar    
   8 N8             3.8917     0.2486    -0.7134 N.ar    
   9 C9             5.2050     0.2269    -0.8364 C.ar    
  10 C10            6.0003     1.0783    -0.0951 C.ar    
  11 C11            5.4048     1.9630     0.7933 C.ar    
  12 S12            1.6997    -1.6946     0.5732 S.o2    
  13 O13            1.6149    -2.2810    -0.7184 O.2     
  14 O14            2.9092    -1.6208     1.3154 O.2     
  15 N15            0.6147    -2.5046     1.5266 N.am    
  16 C16            0.4006    -2.0944     2.8445 C.ar    
  17 C17           -0.8926    -1.9993     3.3426 C.ar    
  18 C18           -1.1007    -1.5939     4.6463 C.ar    
  19 C19           -0.0234    -1.2828     5.4556 C.ar    
  20 C20            1.2653    -1.3764     4.9629 C.ar    
  21 C21            1.4807    -1.7862     3.6618 C.ar    
  22 Cl22           3.2254     3.0473     1.9950 Cl      
  23 C23            7.4994     1.0435    -0.2450 C.3     
  24 F24            7.8512     0.0724    -1.1887 F       
  25 F25            7.9546     2.2954    -0.6723 F       
  26 F26            8.0841     0.7301     0.9867 F       
  27 H27           -1.0782     2.3753     0.2565 H       
  28 H28           -1.0317    -0.2910     0.5883 H       
  29 H29            1.4000     3.1823    -0.0122 H       
  30 H30            5.6642    -0.4662    -1.5257 H       
  31 H31            6.0042     2.6392     1.3848 H       
  32 H32            0.1278    -3.2640     1.1699 H       
  33 H33           -1.7344    -2.2418     2.7110 H       
  34 H34           -2.1059    -1.5194     5.0341 H       
  35 H35           -0.1890    -0.9656     6.4746 H       
  36 H36            2.1044    -1.1327     5.5976 H       
  37 H37            2.4875    -1.8595     3.2777 H       
@<TRIPOS>BOND
   1    1    2 1
   2    1    5 2
   3    1   27 1
   4    2    3 2
   5    2   28 1
   6    3    4 1
   7    3   12 1
   8    4    5 1
   9    4    6 1
  10    5   29 1
  11    6    7 ar
  12    6    8 ar
  13    7   22 1
  14    7   11 ar
  15    8    9 ar
  16    9   10 ar
  17    9   30 1
  18   10   11 ar
  19   10   23 1
  20   11   31 1
  21   12   13 2
  22   12   14 2
  23   12   15 am
  24   15   16 1
  25   15   32 1
  26   16   17 ar
  27   16   21 ar
  28   17   18 ar
  29   17   33 1
  30   18   19 ar
  31   18   34 1
  32   19   20 ar
  33   19   35 1
  34   20   21 ar
  35   20   36 1
  36   21   37 1
  37   23   24 1
  38   23   25 1
  39   23   26 1

#	End of record

