#	Name: ASD01840208
#	Creating user name:	WinNT
#	Creation time:	15. 06. 2019 19:37

#	Modifying user name:	WinNT
#	Modification time:	15. 06. 2019 19:37

#	Program:	/corina/corina34_cracker 3.40 0067  02.08.2006

@<TRIPOS>MOLECULE
ASD01840208
  32   34    0    0    0
SMALL
NO_CHARGES


@<TRIPOS>ATOM
   1 C1            -0.0166     1.3734     0.0096 C.ar    
   2 C2             0.0021    -0.0041     0.0020 C.ar    
   3 N3             1.1533    -0.6539    -0.0125 N.ar    
   4 N4             2.2848    -0.0541    -0.0200 N.ar    
   5 C5             1.2218     2.0548     0.0014 C.ar    
   6 C6             2.8316     3.7742    -0.0055 C.2     
   7 C7             1.5084     3.4774     0.0059 C.2     
   8 C8             2.3874     1.2770    -0.0139 C.ar    
   9 S9             3.8049     2.3167    -0.0224 S.3     
  10 N10            0.5161     4.4483     0.0197 N.pl3   
  11 C11            3.3749     5.1318    -0.0047 C.2     
  12 N12            4.7088     5.3238    -0.0166 N.am    
  13 O13            2.6222     6.0887     0.0069 O.2     
  14 C14            5.2531     6.6839    -0.0157 C.3     
  15 C15            6.7588     6.6224    -0.0305 C.ar    
  16 C16            7.4485     6.2735     1.1178 C.ar    
  17 C17            7.4508     6.9089    -1.1921 C.ar    
  18 C18            8.8321     6.8526    -1.2073 C.ar    
  19 C19            9.5240     6.5096    -0.0610 C.ar    
  20 C20            8.8337     6.2174     1.1026 C.ar    
  21 F21            6.7725     5.9884     2.2522 F       
  22 F22            9.5091     5.8776     2.2222 F       
  23 H23           -0.9500     1.9166     0.0170 H       
  24 H24           -0.9268    -0.5550     0.0083 H       
  25 H25            0.7569     5.3879     0.0220 H       
  26 H26           -0.4180     4.1870     0.0272 H       
  27 H27            5.3085     4.5614    -0.0258 H       
  28 H28            4.9026     7.2161    -0.9000 H       
  29 H29            4.9196     7.2081     0.8798 H       
  30 H30            6.9119     7.1768    -2.0889 H       
  31 H31            9.3711     7.0765    -2.1161 H       
  32 H32           10.6030     6.4656    -0.0744 H       
@<TRIPOS>BOND
   1    1    2 ar
   2    1    5 ar
   3    1   23 1
   4    2    3 ar
   5    2   24 1
   6    3    4 ar
   7    4    8 ar
   8    5    8 ar
   9    5    7 1
  10    6    7 2
  11    6    9 1
  12    6   11 1
  13    7   10 1
  14    8    9 1
  15   10   25 1
  16   10   26 1
  17   11   12 am
  18   11   13 2
  19   12   14 1
  20   12   27 1
  21   14   15 1
  22   14   28 1
  23   14   29 1
  24   15   17 ar
  25   15   16 ar
  26   16   20 ar
  27   16   21 1
  28   17   18 ar
  29   17   30 1
  30   18   19 ar
  31   18   31 1
  32   19   20 ar
  33   19   32 1
  34   20   22 1

#	End of record

