#	Name: ASD09790004
#	Creating user name:	WinNT
#	Creation time:	15. 06. 2019 21:23

#	Modifying user name:	WinNT
#	Modification time:	15. 06. 2019 21:23

#	Program:	/corina/corina34_cracker 3.40 0067  02.08.2006

@<TRIPOS>MOLECULE
ASD09790004
  43   47    0    0    0
SMALL
NO_CHARGES


@<TRIPOS>ATOM
   1 C1            -0.2543     2.1074    -0.5400 C.2     
   2 C2            -0.4536     0.6715    -0.2436 C.ar    
   3 C3             0.5834    -0.0302     0.3906 C.ar    
   4 O4             1.7333     0.5850     0.7324 O.3     
   5 C5             2.0769     1.7869     0.2271 C.ar    
   6 C6             1.1274     2.6044    -0.4115 C.ar    
   7 C7            -1.6393     0.0253    -0.5852 C.ar    
   8 C8            -1.7904    -1.3151    -0.2999 C.ar    
   9 C9            -0.7671    -2.0133     0.3228 C.ar    
  10 C10            0.4096    -1.3826     0.6668 C.ar    
  11 C11            1.4927     3.8592    -0.9150 C.ar    
  12 C12            3.3863     2.2340     0.3338 C.ar    
  13 C13            3.7442     3.4737    -0.1735 C.ar    
  14 C14            2.8030     4.2865    -0.7940 C.ar    
  15 O15           -1.1738     2.8323    -0.8743 O.2     
  16 O16            0.5689     4.6495    -1.5171 O.3     
  17 O17            5.0289     3.8984    -0.0631 O.3     
  18 C18            5.2885     4.8232     0.8823 C.2     
  19 C19            6.6370     5.4152     0.9852 C.ar    
  20 O20            4.4128     5.1697     1.6498 O.2     
  21 C21            6.8999     6.3617     1.9629 C.ar    
  22 C22            7.6471     5.0103     0.0938 C.ar    
  23 C23            8.8946     5.5400     0.1686 C.ar    
  24 C24            9.1914     6.5070     1.1463 C.ar    
  25 C25            8.1832     6.9198     2.0547 C.ar    
  26 C26            8.4889     7.8828     3.0335 C.ar    
  27 C27           10.4750     7.0697     1.2425 C.ar    
  28 C28           10.7326     8.0039     2.1987 C.ar    
  29 C29            9.7442     8.4046     3.0959 C.ar    
  30 H30           -2.4354     0.5708    -1.0700 H       
  31 H31           -2.7075    -1.8220    -0.5615 H       
  32 H32           -0.8933    -3.0635     0.5409 H       
  33 H33            1.1982    -1.9396     1.1508 H       
  34 H34            4.1290     1.6143     0.8140 H       
  35 H35            3.0943     5.2515    -1.1816 H       
  36 H36            0.1085     5.2474    -0.9123 H       
  37 H37            6.1230     6.6671     2.6481 H       
  38 H38            7.4274     4.2681    -0.6594 H       
  39 H39            9.6597     5.2188    -0.5226 H       
  40 H40            7.7311     8.2066     3.7316 H       
  41 H41           11.2543     6.7622     0.5609 H       
  42 H42           11.7207     8.4340     2.2693 H       
  43 H43            9.9763     9.1441     3.8480 H       
@<TRIPOS>BOND
   1    1    2 1
   2    1    6 1
   3    1   15 2
   4    2    3 ar
   5    2    7 ar
   6    3    4 1
   7    3   10 ar
   8    4    5 1
   9    5   12 ar
  10    5    6 ar
  11    6   11 ar
  12    7    8 ar
  13    7   30 1
  14    8    9 ar
  15    8   31 1
  16    9   10 ar
  17    9   32 1
  18   10   33 1
  19   11   14 ar
  20   11   16 1
  21   12   13 ar
  22   12   34 1
  23   13   14 ar
  24   13   17 1
  25   14   35 1
  26   16   36 1
  27   17   18 1
  28   18   19 1
  29   18   20 2
  30   19   22 ar
  31   19   21 ar
  32   21   25 ar
  33   21   37 1
  34   22   23 ar
  35   22   38 1
  36   23   24 ar
  37   23   39 1
  38   24   25 ar
  39   24   27 ar
  40   25   26 ar
  41   26   29 ar
  42   26   40 1
  43   27   28 ar
  44   27   41 1
  45   28   29 ar
  46   28   42 1
  47   29   43 1

#	End of record

