#	Name: ASD03081313
#	Creating user name:	WinNT
#	Creation time:	15. 06. 2019 20:27

#	Modifying user name:	WinNT
#	Modification time:	15. 06. 2019 20:27

#	Program:	/corina/corina34_cracker 3.40 0067  02.08.2006

@<TRIPOS>MOLECULE
ASD03081313
  38   40    0    0    0
SMALL
NO_CHARGES


@<TRIPOS>ATOM
   1 O1            -0.0162     1.3448     0.0094 O.3     
   2 C2             0.0021    -0.0041     0.0020 C.2     
   3 N3             1.2603    -0.3806    -0.0120 N.2     
   4 N4             2.0178     0.6594    -0.0137 N.2     
   5 C5             1.2727     1.7419    -0.0007 C.2     
   6 C6             1.7575     3.1367     0.0017 C.ar    
   7 C7             3.1288     3.4006    -0.0099 C.ar    
   8 C8             3.5802     4.7081    -0.0076 C.ar    
   9 C9             2.6694     5.7599     0.0068 C.ar    
  10 C10            1.3025     5.4998     0.0189 C.ar    
  11 C11            0.8455     4.1942     0.0098 C.ar    
  12 O12            0.4149     6.5302     0.0334 O.3     
  13 C13           -0.9731     6.1907     0.0452 C.3     
  14 O14            3.1160     7.0446     0.0095 O.3     
  15 C15            3.3169     7.6643    -1.2623 C.3     
  16 O16            4.9156     4.9658    -0.0189 O.3     
  17 C17            5.7937     3.8385    -0.0329 C.3     
  18 C18           -2.4679    -0.3629     0.0237 C.ar    
  19 C19           -1.1769    -0.8944     0.0085 C.ar    
  20 C20           -1.0186    -2.2855    -0.0010 C.ar    
  21 C21           -2.1552    -3.0749     0.0052 C.ar    
  22 C22           -3.3993    -2.4706     0.0204 C.ar    
  23 N23           -3.5185    -1.1566     0.0294 N.ar    
  24 H24            3.8362     2.5845    -0.0204 H       
  25 H25           -0.2155     3.9929     0.0140 H       
  26 H26           -1.1952     5.6003     0.9341 H       
  27 H27           -1.5701     7.1026     0.0562 H       
  28 H28           -1.2128     5.6102    -0.8457 H       
  29 H29            4.0560     7.0986    -1.8295 H       
  30 H30            2.3748     7.6829    -1.8103 H       
  31 H31            3.6731     8.6843    -1.1174 H       
  32 H32            5.6201     3.2316     0.8557 H       
  33 H33            5.6033     3.2406    -0.9242 H       
  34 H34            6.8277     4.1835    -0.0409 H       
  35 H35           -2.6059     0.7081     0.0356 H       
  36 H36           -0.0348    -2.7310    -0.0131 H       
  37 H37           -2.0717    -4.1516    -0.0021 H       
  38 H38           -4.2878    -3.0845     0.0252 H       
@<TRIPOS>BOND
   1    1    2 1
   2    1    5 1
   3    2    3 2
   4    2   19 1
   5    3    4 1
   6    4    5 2
   7    5    6 1
   8    6    7 ar
   9    6   11 ar
  10    7    8 ar
  11    7   24 1
  12    8    9 ar
  13    8   16 1
  14    9   10 ar
  15    9   14 1
  16   10   11 ar
  17   10   12 1
  18   11   25 1
  19   12   13 1
  20   13   26 1
  21   13   27 1
  22   13   28 1
  23   14   15 1
  24   15   29 1
  25   15   30 1
  26   15   31 1
  27   16   17 1
  28   17   32 1
  29   17   33 1
  30   17   34 1
  31   18   19 ar
  32   18   23 ar
  33   18   35 1
  34   19   20 ar
  35   20   21 ar
  36   20   36 1
  37   21   22 ar
  38   21   37 1
  39   22   23 ar
  40   22   38 1

#	End of record

