#	Name: ASD01900971
#	Creating user name:	WinNT
#	Creation time:	15. 06. 2019 19:52

#	Modifying user name:	WinNT
#	Modification time:	15. 06. 2019 19:52

#	Program:	/corina/corina34_cracker 3.40 0067  02.08.2006

@<TRIPOS>MOLECULE
ASD01900971
  55   59    0    0    0
SMALL
NO_CHARGES


@<TRIPOS>ATOM
   1 C1             0.0993     1.4868    -1.2842 C.ar    
   2 C2             0.0458     0.1102    -1.2764 C.ar    
   3 C3             1.0355    -0.6298    -0.6419 C.ar    
   4 C4             2.0847     0.0070    -0.0017 C.ar    
   5 C5             2.1475     1.3894     0.0036 C.ar    
   6 C6             1.1561     2.1417    -0.6509 C.ar    
   7 N7             3.1764     2.0647     0.6555 N.pl3   
   8 C8             3.5286     3.4071     0.1870 C.3     
   9 N9             2.3662     4.2098    -0.1856 N.am    
  10 C10            1.2483     3.6112    -0.6499 C.2     
  11 C11            2.4107     5.6039    -0.0595 C.ar    
  12 C12            1.9616     6.2107     1.1061 C.ar    
  13 C13            2.0063     7.5852     1.2299 C.ar    
  14 C14            2.4996     8.3600     0.1902 C.ar    
  15 C15            2.9480     7.7546    -0.9746 C.ar    
  16 C16            2.9093     6.3797    -1.0976 C.ar    
  17 O17            0.3228     4.2822    -1.0655 O.2     
  18 O18            2.5433     9.7135     0.3129 O.3     
  19 C19            4.5112     4.1382     1.1123 C.3     
  20 C20            3.0633    10.4489    -0.7965 C.3     
  21 N21            5.1922     4.5770    -0.1267 N.3     
  22 C22            4.6470     3.4148    -0.8639 C.3     
  23 C23            6.6513     4.4760     0.0106 C.3     
  24 C24            7.3041     4.8123    -1.3054 C.ar    
  25 C25            8.3973     4.0858    -1.7395 C.ar    
  26 C26            8.9978     4.3923    -2.9461 C.ar    
  27 C27            8.5047     5.4276    -3.7212 C.ar    
  28 C28            7.4083     6.1562    -3.2858 C.ar    
  29 C29            6.8058     5.8431    -2.0797 C.ar    
  30 F30            6.9253     7.1672    -4.0407 F       
  31 F31            0.9734    -1.9794    -0.6493 F       
  32 C32            7.1317     5.4556     1.0832 C.3     
  33 F33            6.5257     5.1434     2.3049 F       
  34 F34            8.5212     5.3593     1.2139 F       
  35 F35            6.7874     6.7596     0.7117 F       
  36 F36            9.0913     5.7282    -4.9005 F       
  37 F37            2.2812    10.1992    -1.9293 F       
  38 F38            3.0359    11.8166    -0.5033 F       
  39 F39            4.3817    10.0511    -1.0430 F       
  40 H40           -0.6712     2.0565    -1.7823 H       
  41 H41           -0.7717    -0.3973    -1.7669 H       
  42 H42            2.8508    -0.5726     0.4918 H       
  43 H43            3.6467     1.6573     1.3997 H       
  44 H44            1.5772     5.6076     1.9154 H       
  45 H45            1.6568     8.0573     2.1362 H       
  46 H46            3.3316     8.3584    -1.7837 H       
  47 H47            3.2625     5.9083    -2.0028 H       
  48 H48            4.0591     4.9531     1.6776 H       
  49 H49            5.1114     3.4711     1.7311 H       
  50 H50            5.2874     2.5334    -0.8305 H       
  51 H51            4.3030     3.6545    -1.8700 H       
  52 H52            6.9195     3.4600     0.3000 H       
  53 H53            8.7828     3.2780    -1.1350 H       
  54 H54            9.8519     3.8242    -3.2840 H       
  55 H55            5.9489     6.4068    -1.7417 H       
@<TRIPOS>BOND
   1    1    2 ar
   2    1    6 ar
   3    1   40 1
   4    2    3 ar
   5    2   41 1
   6    3    4 ar
   7    3   31 1
   8    4    5 ar
   9    4   42 1
  10    5    7 1
  11    5    6 ar
  12    6   10 1
  13    7    8 1
  14    7   43 1
  15    8    9 1
  16    8   19 1
  17    8   22 1
  18    9   10 am
  19    9   11 1
  20   10   17 2
  21   11   12 ar
  22   11   16 ar
  23   12   13 ar
  24   12   44 1
  25   13   14 ar
  26   13   45 1
  27   14   15 ar
  28   14   18 1
  29   15   16 ar
  30   15   46 1
  31   16   47 1
  32   18   20 1
  33   19   21 1
  34   19   48 1
  35   19   49 1
  36   20   37 1
  37   20   38 1
  38   20   39 1
  39   21   23 1
  40   21   22 1
  41   22   50 1
  42   22   51 1
  43   23   24 1
  44   23   32 1
  45   23   52 1
  46   24   25 ar
  47   24   29 ar
  48   25   26 ar
  49   25   53 1
  50   26   27 ar
  51   26   54 1
  52   27   28 ar
  53   27   36 1
  54   28   29 ar
  55   28   30 1
  56   29   55 1
  57   32   33 1
  58   32   34 1
  59   32   35 1

#	End of record

