#	Name: ASD01885439
#	Creating user name:	WinNT
#	Creation time:	15. 06. 2019 19:49

#	Modifying user name:	WinNT
#	Modification time:	15. 06. 2019 19:49

#	Program:	/corina/corina34_cracker 3.40 0067  02.08.2006

@<TRIPOS>MOLECULE
ASD01885439
  38   40    0    0    0
SMALL
NO_CHARGES


@<TRIPOS>ATOM
   1 C1             0.1991     1.2196     0.1507 C.ar    
   2 C2             0.3138    -0.1703     0.1732 C.ar    
   3 N3            -0.7463    -1.0152     0.2419 N.2     
   4 C4            -1.8529    -0.9004    -0.3971 C.2     
   5 C5            -2.1215     0.2644    -1.3136 C.3     
   6 C6            -2.1106     1.5252    -0.4868 C.2     
   7 N7            -1.0154     1.8925     0.1784 N.am    
   8 C8             1.3526     2.0007     0.0914 C.ar    
   9 C9             2.6046     1.4108     0.0499 C.ar    
  10 C10            2.7198     0.0243     0.0667 C.ar    
  11 C11            1.5914    -0.7568     0.1274 C.ar    
  12 C12           -2.8877    -1.9351    -0.2305 C.ar    
  13 O13           -3.1080     2.2127    -0.4278 O.2     
  14 C14           -2.6198    -3.0792     0.5282 C.ar    
  15 C15           -3.5890    -4.0496     0.6849 C.ar    
  16 C16           -4.8282    -3.8990     0.0948 C.ar    
  17 C17           -5.1107    -2.7611    -0.6662 C.ar    
  18 C18           -4.1404    -1.7740    -0.8243 C.ar    
  19 C19           -6.3966    -2.6077    -1.2775 C.1     
  20 N20           -7.4166    -2.4861    -1.7624 N.1     
  21 N21            3.7519     2.2076    -0.0094 N.am    
  22 C22            4.8786     1.8143     0.6171 C.2     
  23 O23            4.8706     0.8204     1.3122 O.2     
  24 C24            6.1482     2.6095     0.4539 C.3     
  25 H25           -1.3455     0.3183    -2.0771 H       
  26 H26           -3.0960     0.1431    -1.7867 H       
  27 H27           -1.0710     2.6912     0.7261 H       
  28 H28            1.2687     3.0773     0.0774 H       
  29 H29            3.6955    -0.4374     0.0319 H       
  30 H30            1.6862    -1.8325     0.1404 H       
  31 H31           -1.6524    -3.2039     0.9920 H       
  32 H32           -3.3769    -4.9311     1.2717 H       
  33 H33           -5.5813    -4.6628     0.2213 H       
  34 H34           -4.3536    -0.8926    -1.4110 H       
  35 H35            3.7370     3.0435    -0.5013 H       
  36 H36            5.9622     3.4606    -0.2013 H       
  37 H37            6.4808     2.9671     1.4284 H       
  38 H38            6.9200     1.9761     0.0165 H       
@<TRIPOS>BOND
   1    1    2 ar
   2    1    8 ar
   3    1    7 1
   4    2    3 1
   5    2   11 ar
   6    3    4 2
   7    4    5 1
   8    4   12 1
   9    5    6 1
  10    5   25 1
  11    5   26 1
  12    6    7 am
  13    6   13 2
  14    7   27 1
  15    8    9 ar
  16    8   28 1
  17    9   10 ar
  18    9   21 1
  19   10   11 ar
  20   10   29 1
  21   11   30 1
  22   12   14 ar
  23   12   18 ar
  24   14   15 ar
  25   14   31 1
  26   15   16 ar
  27   15   32 1
  28   16   17 ar
  29   16   33 1
  30   17   18 ar
  31   17   19 1
  32   18   34 1
  33   19   20 3
  34   21   22 am
  35   21   35 1
  36   22   23 2
  37   22   24 1
  38   24   36 1
  39   24   37 1
  40   24   38 1

#	End of record

