#	Name: ASD03331571
#	Creating user name:	WinNT
#	Creation time:	15. 06. 2019 20:39

#	Modifying user name:	WinNT
#	Modification time:	15. 06. 2019 20:39

#	Program:	/corina/corina34_cracker 3.40 0067  02.08.2006

@<TRIPOS>MOLECULE
ASD03331571
  62   63    0    0    0
SMALL
NO_CHARGES


@<TRIPOS>ATOM
   1 C1             1.3302     0.2070    -0.6081 C.3     
   2 C2             1.7597    -1.2608    -0.5629 C.3     
   3 C3             2.5422     1.0899    -0.4571 C.2     
   4 N4             3.3085     1.5564    -1.4746 N.pl3   
   5 C5             4.3101     2.2895    -0.9276 C.2     
   6 C6             4.1238     2.2839     0.4180 C.2     
   7 N7             3.0196     1.5328     0.6714 N.2     
   8 C8             4.9610     2.9695     1.4178 C.2     
   9 O9             5.9259     3.6183     1.0609 O.2     
  10 N10            4.6577     2.8778     2.7277 N.am    
  11 C11            5.4902     3.5596     3.7219 C.3     
  12 C12            5.3642     2.8574     5.0493 C.2     
  13 C13            3.0948     1.3383    -2.9079 C.3     
  14 C14            4.4354     1.4279    -3.6407 C.3     
  15 O15            4.7028     2.7843    -4.0020 O.3     
  16 C16            4.8096     3.6849    -2.9029 C.3     
  17 C17            5.4180     2.9520    -1.7027 C.3     
  18 C18            0.5293    -2.1572    -0.7162 C.3     
  19 C19            5.0268     5.0106     3.8664 C.3     
  20 C20            3.5664     5.0365     4.3219 C.3     
  21 C21            5.8972     5.7230     4.9036 C.3     
  22 C22            5.1534     5.7231     2.5184 C.3     
  23 O23            4.4195     2.1272     5.2617 O.2     
  24 N24            6.3014     3.0408     6.0003 N.am    
  25 C25            6.1348     2.4283     7.3207 C.3     
  26 O26           -0.3862    -1.8957     0.3493 O.3     
  27 C27           -0.1503    -1.8657    -2.0557 C.3     
  28 C28            0.9588    -3.6250    -0.6710 C.3     
  29 H29            0.8461     0.4146    -1.5623 H       
  30 H30            0.6319     0.4064     0.2047 H       
  31 H31            2.4581    -1.4602    -1.3757 H       
  32 H32            2.2439    -1.4685     0.3913 H       
  33 H33            3.8882     2.3604     3.0123 H       
  34 H34            6.5310     3.5411     3.3984 H       
  35 H35            2.6601     0.3510    -3.0646 H       
  36 H36            2.4174     2.0997    -3.2946 H       
  37 H37            5.2294     1.0637    -2.9888 H       
  38 H38            4.3978     0.8142    -4.5407 H       
  39 H39            5.4496     4.5226    -3.1801 H       
  40 H40            3.8191     4.0555    -2.6389 H       
  41 H41            5.9355     3.6663    -1.0623 H       
  42 H42            6.1209     2.1966    -2.0537 H       
  43 H43            3.4762     4.5289     5.2822 H       
  44 H44            3.2362     6.0702     4.4249 H       
  45 H45            2.9463     4.5290     3.5829 H       
  46 H46            6.9355     5.7176     4.5720 H       
  47 H47            5.5575     6.7524     5.0175 H       
  48 H48            5.8187     5.2065     5.8603 H       
  49 H49            4.5333     5.2156     1.7795 H       
  50 H50            4.8232     6.7568     2.6214 H       
  51 H51            6.1938     5.7046     2.1940 H       
  52 H52            7.0862     3.5784     5.8106 H       
  53 H53            5.2180     2.7981     7.7797 H       
  54 H54            6.0764     1.3451     7.2139 H       
  55 H55            6.9861     2.6859     7.9507 H       
  56 H56           -0.0219    -2.0594     1.2300 H       
  57 H57            0.5481    -2.0651    -2.8684 H       
  58 H58           -1.0269    -2.5043    -2.1649 H       
  59 H59           -0.4563    -0.8200    -2.0879 H       
  60 H60            1.4430    -3.8326     0.2832 H       
  61 H61            0.0822    -4.2636    -0.7803 H       
  62 H62            1.6572    -3.8244    -1.4838 H       
@<TRIPOS>BOND
   1    1    2 1
   2    1    3 1
   3    1   29 1
   4    1   30 1
   5    2   18 1
   6    2   31 1
   7    2   32 1
   8    3    4 1
   9    3    7 2
  10    4    5 1
  11    4   13 1
  12    5    6 2
  13    5   17 1
  14    6    7 1
  15    6    8 1
  16    8    9 2
  17    8   10 am
  18   10   11 1
  19   10   33 1
  20   11   12 1
  21   11   19 1
  22   11   34 1
  23   12   23 2
  24   12   24 am
  25   13   14 1
  26   13   35 1
  27   13   36 1
  28   14   15 1
  29   14   37 1
  30   14   38 1
  31   15   16 1
  32   16   17 1
  33   16   39 1
  34   16   40 1
  35   17   41 1
  36   17   42 1
  37   18   26 1
  38   18   27 1
  39   18   28 1
  40   19   20 1
  41   19   21 1
  42   19   22 1
  43   20   43 1
  44   20   44 1
  45   20   45 1
  46   21   46 1
  47   21   47 1
  48   21   48 1
  49   22   49 1
  50   22   50 1
  51   22   51 1
  52   24   25 1
  53   24   52 1
  54   25   53 1
  55   25   54 1
  56   25   55 1
  57   26   56 1
  58   27   57 1
  59   27   58 1
  60   27   59 1
  61   28   60 1
  62   28   61 1
  63   28   62 1

#	End of record

