#	Name: ASD02560036
#	Creating user name:	WinNT
#	Creation time:	15. 06. 2019 20:24

#	Modifying user name:	WinNT
#	Modification time:	15. 06. 2019 20:24

#	Program:	/corina/corina34_cracker 3.40 0067  02.08.2006

@<TRIPOS>MOLECULE
ASD02560036
  54   57    0    0    0
SMALL
NO_CHARGES


@<TRIPOS>ATOM
   1 C1            -0.0170     1.4044     0.0098 C.2     
   2 C2             0.0021    -0.0041     0.0020 C.2     
   3 N3             1.1325    -0.6654    -0.0123 N.2     
   4 N4             2.3545     0.0144    -0.0203 N.pl3   
   5 C5             2.3674     1.3965    -0.0130 C.2     
   6 C6             1.1498     2.1022     0.0024 C.2     
   7 C7             3.6375    -0.3899    -0.0351 C.2     
   8 N8             4.4256     0.6582    -0.0373 N.2     
   9 C9             3.6963     1.7731    -0.0241 C.2     
  10 N10           -1.2066    -0.7082     0.0102 N.pl3   
  11 C11           -1.3562    -2.0717     0.0044 C.2     
  12 C12           -2.6795    -2.3187     0.0162 C.2     
  13 N13           -3.3254    -1.1430     0.0289 N.2     
  14 C14           -2.4548    -0.1709     0.0314 C.2     
  15 C15            4.2240     3.1847    -0.0227 C.3     
  16 C16            4.0977    -1.8249    -0.0469 C.3     
  17 C17            4.2391    -2.3033    -1.4933 C.3     
  18 C18            4.7063    -3.7601    -1.5053 C.3     
  19 C19            4.8477    -4.2385    -2.9516 C.3     
  20 C20            5.3149    -5.6954    -2.9636 C.3     
  21 C21            5.4562    -6.1738    -4.4100 C.3     
  22 C22            5.9164    -7.6087    -4.4218 C.2     
  23 C23            6.1284    -8.3030    -5.7020 C.ar    
  24 C24            6.5555    -9.6347    -5.7171 C.ar    
  25 C25            6.7519   -10.2782    -6.9206 C.ar    
  26 C26            6.5280    -9.6096    -8.1116 C.ar    
  27 C27            6.1053    -8.2918    -8.1050 C.ar    
  28 C28            5.8984    -7.6363    -6.9096 C.ar    
  29 O29            6.1120    -8.1913    -3.3765 O.2     
  30 H30           -0.9600     1.9307     0.0171 H       
  31 H31            1.1424     3.1822     0.0086 H       
  32 H32           -0.5644    -2.8061    -0.0079 H       
  33 H33           -3.1414    -3.2949     0.0155 H       
  34 H34           -2.6872     0.8837     0.0408 H       
  35 H35            4.3408     3.5299    -1.0499 H       
  36 H36            3.5228     3.8341     0.5014 H       
  37 H37            5.1900     3.2110     0.4815 H       
  38 H38            5.0612    -1.9016     0.4570 H       
  39 H39            3.3664    -2.4452     0.4712 H       
  40 H40            3.2756    -2.2265    -1.9972 H       
  41 H41            4.9704    -1.6829    -2.0113 H       
  42 H42            5.6698    -3.8368    -1.0014 H       
  43 H43            3.9749    -4.3805    -0.9872 H       
  44 H44            3.8842    -4.1618    -3.4555 H       
  45 H45            5.5790    -3.6181    -3.4697 H       
  46 H46            6.2784    -5.7721    -2.4597 H       
  47 H47            4.5835    -6.3157    -2.4456 H       
  48 H48            4.4927    -6.0971    -4.9139 H       
  49 H49            6.1876    -5.5534    -4.9281 H       
  50 H50            6.7313   -10.1574    -4.7885 H       
  51 H51            7.0816   -11.3066    -6.9340 H       
  52 H52            6.6843   -10.1189    -9.0511 H       
  53 H53            5.9331    -7.7767    -9.0385 H       
  54 H54            5.5685    -6.6079    -6.9061 H       
@<TRIPOS>BOND
   1    1    2 1
   2    1    6 2
   3    1   30 1
   4    2    3 2
   5    2   10 1
   6    3    4 1
   7    4    5 1
   8    4    7 1
   9    5    6 1
  10    5    9 2
  11    6   31 1
  12    7    8 2
  13    7   16 1
  14    8    9 1
  15    9   15 1
  16   10   11 1
  17   10   14 1
  18   11   12 2
  19   11   32 1
  20   12   13 1
  21   12   33 1
  22   13   14 2
  23   14   34 1
  24   15   35 1
  25   15   36 1
  26   15   37 1
  27   16   17 1
  28   16   38 1
  29   16   39 1
  30   17   18 1
  31   17   40 1
  32   17   41 1
  33   18   19 1
  34   18   42 1
  35   18   43 1
  36   19   20 1
  37   19   44 1
  38   19   45 1
  39   20   21 1
  40   20   46 1
  41   20   47 1
  42   21   22 1
  43   21   48 1
  44   21   49 1
  45   22   23 1
  46   22   29 2
  47   23   24 ar
  48   23   28 ar
  49   24   25 ar
  50   24   50 1
  51   25   26 ar
  52   25   51 1
  53   26   27 ar
  54   26   52 1
  55   27   28 ar
  56   27   53 1
  57   28   54 1

#	End of record

