#	Name: ASD01814683
#	Creating user name:	WinNT
#	Creation time:	15. 06. 2019 19:32

#	Modifying user name:	WinNT
#	Modification time:	15. 06. 2019 19:32

#	Program:	/corina/corina34_cracker 3.40 0067  02.08.2006

@<TRIPOS>MOLECULE
ASD01814683
  53   57    0    0    0
SMALL
NO_CHARGES


@<TRIPOS>ATOM
   1 C1            -0.5897     1.2433    -0.6596 C.2     
   2 N2            -1.9063     1.4466    -0.9835 N.pl3   
   3 N3            -2.5284     0.1949    -1.0343 N.2     
   4 C4            -1.6381    -0.7356    -0.7550 C.2     
   5 C5            -0.4170    -0.1282    -0.5150 C.2     
   6 C6            -1.4741    -2.2280    -0.6033 C.3     
   7 N7            -0.0742    -2.4902    -0.2554 N.am    
   8 C8             0.6038    -1.1912    -0.1998 C.3     
   9 C9            -2.3666     2.7162    -1.1881 C.2     
  10 C10           -1.5062     3.7573    -1.0660 C.2     
  11 C11           -0.1658     3.5087    -0.7330 C.2     
  12 N12            0.2522     2.2790    -0.5460 N.2     
  13 C13            0.4843    -3.6964    -0.0326 C.2     
  14 C14           -0.3575    -4.9080    -0.0191 C.ar    
  15 O15            1.6819    -3.7861     0.1574 O.2     
  16 C16           -0.2092    -5.8581     1.0007 C.ar    
  17 C17           -1.0058    -6.9932     1.0034 C.ar    
  18 C18           -1.9405    -7.1852     0.0052 C.ar    
  19 C19           -2.0898    -6.2490    -1.0046 C.ar    
  20 C20           -1.3108    -5.1120    -1.0194 C.ar    
  21 O21            0.7097    -5.6683     1.9804 O.3     
  22 Cl22          -2.0582     5.3835    -1.3199 Cl      
  23 C23            0.7988     4.6584    -0.5952 C.3     
  24 C24           -3.8107     2.9567    -1.5453 C.3     
  25 C25            0.7267    -6.6192     3.0470 C.3     
  26 C26            1.6174    -7.8045     2.6625 C.3     
  27 C27            1.2886    -5.9613     4.3111 C.3     
  28 C28            1.3766    -7.0074     5.4254 C.3     
  29 O29            2.1939    -8.0963     4.9912 O.3     
  30 C30            1.6927    -8.7795     3.8405 C.3     
  31 H31           -2.1264    -2.5925     0.1902 H       
  32 H32           -1.7205    -2.7240    -1.5422 H       
  33 H33            1.4075    -1.1614    -0.9355 H       
  34 H34            1.0096    -1.0292     0.7988 H       
  35 H35           -0.8948    -7.7281     1.7870 H       
  36 H36           -2.5585    -8.0709     0.0116 H       
  37 H37           -2.8230    -6.4084    -1.7813 H       
  38 H38           -1.4339    -4.3824    -1.8060 H       
  39 H39            0.7977     5.0120     0.4358 H       
  40 H40            1.8014     4.3257    -0.8641 H       
  41 H41            0.4951     5.4689    -1.2577 H       
  42 H42           -4.3930     3.0906    -0.6337 H       
  43 H43           -3.8884     3.8528    -2.1610 H       
  44 H44           -4.1954     2.1006    -2.0996 H       
  45 H45           -0.2872    -6.9704     3.2386 H       
  46 H46            1.1940    -8.3123     1.7959 H       
  47 H47            2.6182    -7.4454     2.4224 H       
  48 H48            2.2827    -5.5649     4.1043 H       
  49 H49            0.6300    -5.1509     4.6235 H       
  50 H50            1.8157    -6.5553     6.3146 H       
  51 H51            0.3771    -7.3740     5.6596 H       
  52 H52            0.6974    -9.1692     4.0540 H       
  53 H53            2.3596    -9.6038     3.5880 H       
@<TRIPOS>BOND
   1    1    5 2
   2    1   12 1
   3    1    2 1
   4    2    3 1
   5    2    9 1
   6    3    4 2
   7    4    6 1
   8    4    5 1
   9    5    8 1
  10    6    7 1
  11    6   31 1
  12    6   32 1
  13    7    8 1
  14    7   13 am
  15    8   33 1
  16    8   34 1
  17    9   10 2
  18    9   24 1
  19   10   11 1
  20   10   22 1
  21   11   12 2
  22   11   23 1
  23   13   14 1
  24   13   15 2
  25   14   16 ar
  26   14   20 ar
  27   16   17 ar
  28   16   21 1
  29   17   18 ar
  30   17   35 1
  31   18   19 ar
  32   18   36 1
  33   19   20 ar
  34   19   37 1
  35   20   38 1
  36   21   25 1
  37   23   39 1
  38   23   40 1
  39   23   41 1
  40   24   42 1
  41   24   43 1
  42   24   44 1
  43   25   27 1
  44   25   26 1
  45   25   45 1
  46   26   30 1
  47   26   46 1
  48   26   47 1
  49   27   28 1
  50   27   48 1
  51   27   49 1
  52   28   29 1
  53   28   50 1
  54   28   51 1
  55   29   30 1
  56   30   52 1
  57   30   53 1

#	End of record

