#	Name: ASD01882837
#	Creating user name:	WinNT
#	Creation time:	15. 06. 2019 19:45

#	Modifying user name:	WinNT
#	Modification time:	15. 06. 2019 19:45

#	Program:	/corina/corina34_cracker 3.40 0067  02.08.2006

@<TRIPOS>MOLECULE
ASD01882837
  37   39    0    0    0
SMALL
NO_CHARGES


@<TRIPOS>ATOM
   1 O1            -0.0173     1.4248     0.0099 O.3     
   2 C2             0.0021    -0.0041     0.0020 C.3     
   3 C3             1.2831     0.8325    -0.0057 C.3     
   4 C4            -0.3928    -0.7153    -1.2938 C.3     
   5 O5            -1.5767    -1.4845    -1.0733 O.3     
   6 C6            -2.0647    -2.1832    -2.1319 C.ar    
   7 C7            -3.2110    -2.9513    -1.9886 C.ar    
   8 C8            -3.7050    -3.6606    -3.0662 C.ar    
   9 C9            -3.0579    -3.6055    -4.2868 C.ar    
  10 C10           -1.9149    -2.8411    -4.4321 C.ar    
  11 C11           -1.4204    -2.1250    -3.3592 C.ar    
  12 C12           -3.5989    -4.3803    -5.4607 C.3     
  13 C13           -3.9424    -3.4132    -6.5954 C.3     
  14 C14           -4.4917    -4.1999    -7.7872 C.3     
  15 C15           -3.4369    -5.1979    -8.2693 C.3     
  16 C16           -3.0934    -6.1650    -7.1346 C.3     
  17 C17           -2.5442    -5.3783    -5.9428 C.3     
  18 H18           -0.2616    -0.5207     0.9249 H       
  19 H19            1.8523     0.8812    -0.9340 H       
  20 H20            1.8699     0.8713     0.9120 H       
  21 H21           -0.5799     0.0247    -2.0719 H       
  22 H22            0.4162    -1.3753    -1.6071 H       
  23 H23           -3.7167    -2.9949    -1.0352 H       
  24 H24           -4.5972    -4.2590    -2.9550 H       
  25 H25           -1.4108    -2.8003    -5.3864 H       
  26 H26           -0.5304    -1.5242    -3.4744 H       
  27 H27           -4.4969    -4.9187    -5.1578 H       
  28 H28           -4.6938    -2.7023    -6.2519 H       
  29 H29           -3.0443    -2.8748    -6.8983 H       
  30 H30           -5.3897    -4.7383    -7.4844 H       
  31 H31           -4.7363    -3.5109    -8.5956 H       
  32 H32           -3.8282    -5.7583    -9.1184 H       
  33 H33           -2.5389    -4.6595    -8.5722 H       
  34 H34           -3.9915    -6.7034    -6.8317 H       
  35 H35           -2.3420    -6.8759    -7.4781 H       
  36 H36           -1.6461    -4.8399    -6.2456 H       
  37 H37           -2.2995    -6.0673    -5.1344 H       
@<TRIPOS>BOND
   1    1    2 1
   2    1    3 1
   3    2    3 1
   4    2    4 1
   5    2   18 1
   6    3   19 1
   7    3   20 1
   8    4    5 1
   9    4   21 1
  10    4   22 1
  11    5    6 1
  12    6    7 ar
  13    6   11 ar
  14    7    8 ar
  15    7   23 1
  16    8    9 ar
  17    8   24 1
  18    9   10 ar
  19    9   12 1
  20   10   11 ar
  21   10   25 1
  22   11   26 1
  23   12   13 1
  24   12   17 1
  25   12   27 1
  26   13   14 1
  27   13   28 1
  28   13   29 1
  29   14   15 1
  30   14   30 1
  31   14   31 1
  32   15   16 1
  33   15   32 1
  34   15   33 1
  35   16   17 1
  36   16   34 1
  37   16   35 1
  38   17   36 1
  39   17   37 1

#	End of record

