#	Name: ASD04910037
#	Creating user name:	WinNT
#	Creation time:	15. 06. 2019 20:55

#	Modifying user name:	WinNT
#	Modification time:	15. 06. 2019 20:55

#	Program:	/corina/corina34_cracker 3.40 0067  02.08.2006

@<TRIPOS>MOLECULE
ASD04910037
  62   65    0    0    0
SMALL
NO_CHARGES


@<TRIPOS>ATOM
   1 C1            -0.1491     1.3905     0.9659 C.2     
   2 C2            -0.1014    -0.1115     0.8530 C.3     
   3 C3             1.3474    -0.5624     0.6565 C.3     
   4 O4             0.8710     2.0342     0.8964 O.2     
   5 O5            -1.3255     2.0136     1.1382 O.3     
   6 C6             2.5743    -2.6478     0.3682 C.2     
   7 C7             2.6211    -4.1214     0.2575 C.ar    
   8 C8             3.8420    -4.7720     0.0725 C.ar    
   9 C9             3.8787    -6.1472    -0.0296 C.ar    
  10 C10            2.7087    -6.8814     0.0505 C.ar    
  11 C11            1.4952    -6.2427     0.2337 C.ar    
  12 C12            1.4451    -4.8684     0.3431 C.ar    
  13 O13            3.6005    -2.0002     0.2983 O.2     
  14 N14            1.3937    -2.0226     0.5468 N.am    
  15 C15            2.7564    -8.3834    -0.0629 C.3     
  16 N16            1.6211    -8.8490    -0.8633 N.pl3   
  17 C17            2.8457    -8.3973    -2.8995 C.ar    
  18 C18            1.7226    -8.9006    -2.2573 C.ar    
  19 C19            0.6979    -9.4583    -3.0193 C.ar    
  20 C20            0.8419    -9.4883    -4.3953 C.ar    
  21 C21            1.9945    -8.9654    -4.9673 C.ar    
  22 N22            2.9478    -8.4432    -4.2133 N.ar    
  23 C23            1.2265    -9.4039    -7.2664 C.2     
  24 N24            1.7361    -9.2817    -8.4616 N.2     
  25 C25            2.9825    -8.7952    -8.3659 C.2     
  26 C26            3.2616    -8.6066    -7.0623 C.2     
  27 N27            2.1494    -8.9916    -6.3584 N.pl3   
  28 C28            3.9104    -8.5095    -9.5185 C.3     
  29 F29            3.2345    -8.7215   -10.7249 F       
  30 F30            4.3406    -7.1799    -9.4524 F       
  31 F31            5.0175    -9.3619    -9.4482 F       
  32 C32            2.6836    -9.0029     1.3342 C.3     
  33 C33            2.6887   -10.5382     1.2309 C.3     
  34 C34            3.9404   -11.0266     1.9889 C.3     
  35 C35            4.2556    -9.8795     2.9807 C.3     
  36 C36            3.9323    -8.6120     2.1513 C.3     
  37 H37           -0.5003    -0.5572     1.7642 H       
  38 H38           -0.7002    -0.4309     0.0001 H       
  39 H39            1.7462    -0.1167    -0.2547 H       
  40 H40            1.9462    -0.2430     1.5095 H       
  41 H41           -1.3057     2.9780     1.2052 H       
  42 H42            4.7559    -4.1999     0.0092 H       
  43 H43            4.8228    -6.6519    -0.1727 H       
  44 H44            0.5855    -6.8216     0.2954 H       
  45 H45            0.4977    -4.3713     0.4906 H       
  46 H46            0.5748    -2.5394     0.6026 H       
  47 H47            3.6874    -8.6821    -0.5447 H       
  48 H48            0.7990    -9.1214    -0.4265 H       
  49 H49            3.6426    -7.9592    -2.3170 H       
  50 H50           -0.1874    -9.8579    -2.5472 H       
  51 H51            0.0677    -9.9134    -5.0167 H       
  52 H52            0.2356    -9.7674    -7.0376 H       
  53 H53            4.1842    -8.2253    -6.6502 H       
  54 H54            1.7816    -8.6661     1.8451 H       
  55 H55            1.7897   -10.9465     1.6925 H       
  56 H56            2.7431   -10.8419     0.1855 H       
  57 H57            3.7241   -11.9487     2.5284 H       
  58 H58            4.7713   -11.1733     1.2988 H       
  59 H59            3.6129    -9.9407     3.8590 H       
  60 H60            5.3069    -9.8952     3.2682 H       
  61 H61            4.7618    -8.3687     1.4874 H       
  62 H62            3.7100    -7.7719     2.8093 H       
@<TRIPOS>BOND
   1    1    2 1
   2    1    4 2
   3    1    5 1
   4    2    3 1
   5    2   37 1
   6    2   38 1
   7    3   14 1
   8    3   39 1
   9    3   40 1
  10    5   41 1
  11    6    7 1
  12    6   13 2
  13    6   14 am
  14    7    8 ar
  15    7   12 ar
  16    8    9 ar
  17    8   42 1
  18    9   10 ar
  19    9   43 1
  20   10   11 ar
  21   10   15 1
  22   11   12 ar
  23   11   44 1
  24   12   45 1
  25   14   46 1
  26   15   16 1
  27   15   32 1
  28   15   47 1
  29   16   18 1
  30   16   48 1
  31   17   18 ar
  32   17   22 ar
  33   17   49 1
  34   18   19 ar
  35   19   20 ar
  36   19   50 1
  37   20   21 ar
  38   20   51 1
  39   21   22 ar
  40   21   27 1
  41   23   24 2
  42   23   27 1
  43   23   52 1
  44   24   25 1
  45   25   26 2
  46   25   28 1
  47   26   27 1
  48   26   53 1
  49   28   29 1
  50   28   30 1
  51   28   31 1
  52   32   33 1
  53   32   36 1
  54   32   54 1
  55   33   34 1
  56   33   55 1
  57   33   56 1
  58   34   35 1
  59   34   57 1
  60   34   58 1
  61   35   36 1
  62   35   59 1
  63   35   60 1
  64   36   61 1
  65   36   62 1

#	End of record

