#	Name: ASD01915042
#	Creating user name:	WinNT
#	Creation time:	15. 06. 2019 20:04

#	Modifying user name:	WinNT
#	Modification time:	15. 06. 2019 20:04

#	Program:	/corina/corina34_cracker 3.40 0067  02.08.2006

@<TRIPOS>MOLECULE
ASD01915042
  37   39    0    0    0
SMALL
NO_CHARGES


@<TRIPOS>ATOM
   1 C1            -0.0180     1.4738     0.0101 C.2     
   2 C2             0.0021    -0.0041     0.0020 C.ar    
   3 C3             1.2183    -0.6875    -0.0133 C.ar    
   4 C4             1.2289    -2.0738    -0.0203 C.ar    
   5 C5             0.0302    -2.7780    -0.0122 C.ar    
   6 C6            -1.1745    -2.1008     0.0030 C.ar    
   7 C7            -1.1958    -0.7208     0.0154 C.ar    
   8 O8             1.0262     2.0958     0.0035 O.2     
   9 N9            -1.1942     2.1318     0.0193 N.am    
  10 N10            2.4440    -2.7631    -0.0361 N.pl3   
  11 C11            3.7071    -2.0209    -0.0452 C.3     
  12 C12            2.4551    -4.2280    -0.0436 C.3     
  13 C13           -1.2130     3.5152     0.0269 C.2     
  14 N14           -0.1061     4.3143     0.0260 N.pl3   
  15 C15           -0.5471     5.6265     0.0347 C.ar    
  16 C16           -1.9509     5.5664     0.0408 C.ar    
  17 N17           -2.2945     4.2521     0.0303 N.2     
  18 C18           -2.6898     6.7520     0.0506 C.ar    
  19 C19           -2.0371     7.9644     0.0543 C.ar    
  20 C20           -0.6513     8.0180     0.0478 C.ar    
  21 C21            0.0931     6.8563     0.0385 C.ar    
  22 H22            2.1483    -0.1385    -0.0199 H       
  23 H23            0.0404    -3.8579    -0.0181 H       
  24 H24           -2.1024    -2.6534     0.0089 H       
  25 H25           -2.1393    -0.1955     0.0318 H       
  26 H26           -2.0276     1.6354     0.0206 H       
  27 H27            3.7691    -1.3983     0.8474 H       
  28 H28            4.5409    -2.7229    -0.0571 H       
  29 H29            3.7511    -1.3894    -0.9325 H       
  30 H30            2.4474    -4.5862    -1.0730 H       
  31 H31            3.3530    -4.5871     0.4594 H       
  32 H32            1.5731    -4.6007     0.4774 H       
  33 H33            0.8175     4.0178     0.0206 H       
  34 H34           -3.7692     6.7177     0.0549 H       
  35 H35           -2.6088     8.8807     0.0619 H       
  36 H36           -0.1515     8.9754     0.0501 H       
  37 H37            1.1720     6.9049     0.0343 H       
@<TRIPOS>BOND
   1    1    2 1
   2    1    8 2
   3    1    9 am
   4    2    3 ar
   5    2    7 ar
   6    3    4 ar
   7    3   22 1
   8    4    5 ar
   9    4   10 1
  10    5    6 ar
  11    5   23 1
  12    6    7 ar
  13    6   24 1
  14    7   25 1
  15    9   13 1
  16    9   26 1
  17   10   11 1
  18   10   12 1
  19   11   27 1
  20   11   28 1
  21   11   29 1
  22   12   30 1
  23   12   31 1
  24   12   32 1
  25   13   14 1
  26   13   17 2
  27   14   15 1
  28   14   33 1
  29   15   16 ar
  30   15   21 ar
  31   16   17 1
  32   16   18 ar
  33   18   19 ar
  34   18   34 1
  35   19   20 ar
  36   19   35 1
  37   20   21 ar
  38   20   36 1
  39   21   37 1

#	End of record

