#	Name: ASD00930002
#	Creating user name:	WinNT
#	Creation time:	15. 06. 2019 18:53

#	Modifying user name:	WinNT
#	Modification time:	15. 06. 2019 18:53

#	Program:	/corina/corina34_cracker 3.40 0067  02.08.2006

@<TRIPOS>MOLECULE
ASD00930002
  20   19    0    0    0
SMALL
NO_CHARGES


@<TRIPOS>ATOM
   1 C1            -0.0184     1.5028     0.0103 C.2     
   2 C2             0.0021    -0.0041     0.0020 C.3     
   3 C3            -0.7241    -0.5171    -1.2431 C.3     
   4 C4            -0.8113    -2.0207    -1.1900 C.2     
   5 O5             1.0197     2.1211     0.0037 O.2     
   6 O6            -1.1898     2.1580     0.0194 O.3     
   7 O7            -0.3409    -2.6203    -0.2525 O.2     
   8 O8            -1.4115    -2.6937    -2.1842 O.3     
   9 N9             1.3897    -0.4735    -0.0138 N.am    
  10 C10            2.0717    -0.5994     1.1419 C.2     
  11 O11            1.5353    -0.3233     2.1975 O.2     
  12 N12            3.3483    -1.0313     1.1274 N.am    
  13 H13           -0.4983    -0.3791     0.8948 H       
  14 H14           -1.7288    -0.0959    -1.2772 H       
  15 H15           -0.1736    -0.2164    -2.1345 H       
  16 H16           -1.1523     3.1243     0.0245 H       
  17 H17           -1.4429    -3.6570    -2.1059 H       
  18 H18            1.8177    -0.6938    -0.8559 H       
  19 H19            3.7763    -1.2516     0.2852 H       
  20 H20            3.8392    -1.1219     1.9591 H       
@<TRIPOS>BOND
   1    1    2 1
   2    1    5 2
   3    1    6 1
   4    2    3 1
   5    2    9 1
   6    2   13 1
   7    3    4 1
   8    3   14 1
   9    3   15 1
  10    4    7 2
  11    4    8 1
  12    6   16 1
  13    8   17 1
  14    9   10 am
  15    9   18 1
  16   10   11 2
  17   10   12 am
  18   12   19 1
  19   12   20 1

#	End of record

