#	Name: ASD01813271
#	Creating user name:	WinNT
#	Creation time:	15. 06. 2019 19:30

#	Modifying user name:	WinNT
#	Modification time:	15. 06. 2019 19:30

#	Program:	/corina/corina34_cracker 3.40 0067  02.08.2006

@<TRIPOS>MOLECULE
ASD01813271
  54   57    0    0    0
SMALL
NO_CHARGES


@<TRIPOS>ATOM
   1 C1            -0.0178     1.4608     0.0101 C.3     
   2 N2             0.0021    -0.0041     0.0020 N.am    
   3 C3            -1.1558    -0.6938     0.0094 C.2     
   4 O4            -2.2166    -0.1004     0.0227 O.2     
   5 C5            -1.1358    -2.1721     0.0012 C.ar    
   6 C6             0.0806    -2.8565    -0.0082 C.ar    
   7 C7             0.0923    -4.2360    -0.0153 C.ar    
   8 C8            -1.0982    -4.9410    -0.0135 C.ar    
   9 C9            -1.0778    -6.4478    -0.0218 C.3     
  10 N10           -1.0646    -6.9436     1.3567 N.pl3   
  11 C11            0.0524    -7.2759     2.0482 C.2     
  12 C12           -0.2883    -7.6991     3.2988 C.2     
  13 C13            0.6284    -8.1471     4.3558 C.2     
  14 O14            0.1880    -8.5004     5.4336 O.2     
  15 N15            1.9572    -8.1668     4.1316 N.am    
  16 C16            2.8714    -8.6135     5.1856 C.3     
  17 C17            3.0001   -10.1392     5.1396 C.3     
  18 C18            4.0166   -10.5897     6.1919 C.3     
  19 O19            5.2699    -9.9484     5.9470 O.3     
  20 C20            5.2205    -8.5223     6.0241 C.3     
  21 C21            4.2524    -7.9887     4.9650 C.3     
  22 C22           -1.7584    -7.6180     3.3813 C.ar    
  23 C23           -2.6899    -7.9059     4.3778 C.ar    
  24 F24           -2.2788    -8.3676     5.5791 F       
  25 C25           -4.0344    -7.7163     4.1304 C.ar    
  26 C26           -4.4584    -7.2420     2.8979 C.ar    
  27 C27           -3.5476    -6.9538     1.9049 C.ar    
  28 C28           -2.1872    -7.1324     2.1360 C.ar    
  29 C29           -2.3074    -4.2686    -0.0037 C.ar    
  30 C30           -2.3331    -2.8893     0.0088 C.ar    
  31 H31            1.0048     1.8381     0.0023 H       
  32 H32           -0.5450     1.8219    -0.8730 H       
  33 H33           -0.5280     1.8123     0.9069 H       
  34 H34            0.8486    -0.4776    -0.0086 H       
  35 H35            1.0106    -2.3074    -0.0103 H       
  36 H36            1.0328    -4.7668    -0.0226 H       
  37 H37           -1.9651    -6.8204    -0.5334 H       
  38 H38           -0.1854    -6.7962    -0.5417 H       
  39 H39            1.0608    -7.2148     1.6663 H       
  40 H40            2.3083    -7.8852     3.2724 H       
  41 H41            2.4841    -8.3082     6.1577 H       
  42 H42            2.0318   -10.5930     5.3506 H       
  43 H43            3.3395   -10.4464     4.1503 H       
  44 H44            3.6570   -10.3180     7.1844 H       
  45 H45            4.1441   -11.6707     6.1347 H       
  46 H46            4.8767    -8.2235     7.0143 H       
  47 H47            6.2153    -8.1139     5.8460 H       
  48 H48            4.6171    -8.2524     3.9722 H       
  49 H49            4.1797    -6.9045     5.0512 H       
  50 H50           -4.7594    -7.9385     4.8994 H       
  51 H51           -5.5128    -7.0975     2.7146 H       
  52 H52           -3.8892    -6.5853     0.9489 H       
  53 H53           -3.2332    -4.8248    -0.0020 H       
  54 H54           -3.2776    -2.3657     0.0207 H       
@<TRIPOS>BOND
   1    1    2 1
   2    1   31 1
   3    1   32 1
   4    1   33 1
   5    2    3 am
   6    2   34 1
   7    3    4 2
   8    3    5 1
   9    5   30 ar
  10    5    6 ar
  11    6    7 ar
  12    6   35 1
  13    7    8 ar
  14    7   36 1
  15    8    9 1
  16    8   29 ar
  17    9   10 1
  18    9   37 1
  19    9   38 1
  20   10   28 1
  21   10   11 1
  22   11   12 2
  23   11   39 1
  24   12   13 1
  25   12   22 1
  26   13   14 2
  27   13   15 am
  28   15   16 1
  29   15   40 1
  30   16   21 1
  31   16   17 1
  32   16   41 1
  33   17   18 1
  34   17   42 1
  35   17   43 1
  36   18   19 1
  37   18   44 1
  38   18   45 1
  39   19   20 1
  40   20   21 1
  41   20   46 1
  42   20   47 1
  43   21   48 1
  44   21   49 1
  45   22   28 ar
  46   22   23 ar
  47   23   24 1
  48   23   25 ar
  49   25   26 ar
  50   25   50 1
  51   26   27 ar
  52   26   51 1
  53   27   28 ar
  54   27   52 1
  55   29   30 ar
  56   29   53 1
  57   30   54 1

#	End of record

