#	Name: ASD01811963
#	Creating user name:	WinNT
#	Creation time:	15. 06. 2019 19:27

#	Modifying user name:	WinNT
#	Modification time:	15. 06. 2019 19:27

#	Program:	/corina/corina34_cracker 3.40 0067  02.08.2006

@<TRIPOS>MOLECULE
ASD01811963
  37   40    0    0    0
SMALL
NO_CHARGES


@<TRIPOS>ATOM
   1 C1             0.0968     1.5515     0.2427 C.ar    
   2 C2             0.0516     0.1663     0.2418 C.ar    
   3 C3             1.2172    -0.5608     0.1508 C.ar    
   4 C4             2.4571     0.0891     0.0584 C.ar    
   5 C5             2.4994     1.4822     0.0604 C.ar    
   6 C6             1.3071     2.2032     0.1527 C.ar    
   7 C7             3.6615    -0.7503    -0.0390 C.2     
   8 N8             4.6688    -0.5063    -0.8012 N.2     
   9 C9             4.7147     0.6718    -1.6663 C.3     
  10 C10            4.7081     1.9071    -0.8076 C.2     
  11 N11            3.6769     2.2080    -0.0225 N.am    
  12 S12            5.9738     2.8836    -0.8385 S.2     
  13 C13            3.7188    -1.9665     0.8034 C.ar    
  14 C14            3.7313    -3.2292     0.2110 C.ar    
  15 C15            3.7846    -4.3587     1.0011 C.ar    
  16 C16            3.8258    -4.2428     2.3794 C.ar    
  17 C17            3.8134    -2.9952     2.9754 C.ar    
  18 C18            3.7664    -1.8545     2.1955 C.ar    
  19 Cl19          -1.4752    -0.6521     0.3560 Cl      
  20 C20            3.4918     0.6804    -2.5857 C.3     
  21 C21            3.2950     1.9000    -3.4883 C.3     
  22 C22            3.7391     0.5658    -4.0912 C.3     
  23 F23            3.7542    -0.6355     2.7779 F       
  24 H24           -0.8185     2.1208     0.3095 H       
  25 H25            1.1768    -1.6401     0.1509 H       
  26 H26            1.3340     3.2829     0.1532 H       
  27 H27            5.6244     0.6491    -2.2661 H       
  28 H28            3.7554     2.9975     0.5356 H       
  29 H29            3.6988    -3.3224    -0.8645 H       
  30 H30            3.7939    -5.3365     0.5426 H       
  31 H31            3.8675    -5.1309     2.9925 H       
  32 H32            3.8450    -2.9115     4.0517 H       
  33 H33            2.5984     0.2020    -2.1842 H       
  34 H34            2.2722     2.2238    -3.6809 H       
  35 H35            4.0368     2.6963    -3.4270 H       
  36 H36            4.7730     0.4843    -4.4267 H       
  37 H37            3.0084     0.0118    -4.6806 H       
@<TRIPOS>BOND
   1    1    2 ar
   2    1    6 ar
   3    1   24 1
   4    2    3 ar
   5    2   19 1
   6    3    4 ar
   7    3   25 1
   8    4    5 ar
   9    4    7 1
  10    5    6 ar
  11    5   11 1
  12    6   26 1
  13    7    8 2
  14    7   13 1
  15    8    9 1
  16    9   10 1
  17    9   20 1
  18    9   27 1
  19   10   11 am
  20   10   12 2
  21   11   28 1
  22   13   14 ar
  23   13   18 ar
  24   14   15 ar
  25   14   29 1
  26   15   16 ar
  27   15   30 1
  28   16   17 ar
  29   16   31 1
  30   17   18 ar
  31   17   32 1
  32   18   23 1
  33   20   21 1
  34   20   22 1
  35   20   33 1
  36   21   22 1
  37   21   34 1
  38   21   35 1
  39   22   36 1
  40   22   37 1

#	End of record

