#	Name: ASD00100073
#	Creating user name:	WinNT
#	Creation time:	15. 06. 2019 18:30

#	Modifying user name:	WinNT
#	Modification time:	15. 06. 2019 18:30

#	Program:	/corina/corina34_cracker 3.40 0067  02.08.2006

@<TRIPOS>MOLECULE
ASD00100073
  79   83    0    0    0
SMALL
NO_CHARGES


@<TRIPOS>ATOM
   1 C1            -0.0184     1.5028     0.0103 C.2     
   2 C2             0.0021    -0.0041     0.0020 C.3     
   3 O3             1.0236     2.1234     0.0037 O.2     
   4 N4            -1.1946     2.1607     0.0195 N.am    
   5 C5             1.4513    -0.4944    -0.0145 C.3     
   6 C6             1.4750    -2.0197     0.1029 C.3     
   7 C7             2.9242    -2.5100     0.0864 C.3     
   8 C8             3.5902    -2.0889    -1.2251 C.3     
   9 C9             3.5665    -0.5636    -1.3424 C.3     
  10 C10            2.1173    -0.0733    -1.3260 C.3     
  11 O11            4.9437    -2.5469    -1.2405 O.3     
  12 C12            5.4454    -2.8339    -2.5474 C.3     
  13 C13           -1.2145     3.6256     0.0275 C.3     
  14 C14           -2.5315     4.1210    -0.5732 C.3     
  15 C15           -2.5522     5.6509    -0.5648 C.3     
  16 C16           -2.4266     6.1547     0.8744 C.3     
  17 C17           -1.1096     5.6592     1.4751 C.3     
  18 C18           -1.0888     4.1294     1.4667 C.3     
  19 C19           -2.4474     7.6846     0.8828 C.3     
  20 C20           -2.4475     8.1867     2.3281 C.3     
  21 N21           -2.4674     9.6555     2.3362 N.3     
  22 C22           -2.7062    10.1711     3.6902 C.3     
  23 C23           -2.8652    11.6923     3.6376 C.3     
  24 C24           -1.5944    12.3135     3.0515 C.3     
  25 C25           -1.3419    11.7238     1.6611 C.3     
  26 C26           -1.2270    10.2018     1.7711 C.3     
  27 O27           -2.5446    15.7860     2.3730 O.3     
  28 C28           -2.6989    14.4580     2.2312 C.2     
  29 C29           -1.7681    13.8064     2.9414 C.2     
  30 C30           -0.9519    14.8391     3.5910 C.ar    
  31 C31           -1.5041    16.0654     3.1838 C.ar    
  32 C32            0.1497    14.8163     4.4446 C.ar    
  33 C33            0.6932    16.0028     4.8860 C.ar    
  34 C34            0.1485    17.2137     4.4844 C.ar    
  35 C35           -0.9410    17.2499     3.6405 C.ar    
  36 H36           -0.4983    -0.3791     0.8948 H       
  37 H37           -0.5153    -0.3696    -0.8850 H       
  38 H38           -2.0280     1.6644     0.0207 H       
  39 H39            1.9924    -0.0570     0.8246 H       
  40 H40            1.0005    -2.3197     1.0372 H       
  41 H41            0.9339    -2.4571    -0.7362 H       
  42 H42            3.4653    -2.0726     0.9254 H       
  43 H43            2.9411    -3.5967     0.1700 H       
  44 H44            3.0491    -2.5263    -2.0642 H       
  45 H45            4.1076    -0.1262    -0.5034 H       
  46 H46            4.0409    -0.2637    -2.2768 H       
  47 H47            1.5762    -0.5107    -2.1650 H       
  48 H48            2.1004     1.0133    -1.4096 H       
  49 H49            5.4039    -1.9324    -3.1586 H       
  50 H50            6.4778    -3.1755    -2.4734 H       
  51 H51            4.8371    -3.6129    -3.0071 H       
  52 H52           -0.3805     4.0035    -0.5638 H       
  53 H53           -2.6210     3.7621    -1.5985 H       
  54 H54           -3.3655     3.7431     0.0182 H       
  55 H55           -1.7182     6.0288    -1.1561 H       
  56 H56           -3.4905     6.0039    -0.9927 H       
  57 H57           -3.2606     5.7768     1.4658 H       
  58 H58           -0.2756     6.0372     0.8838 H       
  59 H59           -1.0201     6.0182     2.5004 H       
  60 H60           -1.9228     3.7515     2.0581 H       
  61 H61           -0.1506     3.7764     1.8947 H       
  62 H62           -1.5649     8.0627     0.3669 H       
  63 H63           -3.3446     8.0386     0.3752 H       
  64 H64           -3.3300     7.8085     2.8441 H       
  65 H65           -1.5502     7.8327     2.8358 H       
  66 H66           -3.6149     9.7247     4.0939 H       
  67 H67           -1.8614     9.9163     4.3301 H       
  68 H68           -3.7183    11.9474     3.0089 H       
  69 H69           -3.0269    12.0764     4.6448 H       
  70 H70           -0.7475    12.0913     3.7007 H       
  71 H71           -2.1710    11.9795     1.0013 H       
  72 H72           -0.4152    12.1304     1.2562 H       
  73 H73           -0.3891     9.9467     2.4199 H       
  74 H74           -1.0614     9.7776     0.7807 H       
  75 H75           -3.4626    13.9849     1.6316 H       
  76 H76            0.5745    13.8743     4.7583 H       
  77 H77            1.5466    15.9900     5.5478 H       
  78 H78            0.5824    18.1378     4.8369 H       
  79 H79           -1.3562    18.1988     3.3346 H       
@<TRIPOS>BOND
   1    1    2 1
   2    1    3 2
   3    1    4 am
   4    2    5 1
   5    2   36 1
   6    2   37 1
   7    4   13 1
   8    4   38 1
   9    5    6 1
  10    5   10 1
  11    5   39 1
  12    6    7 1
  13    6   40 1
  14    6   41 1
  15    7    8 1
  16    7   42 1
  17    7   43 1
  18    8    9 1
  19    8   11 1
  20    8   44 1
  21    9   10 1
  22    9   45 1
  23    9   46 1
  24   10   47 1
  25   10   48 1
  26   11   12 1
  27   12   49 1
  28   12   50 1
  29   12   51 1
  30   13   14 1
  31   13   18 1
  32   13   52 1
  33   14   15 1
  34   14   53 1
  35   14   54 1
  36   15   16 1
  37   15   55 1
  38   15   56 1
  39   16   17 1
  40   16   19 1
  41   16   57 1
  42   17   18 1
  43   17   58 1
  44   17   59 1
  45   18   60 1
  46   18   61 1
  47   19   20 1
  48   19   62 1
  49   19   63 1
  50   20   21 1
  51   20   64 1
  52   20   65 1
  53   21   22 1
  54   21   26 1
  55   22   23 1
  56   22   66 1
  57   22   67 1
  58   23   24 1
  59   23   68 1
  60   23   69 1
  61   24   25 1
  62   24   29 1
  63   24   70 1
  64   25   26 1
  65   25   71 1
  66   25   72 1
  67   26   73 1
  68   26   74 1
  69   27   28 1
  70   27   31 1
  71   28   29 2
  72   28   75 1
  73   29   30 1
  74   30   31 ar
  75   30   32 ar
  76   31   35 ar
  77   32   33 ar
  78   32   76 1
  79   33   34 ar
  80   33   77 1
  81   34   35 ar
  82   34   78 1
  83   35   79 1

#	End of record

