#	Name: ASD01890138
#	Creating user name:	WinNT
#	Creation time:	15. 06. 2019 19:50

#	Modifying user name:	WinNT
#	Modification time:	15. 06. 2019 19:50

#	Program:	/corina/corina34_cracker 3.40 0067  02.08.2006

@<TRIPOS>MOLECULE
ASD01890138
  35   36    0    0    0
SMALL
NO_CHARGES


@<TRIPOS>ATOM
   1 C1            -0.0177     1.4572     0.0101 C.2     
   2 C2             0.0021    -0.0041     0.0020 C.2     
   3 C3             1.1802    -0.6631    -0.0128 C.2     
   4 C4             1.2006    -2.1699    -0.0211 C.3     
   5 C5             1.3195    -2.6704    -1.4620 C.3     
   6 O6             1.0273     2.0797     0.0034 O.2     
   7 O7            -1.1952     2.1159     0.0192 O.3     
   8 C8             2.4437     0.0895    -0.0208 C.ar    
   9 C9             2.7962     0.8825     1.0768 C.ar    
  10 C10            3.9816     1.5847     1.0630 C.ar    
  11 C11            4.8244     1.5071    -0.0357 C.ar    
  12 C12            4.4808     0.7232    -1.1271 C.ar    
  13 C13            3.3013     0.0111    -1.1236 C.ar    
  14 F14            5.9851     2.1984    -0.0431 F       
  15 C15            1.3400    -4.1773    -1.4703 C.ar    
  16 C16            0.1557    -4.8838    -1.5671 C.ar    
  17 C17            0.1738    -6.2658    -1.5748 C.ar    
  18 C18            1.3775    -6.9421    -1.4855 C.ar    
  19 C19            2.5624    -6.2344    -1.3886 C.ar    
  20 C20            2.5434    -4.8524    -1.3867 C.ar    
  21 Cl21           1.4010    -8.6779    -1.4944 Cl      
  22 H22           -0.9258    -0.5567     0.0079 H       
  23 H23            2.0529    -2.5249     0.5584 H       
  24 H24            0.2785    -2.5482     0.4200 H       
  25 H25            0.4673    -2.3154    -2.0414 H       
  26 H26            2.2417    -2.2921    -1.9031 H       
  27 H27           -1.1072     3.0788     0.0240 H       
  28 H28            2.1404     0.9444     1.9326 H       
  29 H29            4.2549     2.1971     1.9095 H       
  30 H30            5.1414     0.6674    -1.9797 H       
  31 H31            3.0371    -0.6027    -1.9720 H       
  32 H32           -0.7839    -4.3558    -1.6365 H       
  33 H33           -0.7515    -6.8177    -1.6501 H       
  34 H34            3.5023    -6.7618    -1.3188 H       
  35 H35            3.4686    -4.2999    -1.3155 H       
@<TRIPOS>BOND
   1    1    2 1
   2    1    6 2
   3    1    7 1
   4    2    3 2
   5    2   22 1
   6    3    4 1
   7    3    8 1
   8    4    5 1
   9    4   23 1
  10    4   24 1
  11    5   15 1
  12    5   25 1
  13    5   26 1
  14    7   27 1
  15    8    9 ar
  16    8   13 ar
  17    9   10 ar
  18    9   28 1
  19   10   11 ar
  20   10   29 1
  21   11   12 ar
  22   11   14 1
  23   12   13 ar
  24   12   30 1
  25   13   31 1
  26   15   16 ar
  27   15   20 ar
  28   16   17 ar
  29   16   32 1
  30   17   18 ar
  31   17   33 1
  32   18   19 ar
  33   18   21 1
  34   19   20 ar
  35   19   34 1
  36   20   35 1

#	End of record

