#	Name: ASD01810942
#	Creating user name:	WinNT
#	Creation time:	15. 06. 2019 19:25

#	Modifying user name:	WinNT
#	Modification time:	15. 06. 2019 19:25

#	Program:	/corina/corina34_cracker 3.40 0067  02.08.2006

@<TRIPOS>MOLECULE
ASD01810942
  35   36    0    0    0
SMALL
NO_CHARGES


@<TRIPOS>ATOM
   1 C1            -0.0096     1.4718     0.0892 C.2     
   2 C2             0.0061    -0.0047     0.0405 C.ar    
   3 C3             1.2151    -0.6874    -0.1186 C.ar    
   4 C4             1.2317    -2.0670    -0.1644 C.ar    
   5 C5             0.0556    -2.7822    -0.0536 C.ar    
   6 C6            -1.1604    -2.1128     0.1059 C.ar    
   7 C7            -1.1838    -0.7201     0.1588 C.ar    
   8 O8             1.0357     2.0904     0.0968 O.2     
   9 O9            -1.1833     2.1323     0.1196 O.3     
  10 C10            2.5037     0.0844    -0.2410 C.3     
  11 C11            0.0837    -4.2880    -0.1052 C.3     
  12 C12            0.0049    -4.8486     1.3162 C.3     
  13 C13           -0.0961    -6.3822     1.3689 C.3     
  14 C14            0.8619    -6.3255     2.5706 C.3     
  15 C15            1.3757    -4.9940     1.9979 C.3     
  16 C16           -2.3791    -2.8559     0.2208 C.1     
  17 N17           -3.3459    -3.4454     0.3119 N.1     
  18 C18           -1.1228     3.5822     0.1669 C.3     
  19 H19            2.1688    -2.5894    -0.2879 H       
  20 H20           -2.1204    -0.1977     0.2863 H       
  21 H21            2.8679     0.3434     0.7532 H       
  22 H22            3.2468    -0.5279    -0.7520 H       
  23 H23            2.3285     0.9958    -0.8127 H       
  24 H24           -0.7663    -4.6476    -0.6852 H       
  25 H25            1.0100    -4.6182    -0.5752 H       
  26 H26           -0.7382    -4.3407     1.9309 H       
  27 H27           -1.0921    -6.7458     1.6213 H       
  28 H28            0.3279    -6.8779     0.4956 H       
  29 H29            0.3539    -6.2214     3.5293 H       
  30 H30            1.6098    -7.1184     2.5705 H       
  31 H31            2.2020    -5.1102     1.2966 H       
  32 H32            1.5678    -4.2369     2.7582 H       
  33 H33           -2.1344     3.9876     0.1877 H       
  34 H34           -0.5877     3.8945     1.0637 H       
  35 H35           -0.6008     3.9531    -0.7152 H       
@<TRIPOS>BOND
   1    1    2 1
   2    1    8 2
   3    1    9 1
   4    2    3 ar
   5    2    7 ar
   6    3    4 ar
   7    3   10 1
   8    4    5 ar
   9    4   19 1
  10    5    6 ar
  11    5   11 1
  12    6    7 ar
  13    6   16 1
  14    7   20 1
  15    9   18 1
  16   10   21 1
  17   10   22 1
  18   10   23 1
  19   11   12 1
  20   11   24 1
  21   11   25 1
  22   12   13 1
  23   12   15 1
  24   12   26 1
  25   13   14 1
  26   13   27 1
  27   13   28 1
  28   14   15 1
  29   14   29 1
  30   14   30 1
  31   15   31 1
  32   15   32 1
  33   16   17 3
  34   18   33 1
  35   18   34 1
  36   18   35 1

#	End of record

