#	Name: ASD01900641
#	Creating user name:	WinNT
#	Creation time:	15. 06. 2019 19:52

#	Modifying user name:	WinNT
#	Modification time:	15. 06. 2019 19:52

#	Program:	/corina/corina34_cracker 3.40 0067  02.08.2006

@<TRIPOS>MOLECULE
ASD01900641
  50   54    0    0    0
SMALL
NO_CHARGES


@<TRIPOS>ATOM
   1 C1            -0.0183     1.4026     0.1323 C.ar    
   2 C2            -0.0081     0.0177     0.1213 C.ar    
   3 C3             1.1829    -0.6778     0.0629 C.ar    
   4 C4             2.3875     0.0113     0.0139 C.ar    
   5 C5             2.3724     1.4127     0.0292 C.ar    
   6 O6             3.5588    -0.6564    -0.0552 O.3     
   7 C7             4.7336    -0.0514     0.1913 C.2     
   8 C8             4.8727     1.2950     0.2217 C.2     
   9 C9             3.6750     2.1246    -0.0105 C.2     
  10 C10            5.9226    -0.8908     0.4401 C.ar    
  11 N11            7.0974    -0.3040     0.6866 N.ar    
  12 C12            8.1926    -0.9844     0.9157 C.ar    
  13 C13            8.1677    -2.3901     0.9097 C.ar    
  14 C14            6.9382    -3.0529     0.6517 C.ar    
  15 C15            5.7954    -2.2709     0.4184 C.ar    
  16 C16            9.3207    -3.1523     1.1503 C.ar    
  17 C17            9.2435    -4.5124     1.1329 C.ar    
  18 C18            8.0369    -5.1619     0.8798 C.ar    
  19 C19            6.8965    -4.4556     0.6421 C.ar    
  20 C20            1.1700     2.1048     0.0864 C.ar    
  21 C21           -1.3109    -0.7379     0.1741 C.3     
  22 C22           -1.8166    -0.9826    -1.2491 C.3     
  23 C23           -3.1194    -1.7383    -1.1963 C.ar    
  24 C24           -4.3162    -1.0491    -1.1373 C.ar    
  25 C25           -3.1178    -3.1205    -1.2126 C.ar    
  26 C26           -4.3129    -3.8136    -1.1642 C.ar    
  27 C27           -5.5094    -3.1245    -1.0990 C.ar    
  28 C28           -5.5112    -1.7422    -1.0888 C.ar    
  29 N29            3.7559     3.4128    -0.2387 N.2     
  30 O30            2.5974     4.1417    -0.6013 O.3     
  31 H31           -0.9575     1.9343     0.1724 H       
  32 H32            1.1778    -1.7578     0.0558 H       
  33 H33            5.8341     1.7492     0.4111 H       
  34 H34            9.1187    -0.4636     1.1098 H       
  35 H35            4.8405    -2.7343     0.2186 H       
  36 H36           10.2636    -2.6640     1.3477 H       
  37 H37           10.1325    -5.0970     1.3181 H       
  38 H38            8.0052    -6.2414     0.8722 H       
  39 H39            5.9676    -4.9711     0.4476 H       
  40 H40            1.1640     3.1848     0.0942 H       
  41 H41           -1.1564    -1.6940     0.6742 H       
  42 H42           -2.0475    -0.1540     0.7260 H       
  43 H43           -1.9711    -0.0266    -1.7492 H       
  44 H44           -1.0800    -1.5665    -1.8010 H       
  45 H45           -4.3176     0.0309    -1.1286 H       
  46 H46           -2.1830    -3.6589    -1.2636 H       
  47 H47           -4.3117    -4.8936    -1.1777 H       
  48 H48           -6.4431    -3.6660    -1.0616 H       
  49 H49           -6.4461    -1.2038    -1.0379 H       
  50 H50            2.7558     5.0842    -0.7490 H       
@<TRIPOS>BOND
   1    1    2 ar
   2    1   20 ar
   3    1   31 1
   4    2    3 ar
   5    2   21 1
   6    3    4 ar
   7    3   32 1
   8    4    5 ar
   9    4    6 1
  10    5   20 ar
  11    5    9 1
  12    6    7 1
  13    7    8 2
  14    7   10 1
  15    8    9 1
  16    8   33 1
  17    9   29 2
  18   10   11 ar
  19   10   15 ar
  20   11   12 ar
  21   12   13 ar
  22   12   34 1
  23   13   14 ar
  24   13   16 ar
  25   14   15 ar
  26   14   19 ar
  27   15   35 1
  28   16   17 ar
  29   16   36 1
  30   17   18 ar
  31   17   37 1
  32   18   19 ar
  33   18   38 1
  34   19   39 1
  35   20   40 1
  36   21   22 1
  37   21   41 1
  38   21   42 1
  39   22   23 1
  40   22   43 1
  41   22   44 1
  42   23   24 ar
  43   23   25 ar
  44   24   28 ar
  45   24   45 1
  46   25   26 ar
  47   25   46 1
  48   26   27 ar
  49   26   47 1
  50   27   28 ar
  51   27   48 1
  52   28   49 1
  53   29   30 1
  54   30   50 1

#	End of record

