#	Name: ASD04880357
#	Creating user name:	WinNT
#	Creation time:	15. 06. 2019 20:53

#	Modifying user name:	WinNT
#	Modification time:	15. 06. 2019 20:53

#	Program:	/corina/corina34_cracker 3.40 0067  02.08.2006

@<TRIPOS>MOLECULE
ASD04880357
  50   54    0    0    0
SMALL
NO_CHARGES


@<TRIPOS>ATOM
   1 C1            -0.0144     1.2118     0.0087 C.2     
   2 O2             0.0726    -0.0009    -0.0133 O.2     
   3 C3             1.2086     2.0410    -0.0213 C.ar    
   4 C4             2.4653     1.4400     0.0697 C.ar    
   5 C5             3.6043     2.2213     0.0405 C.ar    
   6 C6             3.4998     3.5982    -0.0785 C.ar    
   7 C7             2.2568     4.1979    -0.1690 C.ar    
   8 C8             1.1120     3.4279    -0.1467 C.ar    
   9 F9             4.8218     1.6424     0.1285 F       
  10 N10           -1.2263     1.7997     0.0549 N.am    
  11 N11           -1.4592     3.1662     0.1967 N.2     
  12 C12           -2.7071     3.4884     0.2142 C.2     
  13 C13           -3.5522     2.2428     0.0710 C.3     
  14 C14           -2.5193     1.1041    -0.0425 C.3     
  15 N15           -2.2446     8.4518     0.7479 N.am    
  16 C16           -3.2024     9.4239     0.8382 C.2     
  17 C17           -4.4248     8.8716     0.7634 C.2     
  18 C18           -4.2345     7.4279     0.6129 C.ar    
  19 C19           -5.1094     6.3441     0.4854 C.ar    
  20 C20           -4.6146     5.0810     0.3586 C.ar    
  21 C21           -3.2296     4.8591     0.3531 C.ar    
  22 C22           -2.3457     5.9285     0.4786 C.ar    
  23 C23           -2.8420     7.2178     0.6091 C.ar    
  24 S24           -0.6108     8.7185     0.7917 S.o2    
  25 O25           -0.0577     8.0021    -0.3038 O.2     
  26 O26           -0.4373    10.1173     0.9727 O.2     
  27 C27            0.0046     7.9478     2.2518 C.ar    
  28 C28            0.4278     6.6324     2.2131 C.ar    
  29 C29            0.9106     6.0277     3.3586 C.ar    
  30 C30            0.9706     6.7386     4.5427 C.ar    
  31 C31            0.5482     8.0543     4.5811 C.ar    
  32 C32            0.0695     8.6603     3.4346 C.ar    
  33 H33            2.5468     0.3671     0.1632 H       
  34 H34            4.3926     4.2055    -0.1002 H       
  35 H35            2.1821     5.2713    -0.2611 H       
  36 H36            0.1425     3.8979    -0.2217 H       
  37 H37           -4.1831     2.1057     0.9492 H       
  38 H38           -4.1594     2.2946    -0.8328 H       
  39 H39           -2.6100     0.5956    -1.0023 H       
  40 H40           -2.6379     0.3981     0.7794 H       
  41 H41           -3.0053    10.4795     0.9533 H       
  42 H42           -5.3691     9.3937     0.8065 H       
  43 H43           -6.1768     6.5083     0.4890 H       
  44 H44           -5.2926     4.2461     0.2608 H       
  45 H45           -1.2797     5.7549     0.4747 H       
  46 H46            0.3810     6.0770     1.2880 H       
  47 H47            1.2406     4.9998     3.3286 H       
  48 H48            1.3471     6.2659     5.4378 H       
  49 H49            0.5948     8.6095     5.5063 H       
  50 H50           -0.2570     9.6893     3.4638 H       
@<TRIPOS>BOND
   1    1    2 2
   2    1    3 1
   3    1   10 am
   4    3    4 ar
   5    3    8 ar
   6    4    5 ar
   7    4   33 1
   8    5    6 ar
   9    5    9 1
  10    6    7 ar
  11    6   34 1
  12    7    8 ar
  13    7   35 1
  14    8   36 1
  15   10   11 1
  16   10   14 1
  17   11   12 2
  18   12   13 1
  19   12   21 1
  20   13   14 1
  21   13   37 1
  22   13   38 1
  23   14   39 1
  24   14   40 1
  25   15   16 1
  26   15   23 1
  27   15   24 am
  28   16   17 2
  29   16   41 1
  30   17   18 1
  31   17   42 1
  32   18   19 ar
  33   18   23 ar
  34   19   20 ar
  35   19   43 1
  36   20   21 ar
  37   20   44 1
  38   21   22 ar
  39   22   23 ar
  40   22   45 1
  41   24   25 2
  42   24   26 2
  43   24   27 1
  44   27   28 ar
  45   27   32 ar
  46   28   29 ar
  47   28   46 1
  48   29   30 ar
  49   29   47 1
  50   30   31 ar
  51   30   48 1
  52   31   32 ar
  53   31   49 1
  54   32   50 1

#	End of record

