#	Name: ASD01814803
#	Creating user name:	WinNT
#	Creation time:	15. 06. 2019 19:33

#	Modifying user name:	WinNT
#	Modification time:	15. 06. 2019 19:33

#	Program:	/corina/corina34_cracker 3.40 0067  02.08.2006

@<TRIPOS>MOLECULE
ASD01814803
  51   54    0    0    0
SMALL
NO_CHARGES


@<TRIPOS>ATOM
   1 C1             0.0620     1.3501     0.2025 C.2     
   2 C2             0.0601    -0.0497     0.1362 C.2     
   3 C3             1.2467    -0.7218     0.0982 C.2     
   4 C4             2.4509     0.0011     0.1263 C.2     
   5 N5             2.4233     1.3677     0.1916 N.am    
   6 C6             1.2314     2.0286     0.2287 C.2     
   7 C7             3.6716    -0.6873     0.0876 C.2     
   8 C8             4.8472     0.0054     0.1148 C.2     
   9 C9             4.8151     1.4106     0.1814 C.2     
  10 C10            3.5715     2.0739     0.2196 C.2     
  11 O11            3.5343     3.2914     0.2769 O.2     
  12 C12            6.0625     2.1774     0.2123 C.2     
  13 O13            6.0248     3.5243     0.2762 O.3     
  14 O14            7.1324     1.5997     0.1804 O.2     
  15 C15            3.6857    -2.1925     0.0163 C.3     
  16 N16            3.8040    -2.6152    -1.3856 N.3     
  17 C17            4.0587    -4.0594    -1.4805 C.3     
  18 C18            4.0960    -4.4725    -2.9538 C.3     
  19 N19            5.1429    -3.7093    -3.6475 N.3     
  20 C20            4.8881    -2.2650    -3.5526 C.3     
  21 C21            4.8508    -1.8520    -2.0793 C.3     
  22 H22            5.0159    -4.2913    -1.0135 H       
  23 C23            4.4014    -5.9681    -3.0570 C.3     
  24 H24            3.1298    -4.2657    -3.4140 H       
  25 C25            5.2553    -4.1112    -4.9804 C.ar    
  26 C26            6.4857    -4.5126    -5.4850 C.ar    
  27 C27            6.5932    -4.9099    -6.8033 C.ar    
  28 C28            5.4779    -4.9083    -7.6207 C.ar    
  29 C29            4.2515    -4.5093    -7.1216 C.ar    
  30 C30            4.1359    -4.1158    -5.8029 C.ar    
  31 H31           -0.8736     1.8890     0.2283 H       
  32 H32           -0.8735    -0.5922     0.1156 H       
  33 H33            1.2601    -1.8005     0.0474 H       
  34 H34            1.2210     3.1074     0.2802 H       
  35 H35            5.7910    -0.5188     0.0859 H       
  36 H36            6.8738     3.9869     0.2945 H       
  37 H37            4.5339    -2.5752     0.5839 H       
  38 H38            2.7600    -2.5848     0.4372 H       
  39 H39            3.2636    -4.6032    -0.9704 H       
  40 H40            5.6832    -1.7213    -4.0627 H       
  41 H41            3.9309    -2.0332    -4.0196 H       
  42 H42            4.6333    -0.7865    -2.0058 H       
  43 H43            5.8170    -2.0588    -1.6191 H       
  44 H44            3.6820    -6.5279    -2.4594 H       
  45 H45            4.3313    -6.2822    -4.0984 H       
  46 H46            5.4085    -6.1597    -2.6868 H       
  47 H47            7.3572    -4.5138    -4.8472 H       
  48 H48            7.5496    -5.2218    -7.1963 H       
  49 H49            5.5648    -5.2191    -8.6514 H       
  50 H50            3.3824    -4.5092    -7.7627 H       
  51 H51            3.1769    -3.8085    -5.4125 H       
@<TRIPOS>BOND
   1    1    2 1
   2    1    6 2
   3    1   31 1
   4    2    3 2
   5    2   32 1
   6    3    4 1
   7    3   33 1
   8    4    5 1
   9    4    7 2
  10    5    6 1
  11    5   10 am
  12    6   34 1
  13    7   15 1
  14    7    8 1
  15    8    9 2
  16    8   35 1
  17    9   10 1
  18    9   12 1
  19   10   11 2
  20   12   13 1
  21   12   14 2
  22   13   36 1
  23   15   16 1
  24   15   37 1
  25   15   38 1
  26   16   17 1
  27   16   21 1
  28   17   18 1
  29   17   22 1
  30   17   39 1
  31   18   19 1
  32   18   23 1
  33   18   24 1
  34   19   20 1
  35   19   25 1
  36   20   21 1
  37   20   40 1
  38   20   41 1
  39   21   42 1
  40   21   43 1
  41   23   44 1
  42   23   45 1
  43   23   46 1
  44   25   26 ar
  45   25   30 ar
  46   26   27 ar
  47   26   47 1
  48   27   28 ar
  49   27   48 1
  50   28   29 ar
  51   28   49 1
  52   29   30 ar
  53   29   50 1
  54   30   51 1

#	End of record

