#	Name: ASD07931831
#	Creating user name:	WinNT
#	Creation time:	15. 06. 2019 21:13

#	Modifying user name:	WinNT
#	Modification time:	15. 06. 2019 21:13

#	Program:	/corina/corina34_cracker 3.40 0067  02.08.2006

@<TRIPOS>MOLECULE
ASD07931831
  41   44    0    0    0
SMALL
NO_CHARGES


@<TRIPOS>ATOM
   1 C1            -0.0121     1.4760    -0.0030 C.2     
   2 C2             0.0078    -0.0035    -0.0119 C.2     
   3 N3             1.1875     2.1512     0.0052 N.am    
   4 N4             1.1194    -0.6400     0.4288 N.am    
   5 C5             2.2431     0.1645     0.9294 C.3     
   6 C6             2.4322     1.3707    -0.0024 C.3     
   7 C7            -1.1948     2.1492    -0.0085 C.2     
   8 C8            -1.2186     3.5494     0.0019 C.2     
   9 C9            -0.0396     4.2430     0.0187 C.2     
  10 C10            1.2201     3.4951     0.0185 C.2     
  11 O11           -0.9536    -0.6348    -0.4062 O.2     
  12 O12            2.2869     4.0853     0.0302 O.2     
  13 C13            0.4175     6.4399     1.0308 C.2     
  14 N14            0.2536     7.6848     0.6752 N.2     
  15 C15           -0.3019     7.7293    -0.5451 C.2     
  16 C16           -0.4920     6.4649    -0.9672 C.2     
  17 N17           -0.0368     5.6407     0.0299 N.pl3   
  18 C18           -0.6531     8.9787    -1.3110 C.3     
  19 C19            1.2002    -2.1026     0.4064 C.3     
  20 C20            2.2629    -2.6460    -0.5632 C.3     
  21 C21            2.5970    -3.6920     0.5134 C.3     
  22 C22            2.0515    -2.6899     1.5445 C.3     
  23 O23            3.3275    -1.7277    -0.8189 O.3     
  24 H24            2.0234     0.5123     1.9388 H       
  25 H25            3.1509    -0.4388     0.9363 H       
  26 H26            2.6438     1.0249    -1.0142 H       
  27 H27            3.2559     1.9877     0.3564 H       
  28 H28           -2.1237     1.5985    -0.0213 H       
  29 H29           -2.1606     4.0776    -0.0037 H       
  30 H30            0.8465     6.1015     1.9624 H       
  31 H31           -0.9207     6.1587    -1.9100 H       
  32 H32            0.1974     9.2816    -1.9217 H       
  33 H33           -1.5106     8.7815    -1.9544 H       
  34 H34           -0.9002     9.7767    -0.6108 H       
  35 H35            0.2261    -2.5797     0.2987 H       
  36 H36            1.8446    -3.0749    -1.4738 H       
  37 H37            2.0048    -4.6038     0.4350 H       
  38 H38            3.6644    -3.8870     0.6165 H       
  39 H39            2.8057    -2.0015     1.9256 H       
  40 H40            1.4625    -3.1543     2.3354 H       
  41 H41            3.9991    -2.0639    -1.4281 H       
@<TRIPOS>BOND
   1    1    2 1
   2    1    3 1
   3    1    7 2
   4    2    4 am
   5    2   11 2
   6    3    6 1
   7    3   10 am
   8    4    5 1
   9    4   19 1
  10    5    6 1
  11    5   24 1
  12    5   25 1
  13    6   26 1
  14    6   27 1
  15    7    8 1
  16    7   28 1
  17    8    9 2
  18    8   29 1
  19    9   10 1
  20    9   17 1
  21   10   12 2
  22   13   14 2
  23   13   17 1
  24   13   30 1
  25   14   15 1
  26   15   16 2
  27   15   18 1
  28   16   17 1
  29   16   31 1
  30   18   32 1
  31   18   33 1
  32   18   34 1
  33   19   20 1
  34   19   22 1
  35   19   35 1
  36   20   21 1
  37   20   23 1
  38   20   36 1
  39   21   22 1
  40   21   37 1
  41   21   38 1
  42   22   39 1
  43   22   40 1
  44   23   41 1

#	End of record

