#	Name: ASD01912506
#	Creating user name:	WinNT
#	Creation time:	15. 06. 2019 19:59

#	Modifying user name:	WinNT
#	Modification time:	15. 06. 2019 19:59

#	Program:	/corina/corina34_cracker 3.40 0067  02.08.2006

@<TRIPOS>MOLECULE
ASD01912506
  44   47    0    0    0
SMALL
NO_CHARGES


@<TRIPOS>ATOM
   1 C1            -0.0161     1.3325     0.0094 C.2     
   2 O2             0.0021    -0.0041     0.0020 O.3     
   3 N3             1.1471    -0.4039    -0.0111 N.2     
   4 C4             1.9761     0.6073    -0.0135 C.2     
   5 N5             1.2303     1.7351    -0.0004 N.2     
   6 C6             3.4584     0.5314    -0.0277 C.ar    
   7 C7             4.0947    -0.7078    -0.0405 C.ar    
   8 C8             5.4736    -0.7726    -0.0540 C.ar    
   9 C9             6.2230     0.3897    -0.0545 C.ar    
  10 C10            5.5962     1.6229    -0.0419 C.ar    
  11 C11            4.2183     1.6993    -0.0340 C.ar    
  12 C12           -1.2404     2.2110     0.0202 C.3     
  13 C13           -2.2038     1.9184     1.1848 C.3     
  14 C14           -2.8954     0.9266     0.2318 C.3     
  15 N15           -2.3226     1.7341    -0.8627 N.am    
  16 C16           -2.6545     1.9494    -2.1511 C.2     
  17 C17           -3.8658     1.2737    -2.7402 C.3     
  18 O18           -1.9782     2.6870    -2.8363 O.2     
  19 C19           -4.0142     1.6784    -4.1842 C.ar    
  20 C20           -3.4032     0.9344    -5.1763 C.ar    
  21 C21           -4.7660     2.7900    -4.5162 C.ar    
  22 C22           -4.9036     3.1616    -5.8402 C.ar    
  23 C23           -4.2877     2.4203    -6.8343 C.ar    
  24 C24           -3.5389     1.3043    -6.5009 C.ar    
  25 F25           -4.4214     2.7826    -8.1289 F       
  26 C26            6.1635    -2.1123    -0.0679 C.3     
  27 H27            3.5104    -1.6161    -0.0394 H       
  28 H28            7.3015     0.3345    -0.0645 H       
  29 H29            6.1862     2.5275    -0.0419 H       
  30 H30            3.7299     2.6626    -0.0245 H       
  31 H31           -1.0061     3.2686    -0.1010 H       
  32 H32           -1.7254     1.4431     2.0412 H       
  33 H33           -2.8277     2.7680     1.4623 H       
  34 H34           -2.4959    -0.0861     0.2862 H       
  35 H35           -3.9839     0.9590     0.2784 H       
  36 H36           -3.7456     0.1922    -2.6765 H       
  37 H37           -4.7549     1.5737    -2.1856 H       
  38 H38           -2.8192     0.0640    -4.9161 H       
  39 H39           -5.2464     3.3681    -3.7406 H       
  40 H40           -5.4915     4.0297    -6.0994 H       
  41 H41           -3.0578     0.7255    -7.2755 H       
  42 H42            6.3199    -2.4298    -1.0988 H       
  43 H43            7.1259    -2.0306     0.4372 H       
  44 H44            5.5435    -2.8456     0.4480 H       
@<TRIPOS>BOND
   1    1    2 1
   2    1    5 2
   3    1   12 1
   4    2    3 1
   5    3    4 2
   6    4    5 1
   7    4    6 1
   8    6    7 ar
   9    6   11 ar
  10    7    8 ar
  11    7   27 1
  12    8    9 ar
  13    8   26 1
  14    9   10 ar
  15    9   28 1
  16   10   11 ar
  17   10   29 1
  18   11   30 1
  19   12   13 1
  20   12   15 1
  21   12   31 1
  22   13   14 1
  23   13   32 1
  24   13   33 1
  25   14   15 1
  26   14   34 1
  27   14   35 1
  28   15   16 am
  29   16   17 1
  30   16   18 2
  31   17   19 1
  32   17   36 1
  33   17   37 1
  34   19   20 ar
  35   19   21 ar
  36   20   24 ar
  37   20   38 1
  38   21   22 ar
  39   21   39 1
  40   22   23 ar
  41   22   40 1
  42   23   24 ar
  43   23   25 1
  44   24   41 1
  45   26   42 1
  46   26   43 1
  47   26   44 1

#	End of record

