#	Name: ASD08150985
#	Creating user name:	WinNT
#	Creation time:	15. 06. 2019 21:16

#	Modifying user name:	WinNT
#	Modification time:	15. 06. 2019 21:16

#	Program:	/corina/corina34_cracker 3.40 0067  02.08.2006

@<TRIPOS>MOLECULE
ASD08150985
  26   27    0    0    0
SMALL
NO_CHARGES


@<TRIPOS>ATOM
   1 C1            -0.0164     1.3580     0.0095 C.ar    
   2 C2             0.0021    -0.0041     0.0020 C.ar    
   3 C3             1.2060    -0.7048    -0.0133 C.ar    
   4 C4             2.3989    -0.0489    -0.0206 C.ar    
   5 C5             2.4204     1.3559    -0.0133 C.ar    
   6 C6             3.6325     2.0674    -0.0205 C.ar    
   7 C7             3.6146     3.4281    -0.0130 C.ar    
   8 C8             2.4105     4.1299     0.0016 C.ar    
   9 C9             1.2176     3.4747     0.0090 C.ar    
  10 C10            1.1960     2.0697     0.0018 C.ar    
  11 Br11          -1.6638     2.2864     0.0224 Br      
  12 C12           -1.2992    -0.7642     0.0109 C.3     
  13 C13           -1.8172    -0.9051    -1.4218 C.3     
  14 N14           -1.0837    -2.0945     0.5854 N.2     
  15 N15           -1.9569    -2.7817     0.7546 N.1     
  16 N16           -2.8301    -3.4690     0.9238 N.pl3   
  17 H17            1.1928    -1.7847    -0.0190 H       
  18 H18            3.3243    -0.6057    -0.0318 H       
  19 H19            4.5732     1.5369    -0.0315 H       
  20 H20            4.5474     3.9724    -0.0182 H       
  21 H21            2.4242     5.2098     0.0076 H       
  22 H22            0.2924     4.0318     0.0207 H       
  23 H23           -2.0316    -0.2237     0.6105 H       
  24 H24           -2.7584    -1.4549    -1.4154 H       
  25 H25           -1.9775     0.0847    -1.8493 H       
  26 H26           -1.0848    -1.4456    -2.0215 H       
@<TRIPOS>BOND
   1    1    2 ar
   2    1   10 ar
   3    1   11 1
   4    2    3 ar
   5    2   12 1
   6    3    4 ar
   7    3   17 1
   8    4    5 ar
   9    4   18 1
  10    5    6 ar
  11    5   10 ar
  12    6    7 ar
  13    6   19 1
  14    7    8 ar
  15    7   20 1
  16    8    9 ar
  17    8   21 1
  18    9   10 ar
  19    9   22 1
  20   12   13 1
  21   12   14 1
  22   12   23 1
  23   13   24 1
  24   13   25 1
  25   13   26 1
  26   14   15 2
  27   15   16 2

#	End of record

