#	Name: ASD01410025
#	Creating user name:	WinNT
#	Creation time:	15. 06. 2019 19:16

#	Modifying user name:	WinNT
#	Modification time:	15. 06. 2019 19:16

#	Program:	/corina/corina34_cracker 3.40 0067  02.08.2006

@<TRIPOS>MOLECULE
ASD01410025
  33   34    0    0    0
SMALL
NO_CHARGES


@<TRIPOS>ATOM
   1 C1            -0.0226     1.4093    -0.0702 C.ar    
   2 C2             0.0003     0.0255    -0.0754 C.ar    
   3 C3            -1.1829    -0.6861    -0.0557 C.ar    
   4 C4            -2.3974    -0.0113    -0.0308 C.ar    
   5 C5            -2.4172     1.3781    -0.0257 C.ar    
   6 C6            -1.2305     2.0841    -0.0397 C.ar    
   7 S7            -3.9094    -0.9158    -0.0062 S.3     
   8 C8            -5.1666     0.3917     0.0219 C.3     
   9 C9            -6.5386    -0.2312     0.0449 C.2     
  10 N10           -7.6344     0.5532     0.0680 N.am    
  11 C11           -8.9014    -0.0177    -0.0239 C.ar    
  12 C12           -9.1036    -1.1439    -0.8097 C.ar    
  13 C13          -10.3605    -1.7082    -0.8994 C.ar    
  14 C14          -11.4275    -1.1579    -0.2082 C.ar    
  15 C15          -11.2459    -0.0398     0.5769 C.ar    
  16 C16           -9.9790     0.5395     0.6820 C.ar    
  17 O17           -6.6568    -1.4382     0.0426 O.2     
  18 C18           -9.7775     1.7350     1.5202 C.2     
  19 O19          -10.8340     2.3353     2.1027 O.3     
  20 O20           -8.6587     2.1792     1.6860 O.2     
  21 Cl21           1.4671     2.3004    -0.0950 Cl      
  22 H22            0.9446    -0.4983    -0.0951 H       
  23 H23           -1.1644    -1.7659    -0.0601 H       
  24 H24           -3.3596     1.9053    -0.0066 H       
  25 H25           -1.2451     3.1640    -0.0354 H       
  26 H26           -5.0316     1.0064     0.9118 H       
  27 H27           -5.0645     1.0130    -0.8678 H       
  28 H28           -7.5407     1.5152     0.1487 H       
  29 H29           -8.2770    -1.5790    -1.3517 H       
  30 H30          -10.5128    -2.5841    -1.5127 H       
  31 H31          -12.4066    -1.6070    -0.2852 H       
  32 H32          -12.0812     0.3855     1.1135 H       
  33 H33          -10.6522     3.1162     2.6432 H       
@<TRIPOS>BOND
   1    1    2 ar
   2    1   21 1
   3    1    6 ar
   4    2    3 ar
   5    2   22 1
   6    3    4 ar
   7    3   23 1
   8    4    5 ar
   9    4    7 1
  10    5    6 ar
  11    5   24 1
  12    6   25 1
  13    7    8 1
  14    8    9 1
  15    8   26 1
  16    8   27 1
  17    9   10 am
  18    9   17 2
  19   10   11 1
  20   10   28 1
  21   11   12 ar
  22   11   16 ar
  23   12   13 ar
  24   12   29 1
  25   13   14 ar
  26   13   30 1
  27   14   15 ar
  28   14   31 1
  29   15   16 ar
  30   15   32 1
  31   16   18 1
  32   18   19 1
  33   18   20 2
  34   19   33 1

#	End of record

