#	Name: ASD06560010
#	Creating user name:	WinNT
#	Creation time:	15. 06. 2019 21:06

#	Modifying user name:	WinNT
#	Modification time:	15. 06. 2019 21:06

#	Program:	/corina/corina34_cracker 3.40 0067  02.08.2006

@<TRIPOS>MOLECULE
ASD06560010
  53   57    0    0    0
SMALL
NO_CHARGES


@<TRIPOS>ATOM
   1 C1            -0.0170     1.4033     0.0098 C.ar    
   2 C2             0.0021    -0.0041     0.0020 C.ar    
   3 N3             2.3588     0.0717    -0.0207 N.ar    
   4 C4             2.2976     1.3979    -0.0124 C.ar    
   5 N5             1.1384     2.0542     0.0022 N.ar    
   6 N6            -0.9502    -0.9665     0.0059 N.2     
   7 C7            -0.3834    -2.1383    -0.0058 C.2     
   8 N8             0.9729    -1.9998    -0.0180 N.pl3   
   9 C9             1.2487    -0.6551    -0.0134 C.ar    
  10 C10            1.7930    -3.9776     1.2165 C.3     
  11 C11            2.0442    -5.4252     0.7591 C.3     
  12 C12            2.3505    -5.3632    -0.7516 C.3     
  13 C13            1.6873    -4.0441    -1.2198 C.3     
  14 C14            1.9554    -3.0865    -0.0322 C.3     
  15 N15           -1.2166     2.0935     0.0192 N.pl3   
  16 C16           -1.2187     3.5585     0.0272 C.3     
  17 O17            3.7614    -5.3203    -0.9745 O.3     
  18 O18            2.3096    -3.5596    -2.4115 O.3     
  19 C19            2.8580    -6.3805     1.5934 C.2     
  20 O20            3.3301    -6.0135     2.6486 O.2     
  21 N21            3.0613    -7.6428     1.1670 N.am    
  22 C22            3.8525    -8.5715     1.9780 C.3     
  23 C23            3.5177     2.1474    -0.0202 C.1     
  24 C24            4.5180     2.7619    -0.0267 C.1     
  25 C25            5.7381     3.5115    -0.0346 C.ar    
  26 C26            0.6534    -4.9984     1.2329 C.3     
  27 C27            6.9688     2.8485    -0.0566 C.ar    
  28 C28            5.7032     4.9086    -0.0261 C.ar    
  29 C29            6.8810     5.6259    -0.0342 C.ar    
  30 C30            8.0985     4.9649    -0.0512 C.ar    
  31 C31            8.1411     3.5770    -0.0646 C.ar    
  32 F32            9.3317     2.9389    -0.0854 F       
  33 F33            9.2487     5.6735    -0.0595 F       
  34 H34           -0.9099    -3.0812    -0.0055 H       
  35 H35            2.1966    -3.6022     2.1568 H       
  36 H36            1.9079    -6.2162    -1.2659 H       
  37 H37            0.6167    -4.1823    -1.3705 H       
  38 H38            2.9671    -2.6842    -0.0848 H       
  39 H39           -2.0559     1.6072     0.0206 H       
  40 H40           -0.7012     3.9177     0.9167 H       
  41 H41           -0.7097     3.9274    -0.8632 H       
  42 H42           -2.2469     3.9203     0.0341 H       
  43 H43            4.0111    -5.2805    -1.9078 H       
  44 H44            2.2395    -4.1620    -3.1646 H       
  45 H45            2.6838    -7.9363     0.3231 H       
  46 H46            3.9073    -9.5370     1.4753 H       
  47 H47            4.8584    -8.1728     2.1096 H       
  48 H48            3.3805    -8.6956     2.9527 H       
  49 H49            0.3194    -5.3633     2.2042 H       
  50 H50           -0.1252    -4.8948     0.4772 H       
  51 H51            7.0021     1.7691    -0.0671 H       
  52 H52            4.7552     5.4258    -0.0135 H       
  53 H53            6.8542     6.7055    -0.0276 H       
@<TRIPOS>BOND
   1    1    2 ar
   2    1    5 ar
   3    1   15 1
   4    2    9 ar
   5    2    6 1
   6    3    4 ar
   7    3    9 ar
   8    4    5 ar
   9    4   23 1
  10    6    7 2
  11    7    8 1
  12    7   34 1
  13    8    9 1
  14    8   14 1
  15   10   11 1
  16   10   14 1
  17   10   26 1
  18   10   35 1
  19   11   12 1
  20   11   19 1
  21   11   26 1
  22   12   13 1
  23   12   17 1
  24   12   36 1
  25   13   14 1
  26   13   18 1
  27   13   37 1
  28   14   38 1
  29   15   16 1
  30   15   39 1
  31   16   40 1
  32   16   41 1
  33   16   42 1
  34   17   43 1
  35   18   44 1
  36   19   20 2
  37   19   21 am
  38   21   22 1
  39   21   45 1
  40   22   46 1
  41   22   47 1
  42   22   48 1
  43   23   24 3
  44   24   25 1
  45   25   28 ar
  46   25   27 ar
  47   26   49 1
  48   26   50 1
  49   27   31 ar
  50   27   51 1
  51   28   29 ar
  52   28   52 1
  53   29   30 ar
  54   29   53 1
  55   30   31 ar
  56   30   33 1
  57   31   32 1

#	End of record

