#	Name: ASD01814143
#	Creating user name:	WinNT
#	Creation time:	15. 06. 2019 19:31

#	Modifying user name:	WinNT
#	Modification time:	15. 06. 2019 19:31

#	Program:	/corina/corina34_cracker 3.40 0067  02.08.2006

@<TRIPOS>MOLECULE
ASD01814143
  55   57    0    0    0
SMALL
NO_CHARGES


@<TRIPOS>ATOM
   1 C1            -0.0548     1.4964    -0.2349 C.ar    
   2 C2            -0.0745     0.0426    -0.5032 C.2     
   3 N3             1.0600    -0.5926    -0.8581 N.am    
   4 O4            -1.1139    -0.5798    -0.4038 O.2     
   5 C5             1.0405    -2.0331    -1.1239 C.3     
   6 C6             2.4469    -2.5007    -1.5039 C.3     
   7 N7             2.4273    -3.9452    -1.7704 N.3     
   8 C8             3.7639    -4.4306    -2.1392 C.3     
   9 C9             1.5694    -7.0812    -2.3723 C.2     
  10 O10            1.0074    -7.9746    -1.5363 O.3     
  11 O11            0.9302    -6.6362    -3.3049 O.2     
  12 C12           -0.3654    -8.3605    -1.8100 C.3     
  13 C13            1.1045     2.2368    -0.4703 C.ar    
  14 C14            1.1160     3.5934    -0.2183 C.ar    
  15 C15           -0.0182     4.2195     0.2667 C.ar    
  16 C16           -1.1710     3.4911     0.5022 C.ar    
  17 C17           -1.1975     2.1354     0.2494 C.ar    
  18 C18            4.5641    -4.7429    -0.8714 C.3     
  19 C19            3.9212    -5.9203    -0.1324 C.3     
  20 C20            3.7796    -7.1010    -1.1063 C.3     
  21 N21            2.8409    -6.6805    -2.1746 N.am    
  22 C22            3.6331    -5.7147    -2.9738 C.3     
  23 C23            5.0344    -6.3604    -3.0718 C.3     
  24 C24            5.1315    -7.2783    -1.8352 C.3     
  25 C25           -0.8284    -9.3750    -0.7624 C.3     
  26 C26           -2.4539     1.3438     0.5060 C.3     
  27 H27            1.8894    -0.0959    -0.9374 H       
  28 H28            0.7104    -2.5631    -0.2304 H       
  29 H29            0.3541    -2.2419    -1.9445 H       
  30 H30            2.7769    -1.9708    -2.3974 H       
  31 H31            3.1333    -2.2919    -0.6833 H       
  32 H32            2.0635    -4.4541    -0.9788 H       
  33 H33            4.2823    -3.6672    -2.7194 H       
  34 H34           -1.0054    -7.4791    -1.7700 H       
  35 H35           -0.4260    -8.8089    -2.8016 H       
  36 H36            1.9907     1.7491    -0.8486 H       
  37 H37            2.0126     4.1675    -0.3997 H       
  38 H38           -0.0039     5.2815     0.4626 H       
  39 H39           -2.0530     3.9859     0.8812 H       
  40 H40            5.5878    -5.0005    -1.1428 H       
  41 H41            4.5711    -3.8675    -0.2220 H       
  42 H42            4.5521    -6.2129     0.7069 H       
  43 H43            2.9367    -5.6283     0.2330 H       
  44 H44            3.4506    -8.0103    -0.6032 H       
  45 H45            3.1880    -5.5253    -3.9506 H       
  46 H46            5.1193    -6.9462    -3.9871 H       
  47 H47            5.8088    -5.5940    -3.0374 H       
  48 H48            5.9535    -6.9636    -1.1924 H       
  49 H49            5.2641    -8.3158    -2.1420 H       
  50 H50           -1.8589    -9.6647    -0.9678 H       
  51 H51           -0.1884   -10.2563    -0.8024 H       
  52 H52           -0.7678    -8.9266     0.2293 H       
  53 H53           -3.0116     1.2357    -0.4243 H       
  54 H54           -2.1904     0.3576     0.8883 H       
  55 H55           -3.0686     1.8655     1.2396 H       
@<TRIPOS>BOND
   1    1    2 1
   2    1   13 ar
   3    1   17 ar
   4    2    3 am
   5    2    4 2
   6    3    5 1
   7    3   27 1
   8    5    6 1
   9    5   28 1
  10    5   29 1
  11    6    7 1
  12    6   30 1
  13    6   31 1
  14    7    8 1
  15    7   32 1
  16    8   18 1
  17    8   22 1
  18    8   33 1
  19    9   10 1
  20    9   11 2
  21    9   21 am
  22   10   12 1
  23   12   25 1
  24   12   34 1
  25   12   35 1
  26   13   14 ar
  27   13   36 1
  28   14   15 ar
  29   14   37 1
  30   15   16 ar
  31   15   38 1
  32   16   17 ar
  33   16   39 1
  34   17   26 1
  35   18   19 1
  36   18   40 1
  37   18   41 1
  38   19   20 1
  39   19   42 1
  40   19   43 1
  41   20   21 1
  42   20   24 1
  43   20   44 1
  44   21   22 1
  45   22   23 1
  46   22   45 1
  47   23   24 1
  48   23   46 1
  49   23   47 1
  50   24   48 1
  51   24   49 1
  52   25   50 1
  53   25   51 1
  54   25   52 1
  55   26   53 1
  56   26   54 1
  57   26   55 1

#	End of record

