#	Name: ASD01940541
#	Creating user name:	WinNT
#	Creation time:	15. 06. 2019 20:12

#	Modifying user name:	WinNT
#	Modification time:	15. 06. 2019 20:12

#	Program:	/corina/corina34_cracker 3.40 0067  02.08.2006

@<TRIPOS>MOLECULE
ASD01940541
  36   38    0    0    0
SMALL
NO_CHARGES


@<TRIPOS>ATOM
   1 C1             2.1644     3.3879     3.3123 C.3     
   2 C2             2.9641     2.6284     4.3728 C.3     
   3 C3             3.6673     3.1695     3.1264 C.3     
   4 S4             1.0419     2.4258     2.2612 S.o2    
   5 O5             1.7713     1.4938     1.4747 O.2     
   6 O6            -0.1069     2.0244     2.9950 O.2     
   7 N7             0.4628     3.5219     1.1632 N.am    
   8 C8             1.3499     4.2055     0.3211 C.ar    
   9 C9             1.1075     5.5366    -0.0159 C.ar    
  10 C10            1.9900     6.2091    -0.8502 C.ar    
  11 C11            3.1080     5.5562    -1.3452 C.ar    
  12 C12            3.3460     4.2347    -1.0096 C.ar    
  13 C13            2.4733     3.5613    -0.1741 C.ar    
  14 F14            3.9667     6.2108    -2.1572 F       
  15 F15            1.7591     7.4988    -1.1797 F       
  16 N16           -0.0242     6.1938     0.4861 N.pl3   
  17 C17            0.0835     7.0037     1.6214 C.ar    
  18 C18           -1.0582     7.5523     2.1972 C.ar    
  19 C19           -0.9477     8.3523     3.3191 C.ar    
  20 C20            0.2971     8.6070     3.8687 C.ar    
  21 C21            1.4333     8.0628     3.2973 C.ar    
  22 C22            1.3290     7.2573     2.1793 C.ar    
  23 F23           -2.2728     7.3039     1.6604 F       
  24 Cl24           0.4325     9.6121     5.2777 Cl      
  25 H25            1.8291     4.3950     3.5603 H       
  26 H26            3.1548     3.1358     5.3184 H       
  27 H27            2.8156     1.5506     4.4389 H       
  28 H28            3.9815     2.4477     2.3725 H       
  29 H29            4.3207     4.0329     3.2520 H       
  30 H30           -0.4905     3.6906     1.1031 H       
  31 H31            4.2180     3.7293    -1.3976 H       
  32 H32            2.6647     2.5315     0.0891 H       
  33 H33           -0.8820     6.0869     0.0461 H       
  34 H34           -1.8330     8.7791     3.7670 H       
  35 H35            2.4029     8.2642     3.7282 H       
  36 H36            2.2164     6.8291     1.7371 H       
@<TRIPOS>BOND
   1    1    2 1
   2    1    3 1
   3    1    4 1
   4    1   25 1
   5    2    3 1
   6    2   26 1
   7    2   27 1
   8    3   28 1
   9    3   29 1
  10    4    5 2
  11    4    6 2
  12    4    7 am
  13    7    8 1
  14    7   30 1
  15    8    9 ar
  16    8   13 ar
  17    9   10 ar
  18    9   16 1
  19   10   11 ar
  20   10   15 1
  21   11   12 ar
  22   11   14 1
  23   12   13 ar
  24   12   31 1
  25   13   32 1
  26   16   17 1
  27   16   33 1
  28   17   18 ar
  29   17   22 ar
  30   18   19 ar
  31   18   23 1
  32   19   20 ar
  33   19   34 1
  34   20   21 ar
  35   20   24 1
  36   21   22 ar
  37   21   35 1
  38   22   36 1

#	End of record

