#	Name: ASD02560222
#	Creating user name:	WinNT
#	Creation time:	15. 06. 2019 20:24

#	Modifying user name:	WinNT
#	Modification time:	15. 06. 2019 20:24

#	Program:	/corina/corina34_cracker 3.40 0067  02.08.2006

@<TRIPOS>MOLECULE
ASD02560222
  71   75    0    0    0
SMALL
NO_CHARGES


@<TRIPOS>ATOM
   1 Br1            3.5156     3.8195     0.3883 Br      
   2 N2             1.9200     2.8348     2.5138 N.2     
   3 N3             1.1743     1.9038     2.1942 N.2     
   4 C4             3.2651     2.6549     1.9523 C.3     
   5 N5             3.3184     1.2273     1.5478 N.3     
   6 C6             1.8777     0.9228     1.3578 C.3     
   7 S7             1.5094    -0.7633     1.9165 S.3     
   8 C8             1.9773    -0.7239     3.6686 C.3     
   9 C9             1.7262    -2.0755     4.2861 C.2     
  10 O10            1.2759    -2.9765     3.6107 O.2     
  11 N11            2.0020    -2.2829     5.5890 N.am    
  12 C12            4.0229     1.0721     0.3559 C.ar    
  13 C13            1.6977    -3.5093     6.1796 C.ar    
  14 C14            1.3953    -3.5705     7.5376 C.ar    
  15 C15            1.0944    -4.7803     8.1234 C.ar    
  16 C16            1.0931    -5.9466     7.3531 C.ar    
  17 C17            1.3970    -5.8810     5.9909 C.ar    
  18 C18            1.6914    -4.6676     5.4100 C.ar    
  19 Cl19           1.3981    -2.1210     8.4929 Cl      
  20 C20            0.7717    -7.2449     7.9774 C.2     
  21 C21            5.3693     1.4860     0.2654 C.ar    
  22 C22            3.4130     0.5076    -0.7443 C.ar    
  23 C23            4.1079     0.3482    -1.9393 C.ar    
  24 C24            5.4058     0.7433    -2.0560 C.ar    
  25 C25            6.0658     1.3184    -0.9568 C.ar    
  26 C26            6.0301     2.0603     1.3624 C.ar    
  27 C27            7.4050     1.7359    -1.0487 C.ar    
  28 C28            8.0137     2.2895     0.0355 C.ar    
  29 C29            7.3294     2.4485     1.2389 C.ar    
  30 C30            6.1356     0.5587    -3.3615 C.3     
  31 N31            1.3164    -8.3787     7.4933 N.am    
  32 O32            0.0155    -7.2916     8.9284 O.2     
  33 C33            2.3355    -8.3275     6.4361 C.3     
  34 C34            0.9067    -9.6889     8.0169 C.3     
  35 C35            2.1569   -10.4557     8.4595 C.3     
  36 C36            3.1466   -10.5260     7.2944 C.3     
  37 C37            3.5666    -9.1124     6.8998 C.3     
  38 C38           -0.0261    -9.4941     9.2138 C.3     
  39 O39           -1.3151    -9.0854     8.7516 O.3     
  40 C40            6.9204    -0.7542    -3.3259 C.3     
  41 H41            4.0228     2.8639     2.7076 H       
  42 H42            1.5984     1.0463     0.3114 H       
  43 H43            3.0348    -0.4750     3.7568 H       
  44 H44            1.3825     0.0284     4.1867 H       
  45 H45            2.4121    -1.5793     6.1159 H       
  46 H46            0.8603    -4.8277     9.1767 H       
  47 H47            1.3967    -6.7805     5.3932 H       
  48 H48            1.9260    -4.6167     4.3570 H       
  49 H49            2.3844     0.1851    -0.6778 H       
  50 H50            3.6097    -0.0966    -2.7880 H       
  51 H51            5.5106     2.1940     2.2997 H       
  52 H52            7.9481     1.6177    -1.9746 H       
  53 H53            9.0426     2.6095    -0.0377 H       
  54 H54            7.8351     2.8912     2.0842 H       
  55 H55            5.4156     0.5296    -4.1793 H       
  56 H56            6.8244     1.3898    -3.5133 H       
  57 H57            1.9391    -8.7747     5.5245 H       
  58 H58            2.6133    -7.2908     6.2462 H       
  59 H59            0.3915   -10.2493     7.2368 H       
  60 H60            2.6209    -9.9405     9.3005 H       
  61 H61            1.8769   -11.4653     8.7604 H       
  62 H62            4.0266   -11.0923     7.5991 H       
  63 H63            2.6735   -11.0193     6.4453 H       
  64 H64            4.2894    -9.1617     6.0854 H       
  65 H65            4.0179    -8.6141     7.7578 H       
  66 H66           -0.1169   -10.4328     9.7603 H       
  67 H67            0.3832    -8.7282     9.8726 H       
  68 H68           -1.9594    -8.9430     9.4585 H       
  69 H69            7.4483    -0.8876    -4.2701 H       
  70 H70            7.6405    -0.7250    -2.5081 H       
  71 H71            6.2316    -1.5852    -3.1740 H       
@<TRIPOS>BOND
   1    1    4 1
   2    2    3 2
   3    2    4 1
   4    3    6 1
   5    4    5 1
   6    4   41 1
   7    5    6 1
   8    5   12 1
   9    6    7 1
  10    6   42 1
  11    7    8 1
  12    8    9 1
  13    8   43 1
  14    8   44 1
  15    9   10 2
  16    9   11 am
  17   11   13 1
  18   11   45 1
  19   12   21 ar
  20   12   22 ar
  21   13   14 ar
  22   13   18 ar
  23   14   15 ar
  24   14   19 1
  25   15   16 ar
  26   15   46 1
  27   16   17 ar
  28   16   20 1
  29   17   18 ar
  30   17   47 1
  31   18   48 1
  32   20   31 am
  33   20   32 2
  34   21   25 ar
  35   21   26 ar
  36   22   23 ar
  37   22   49 1
  38   23   24 ar
  39   23   50 1
  40   24   25 ar
  41   24   30 1
  42   25   27 ar
  43   26   29 ar
  44   26   51 1
  45   27   28 ar
  46   27   52 1
  47   28   29 ar
  48   28   53 1
  49   29   54 1
  50   30   40 1
  51   30   55 1
  52   30   56 1
  53   31   33 1
  54   31   34 1
  55   33   37 1
  56   33   57 1
  57   33   58 1
  58   34   35 1
  59   34   38 1
  60   34   59 1
  61   35   36 1
  62   35   60 1
  63   35   61 1
  64   36   37 1
  65   36   62 1
  66   36   63 1
  67   37   64 1
  68   37   65 1
  69   38   39 1
  70   38   66 1
  71   38   67 1
  72   39   68 1
  73   40   69 1
  74   40   70 1
  75   40   71 1

#	End of record

