#	Name: ASD01810646
#	Creating user name:	WinNT
#	Creation time:	15. 06. 2019 19:25

#	Modifying user name:	WinNT
#	Modification time:	15. 06. 2019 19:25

#	Program:	/corina/corina34_cracker 3.40 0067  02.08.2006

@<TRIPOS>MOLECULE
ASD01810646
  62   66    0    0    0
SMALL
NO_CHARGES


@<TRIPOS>ATOM
   1 C1            -0.0097     1.3772     0.2649 C.ar    
   2 C2             0.0186     0.0679    -0.2363 C.ar    
   3 C3            -1.1690    -0.6037    -0.4927 C.ar    
   4 C4            -2.3786     0.0116    -0.2569 C.ar    
   5 C5            -2.4184     1.3173     0.2425 C.ar    
   6 C6            -1.2307     1.9975     0.5094 C.ar    
   7 C7            -3.7172     1.9728     0.4933 C.2     
   8 O8             1.2068    -0.5424    -0.4712 O.3     
   9 C9            -3.6632    -0.7244    -0.5384 C.3     
  10 N10           -3.9664     2.5387     1.6908 N.am    
  11 O11           -4.5621     2.0022    -0.3805 O.2     
  12 C12           -5.2027     3.2999     1.9164 C.3     
  13 C13           -3.0096     2.4011     2.7974 C.3     
  14 C14           -3.7471     1.8481     4.0209 C.3     
  15 C15           -4.9477     2.7434     4.3357 C.3     
  16 C16           -5.9111     2.7349     3.1517 C.3     
  17 C17           -5.6559     2.2217     5.5593 C.ar    
  18 C18           -5.7770     3.0246     6.6797 C.ar    
  19 C19           -6.4245     2.5535     7.8030 C.ar    
  20 C20           -6.9582     1.2633     7.8077 C.ar    
  21 C21           -6.8324     0.4584     6.6736 C.ar    
  22 C22           -6.1871     0.9441     5.5553 C.ar    
  23 C23           -7.6312     0.7675     8.9704 C.1     
  24 C24            1.2540     2.0939     0.5385 C.2     
  25 N25            2.4678     1.6144     0.3536 N.2     
  26 C26            3.3590     2.5368     0.7052 C.2     
  27 C27            2.6905     3.6371     1.1288 C.2     
  28 N28            1.3621     3.3692     1.0208 N.pl3   
  29 C29            4.8668     2.4628     0.6709 C.3     
  30 C30            5.4082     3.8949     0.7894 C.3     
  31 O31            4.7519     4.5703     1.8655 O.3     
  32 C32            3.3766     4.8889     1.6114 C.3     
  33 C33            1.1612    -1.8763    -0.9818 C.3     
  34 N34           -8.1651     0.3742     9.8928 N.1     
  35 H35           -1.1444    -1.6120    -0.8788 H       
  36 H36           -1.2586     3.0058     0.8951 H       
  37 H37           -4.0228    -1.1914     0.3785 H       
  38 H38           -4.4113    -0.0221    -0.9060 H       
  39 H39           -3.4846    -1.4921    -1.2913 H       
  40 H40           -4.9605     4.3496     2.0823 H       
  41 H41           -5.8534     3.2059     1.0471 H       
  42 H42           -2.2138     1.7143     2.5091 H       
  43 H43           -2.5849     3.3761     3.0366 H       
  44 H44           -4.0932     0.8361     3.8104 H       
  45 H45           -3.0715     1.8314     4.8761 H       
  46 H46           -4.6031     3.7607     4.5219 H       
  47 H47           -6.7780     3.3536     3.3835 H       
  48 H48           -6.2352     1.7132     2.9537 H       
  49 H49           -5.3634     4.0222     6.6748 H       
  50 H50           -6.5180     3.1811     8.6769 H       
  51 H51           -7.2426    -0.5406     6.6707 H       
  52 H52           -6.0890     0.3227     4.6774 H       
  53 H53            0.6315     3.9656     1.2478 H       
  54 H54            5.2262     1.8618     1.5062 H       
  55 H55            5.1935     2.0211    -0.2705 H       
  56 H56            6.4806     3.8624     0.9818 H       
  57 H57            5.2234     4.4307    -0.1416 H       
  58 H58            3.3128     5.6624     0.8460 H       
  59 H59            2.9035     5.2379     2.5293 H       
  60 H60            2.1767    -2.2457    -1.1243 H       
  61 H61            0.6369    -2.5185    -0.2742 H       
  62 H62            0.6352    -1.8821    -1.9365 H       
@<TRIPOS>BOND
   1    1    2 ar
   2    1   24 1
   3    1    6 ar
   4    2    3 ar
   5    2    8 1
   6    3    4 ar
   7    3   35 1
   8    4    5 ar
   9    4    9 1
  10    5    6 ar
  11    5    7 1
  12    6   36 1
  13    7   10 am
  14    7   11 2
  15    8   33 1
  16    9   37 1
  17    9   38 1
  18    9   39 1
  19   10   12 1
  20   10   13 1
  21   12   16 1
  22   12   40 1
  23   12   41 1
  24   13   14 1
  25   13   42 1
  26   13   43 1
  27   14   15 1
  28   14   44 1
  29   14   45 1
  30   15   16 1
  31   15   17 1
  32   15   46 1
  33   16   47 1
  34   16   48 1
  35   17   18 ar
  36   17   22 ar
  37   18   19 ar
  38   18   49 1
  39   19   20 ar
  40   19   50 1
  41   20   21 ar
  42   20   23 1
  43   21   22 ar
  44   21   51 1
  45   22   52 1
  46   23   34 3
  47   24   25 2
  48   24   28 1
  49   25   26 1
  50   26   27 2
  51   26   29 1
  52   27   28 1
  53   27   32 1
  54   28   53 1
  55   29   30 1
  56   29   54 1
  57   29   55 1
  58   30   31 1
  59   30   56 1
  60   30   57 1
  61   31   32 1
  62   32   58 1
  63   32   59 1
  64   33   60 1
  65   33   61 1
  66   33   62 1

#	End of record

