#	Name: ASD01150508
#	Creating user name:	WinNT
#	Creation time:	15. 06. 2019 19:04

#	Modifying user name:	WinNT
#	Modification time:	15. 06. 2019 19:04

#	Program:	/corina/corina34_cracker 3.40 0067  02.08.2006

@<TRIPOS>MOLECULE
ASD01150508
  45   47    0    0    0
SMALL
NO_CHARGES


@<TRIPOS>ATOM
   1 C1             3.0903     2.7193     1.4415 C.ar    
   2 C2             3.4662     1.4443     1.8167 C.ar    
   3 C3             1.7427     0.5216     0.4233 C.ar    
   4 C4             1.3621     1.8011     0.0446 C.ar    
   5 C5             2.0366     2.9017     0.5539 C.ar    
   6 N6             1.6559     4.1936     0.1746 N.am    
   7 C7             0.3606     4.5486     0.2388 C.2     
   8 N8            -0.0407     5.7829    -0.1179 N.am    
   9 C9             0.8617     6.6887    -0.5487 C.2     
  10 C10            2.2802     6.3067    -0.6212 C.2     
  11 N11            2.6298     5.1000    -0.2609 N.2     
  12 O12            0.5068     7.8066    -0.8733 O.2     
  13 C13           -1.4585     6.1431    -0.0386 C.3     
  14 O14           -0.4623     3.7407     0.6252 O.2     
  15 C15           -1.7184     6.8797     1.2502 C.ar    
  16 O16            3.2129     7.1958    -1.0513 O.3     
  17 C17            4.5685     6.7452    -1.0919 C.3     
  18 C18            2.7965     0.3463     1.3112 C.ar    
  19 C19           -1.6778     8.2608     1.2768 C.ar    
  20 C20           -1.9161     8.9372     2.4587 C.ar    
  21 C21           -2.1949     8.2318     3.6155 C.ar    
  22 C22           -2.2358     6.8491     3.5895 C.ar    
  23 C23           -2.0033     6.1732     2.4054 C.ar    
  24 Cl24          -2.4931     9.0813     5.0998 Cl      
  25 Cl25          -2.0548     4.4383     2.3716 Cl      
  26 N26            1.0655    -0.5908    -0.0883 N.am    
  27 C27            1.7373    -1.7319    -0.3394 C.2     
  28 O28            2.9123    -1.8198    -0.0517 O.2     
  29 C29            1.0286    -2.8987    -0.9778 C.3     
  30 H30            3.6128     3.5756     1.8418 H       
  31 H31            4.2856     1.3051     2.5064 H       
  32 H32            0.5429     1.9401    -0.6453 H       
  33 H33           -1.7185     6.7831    -0.8817 H       
  34 H34           -2.0654     5.2382    -0.0687 H       
  35 H35            4.8838     6.4511    -0.0909 H       
  36 H36            4.6472     5.8903    -1.7635 H       
  37 H37            5.2084     7.5506    -1.4525 H       
  38 H38            3.0929    -0.6494     1.6066 H       
  39 H39           -1.4594     8.8119     0.3740 H       
  40 H40           -1.8842    10.0165     2.4789 H       
  41 H41           -2.4534     6.2980     4.4924 H       
  42 H42            0.1126    -0.5407    -0.2623 H       
  43 H43            0.6427    -2.6003    -1.9526 H       
  44 H44            1.7282    -3.7253    -1.1014 H       
  45 H45            0.2021    -3.2143    -0.3410 H       
@<TRIPOS>BOND
   1    1    2 ar
   2    1    5 ar
   3    1   30 1
   4    2   18 ar
   5    2   31 1
   6    3    4 ar
   7    3   26 1
   8    3   18 ar
   9    4    5 ar
  10    4   32 1
  11    5    6 1
  12    6    7 am
  13    6   11 1
  14    7    8 am
  15    7   14 2
  16    8    9 am
  17    8   13 1
  18    9   10 1
  19    9   12 2
  20   10   11 2
  21   10   16 1
  22   13   15 1
  23   13   33 1
  24   13   34 1
  25   15   19 ar
  26   15   23 ar
  27   16   17 1
  28   17   35 1
  29   17   36 1
  30   17   37 1
  31   18   38 1
  32   19   20 ar
  33   19   39 1
  34   20   21 ar
  35   20   40 1
  36   21   22 ar
  37   21   24 1
  38   22   23 ar
  39   22   41 1
  40   23   25 1
  41   26   27 am
  42   26   42 1
  43   27   28 2
  44   27   29 1
  45   29   43 1
  46   29   44 1
  47   29   45 1

#	End of record

