#	Name: ASD03490002
#	Creating user name:	WinNT
#	Creation time:	15. 06. 2019 20:42

#	Modifying user name:	WinNT
#	Modification time:	15. 06. 2019 20:42

#	Program:	/corina/corina34_cracker 3.40 0067  02.08.2006

@<TRIPOS>MOLECULE
ASD03490002
  76   80    0    0    0
SMALL
NO_CHARGES


@<TRIPOS>ATOM
   1 C1            -0.0142     1.3514    -0.0294 C.2     
   2 C2             0.0066    -0.0092    -0.0913 C.2     
   3 C3            -1.3164    -0.4586    -0.0948 C.2     
   4 N4            -2.1088     0.5816    -0.0376 N.2     
   5 N5            -1.3192     1.7377     0.0102 N.pl3   
   6 N6             1.0947     2.1919    -0.0049 N.am    
   7 C7             2.3368     1.6701    -0.0444 C.2     
   8 C8             3.5238     2.5698    -0.0183 C.2     
   9 C9             4.8702     2.0026     0.0758 C.ar    
  10 C10            6.0508     2.8631    -0.0328 C.ar    
  11 C11            7.3354     2.2791     0.0636 C.ar    
  12 C12            7.4512     0.8855     0.2609 C.ar    
  13 C13            6.3212     0.0948     0.3592 C.ar    
  14 C14            5.0519     0.6317     0.2765 C.ar    
  15 C15            5.9314     4.2421    -0.2291 C.ar    
  16 C16            7.0558     5.0100    -0.3256 C.ar    
  17 C17            8.3206     4.4384    -0.2311 C.ar    
  18 C18            8.4709     3.0970    -0.0394 C.ar    
  19 O19            8.6777     0.3194     0.3540 O.3     
  20 C20            8.7262    -1.0948     0.5535 C.3     
  21 C21           10.1850    -1.5489     0.6334 C.3     
  22 N22           10.8145    -0.9664     1.8260 N.3     
  23 C23           12.1363    -1.5625     2.0684 C.3     
  24 C24           12.7803    -0.8866     3.2818 C.3     
  25 O25           11.9120    -1.0175     4.4107 O.3     
  26 C26           10.6161    -0.4471     4.2095 C.3     
  27 C27            9.9502    -1.1186     3.0055 C.3     
  28 C28           -1.7569    -1.8986    -0.1549 C.3     
  29 C29           -1.5311    -2.5583     1.2070 C.3     
  30 C30           -3.2431    -1.9628    -0.5125 C.3     
  31 C31           -0.9437    -2.6366    -1.2202 C.3     
  32 C32           -1.7887     3.0565     0.0777 C.ar    
  33 C33           -2.9553     3.4144    -0.5846 C.ar    
  34 C34           -3.4157     4.7147    -0.5158 C.ar    
  35 C35           -2.7160     5.6598     0.2118 C.ar    
  36 C36           -1.5535     5.3066     0.8721 C.ar    
  37 C37           -1.0911     4.0065     0.8118 C.ar    
  38 C38           -3.2210     7.0778     0.2848 C.3     
  39 O39            2.4882     0.4666    -0.1013 O.2     
  40 O40            3.3745     3.7748    -0.0751 O.2     
  41 H41            0.8891    -0.6304    -0.1310 H       
  42 H42            0.9738     3.1532     0.0405 H       
  43 H43            6.4342    -0.9686     0.5097 H       
  44 H44            4.1912    -0.0156     0.3575 H       
  45 H45            4.9550     4.6973    -0.3043 H       
  46 H46            6.9623     6.0752    -0.4776 H       
  47 H47            9.1958     5.0661    -0.3105 H       
  48 H48            9.4586     2.6660     0.0321 H       
  49 H49            8.2153    -1.3484     1.4823 H       
  50 H50            8.2347    -1.5963    -0.2802 H       
  51 H51           10.2241    -2.6364     0.6963 H       
  52 H52           10.7182    -1.2171    -0.2576 H       
  53 H53           12.0245    -2.6292     2.2628 H       
  54 H54           12.7680    -1.4159     1.1923 H       
  55 H55           13.7356    -1.3640     3.5001 H       
  56 H56           12.9413     0.1698     3.0671 H       
  57 H57           10.0061    -0.6067     5.0987 H       
  58 H58           10.7142     0.6221     4.0217 H       
  59 H59            8.9861    -0.6479     2.8134 H       
  60 H60            9.8034    -2.1782     3.2148 H       
  61 H61           -2.1104    -2.0325     1.9659 H       
  62 H62           -1.8497    -3.5998     1.1635 H       
  63 H63           -0.4723    -2.5125     1.4617 H       
  64 H64           -3.4040    -1.4928    -1.4828 H       
  65 H65           -3.5617    -3.0043    -0.5560 H       
  66 H66           -3.8225    -1.4370     0.2464 H       
  67 H67            0.1151    -2.5909    -0.9655 H       
  68 H68           -1.2623    -3.6781    -1.2637 H       
  69 H69           -1.1045    -2.1667    -2.1905 H       
  70 H70           -3.5021     2.6768    -1.1533 H       
  71 H71           -4.3229     4.9938    -1.0311 H       
  72 H72           -1.0088     6.0471     1.4390 H       
  73 H73           -0.1832     3.7312     1.3278 H       
  74 H74           -3.8906     7.1815     1.1386 H       
  75 H75           -2.3775     7.7585     0.3998 H       
  76 H76           -3.7603     7.3190    -0.6313 H       
@<TRIPOS>BOND
   1    1    2 2
   2    1    6 1
   3    1    5 1
   4    2    3 1
   5    2   41 1
   6    3    4 2
   7    3   28 1
   8    4    5 1
   9    5   32 1
  10    6    7 am
  11    6   42 1
  12    7    8 1
  13    7   39 2
  14    8    9 1
  15    8   40 2
  16    9   10 ar
  17    9   14 ar
  18   10   11 ar
  19   10   15 ar
  20   11   12 ar
  21   11   18 ar
  22   12   13 ar
  23   12   19 1
  24   13   14 ar
  25   13   43 1
  26   14   44 1
  27   15   16 ar
  28   15   45 1
  29   16   17 ar
  30   16   46 1
  31   17   18 ar
  32   17   47 1
  33   18   48 1
  34   19   20 1
  35   20   21 1
  36   20   49 1
  37   20   50 1
  38   21   22 1
  39   21   51 1
  40   21   52 1
  41   22   23 1
  42   22   27 1
  43   23   24 1
  44   23   53 1
  45   23   54 1
  46   24   25 1
  47   24   55 1
  48   24   56 1
  49   25   26 1
  50   26   27 1
  51   26   57 1
  52   26   58 1
  53   27   59 1
  54   27   60 1
  55   28   29 1
  56   28   30 1
  57   28   31 1
  58   29   61 1
  59   29   62 1
  60   29   63 1
  61   30   64 1
  62   30   65 1
  63   30   66 1
  64   31   67 1
  65   31   68 1
  66   31   69 1
  67   32   33 ar
  68   32   37 ar
  69   33   34 ar
  70   33   70 1
  71   34   35 ar
  72   34   71 1
  73   35   36 ar
  74   35   38 1
  75   36   37 ar
  76   36   72 1
  77   37   73 1
  78   38   74 1
  79   38   75 1
  80   38   76 1

#	End of record

