#	Name: ASD01028540
#	Creating user name:	WinNT
#	Creation time:	15. 06. 2019 18:57

#	Modifying user name:	WinNT
#	Modification time:	15. 06. 2019 18:57

#	Program:	/corina/corina34_cracker 3.40 0067  02.08.2006

@<TRIPOS>MOLECULE
ASD01028540
  46   50    0    0    0
SMALL
NO_CHARGES


@<TRIPOS>ATOM
   1 N1            -0.0169     1.3921     0.0097 N.2     
   2 N2             0.0021    -0.0041     0.0020 N.pl3   
   3 C3             1.1080     2.0745     0.0026 C.2     
   4 C4             2.3545     1.4115    -0.0133 C.2     
   5 C5             2.4037     0.0538    -0.0211 C.2     
   6 C6             1.2000    -0.6770    -0.0130 C.2     
   7 N7             0.9136    -1.9688    -0.0175 N.2     
   8 N8            -0.3647    -2.1206    -0.0059 N.2     
   9 C9            -0.9589    -0.9531     0.0061 C.2     
  10 C10           -2.4464    -0.7125     0.0223 C.3     
  11 C11            1.0663     3.5557     0.0110 C.2     
  12 N12           -2.9147    -0.6421     1.4086 N.pl3   
  13 C13           -4.2586    -0.4257     1.6768 C.ar    
  14 C14           -5.1754    -0.2733     0.6498 C.ar    
  15 C15           -6.5144    -0.0577     0.9472 C.ar    
  16 N16           -6.9448     0.0075     2.1859 N.ar    
  17 C17           -6.1148    -0.1309     3.2250 C.ar    
  18 C18           -4.7354    -0.3598     3.0093 C.ar    
  19 C19           -6.5904    -0.0591     4.5476 C.ar    
  20 C20           -5.6898    -0.2093     5.5691 C.ar    
  21 C21           -4.3387    -0.4272     5.2798 C.ar    
  22 N22           -3.9063    -0.4993     4.0447 N.ar    
  23 O23           -6.1080    -0.1463     6.8602 O.3     
  24 C24           -5.1135    -0.3116     7.8730 C.3     
  25 C25           -0.0834     4.2570     0.0257 C.2     
  26 S26            0.3226     5.9708     0.0310 S.3     
  27 C27            1.9891     5.5939     0.0131 C.2     
  28 N28            2.1644     4.3135     0.0102 N.2     
  29 O29            2.9879     6.5099     0.0084 O.3     
  30 C30            2.6055     7.8867     0.0200 C.3     
  31 H31            3.2700     1.9844    -0.0197 H       
  32 H32            3.3543    -0.4586    -0.0329 H       
  33 H33           -2.6680     0.2270    -0.4842 H       
  34 H34           -2.9524    -1.5301    -0.4911 H       
  35 H35           -2.2851    -0.7469     2.1391 H       
  36 H36           -4.8498    -0.3216    -0.3788 H       
  37 H37           -7.2204     0.0598     0.1384 H       
  38 H38           -7.6373     0.1101     4.7519 H       
  39 H39           -3.6370    -0.5442     6.0924 H       
  40 H40           -4.6437    -1.2892     7.7647 H       
  41 H41           -4.3583     0.4678     7.7714 H       
  42 H42           -5.5801    -0.2395     8.8555 H       
  43 H43           -1.0801     3.8411     0.0327 H       
  44 H44            2.0220     8.0942     0.9170 H       
  45 H45            3.4984     8.5118     0.0147 H       
  46 H46            2.0044     8.1043    -0.8629 H       
@<TRIPOS>BOND
   1    1    2 1
   2    1    3 2
   3    2    6 1
   4    2    9 1
   5    3    4 1
   6    3   11 1
   7    4    5 2
   8    4   31 1
   9    5    6 1
  10    5   32 1
  11    6    7 2
  12    7    8 1
  13    8    9 2
  14    9   10 1
  15   10   12 1
  16   10   33 1
  17   10   34 1
  18   11   25 2
  19   11   28 1
  20   12   13 1
  21   12   35 1
  22   13   14 ar
  23   13   18 ar
  24   14   15 ar
  25   14   36 1
  26   15   16 ar
  27   15   37 1
  28   16   17 ar
  29   17   18 ar
  30   17   19 ar
  31   18   22 ar
  32   19   20 ar
  33   19   38 1
  34   20   21 ar
  35   20   23 1
  36   21   22 ar
  37   21   39 1
  38   23   24 1
  39   24   40 1
  40   24   41 1
  41   24   42 1
  42   25   26 1
  43   25   43 1
  44   26   27 1
  45   27   28 2
  46   27   29 1
  47   29   30 1
  48   30   44 1
  49   30   45 1
  50   30   46 1

#	End of record

