#	Name: ASD03092219
#	Creating user name:	WinNT
#	Creation time:	15. 06. 2019 20:32

#	Modifying user name:	WinNT
#	Modification time:	15. 06. 2019 20:32

#	Program:	/corina/corina34_cracker 3.40 0067  02.08.2006

@<TRIPOS>MOLECULE
ASD03092219
  46   48    0    0    0
SMALL
NO_CHARGES


@<TRIPOS>ATOM
   1 C1             0.3824     1.5069     0.3380 C.3     
   2 O2             0.3801     0.0787     0.2895 O.3     
   3 C3            -0.9235    -0.4973     0.1852 C.3     
   4 C4            -0.8054    -2.0221     0.1413 C.3     
   5 N5            -0.2682    -2.5071     1.4150 N.am    
   6 C6            -0.0769    -3.8274     1.6065 C.2     
   7 O7            -0.3494    -4.6139     0.7245 O.2     
   8 C8             0.4757    -4.3264     2.9168 C.3     
   9 C9             0.5921    -5.8283     2.8735 C.2     
  10 S10           -0.6578    -6.9744     3.3515 S.3     
  11 C11            0.4102    -8.3139     2.9448 C.2     
  12 N12            0.0914    -9.6572     3.0671 N.pl3   
  13 C13            0.9665   -10.6310     2.5762 C.ar    
  14 C14            2.0664   -10.2579     1.8156 C.ar    
  15 C15            2.9297   -11.2233     1.3316 C.ar    
  16 Cl16           4.3054   -10.7581     0.3804 Cl      
  17 C17            2.6987   -12.5600     1.6050 C.ar    
  18 C18            1.6036   -12.9348     2.3620 C.ar    
  19 C19            0.7402   -11.9746     2.8535 C.ar    
  20 Cl20          -0.6295   -12.4456     3.8105 Cl      
  21 N21            1.5411    -7.8491     2.5127 N.2     
  22 C22            1.6659    -6.5237     2.4578 C.2     
  23 C23            2.9020    -5.8624     1.9775 C.ar    
  24 C24            2.8435    -4.6597     1.2656 C.ar    
  25 C25            4.0182    -4.0781     0.8376 C.ar    
  26 N26            5.1846    -4.6409     1.0915 N.ar    
  27 C27            5.2840    -5.7747     1.7596 C.ar    
  28 C28            4.1597    -6.4208     2.2287 C.ar    
  29 H29            1.4084     1.8661     0.4170 H       
  30 H30           -0.0720     1.9020    -0.5705 H       
  31 H31           -0.1876     1.8419     1.2047 H       
  32 H32           -1.5206    -0.2038     1.0486 H       
  33 H33           -1.4050    -0.1437    -0.7265 H       
  34 H34           -1.7901    -2.4580    -0.0274 H       
  35 H35           -0.1363    -2.3114    -0.6691 H       
  36 H36           -0.0503    -1.8781     2.1204 H       
  37 H37            1.4604    -3.8904     3.0854 H       
  38 H38           -0.1934    -4.0370     3.7271 H       
  39 H39           -0.7389    -9.9218     3.4933 H       
  40 H40            2.2472    -9.2148     1.6019 H       
  41 H41            3.3747   -13.3122     1.2261 H       
  42 H42            1.4259   -13.9789     2.5733 H       
  43 H43            1.8924    -4.1938     1.0540 H       
  44 H44            3.9832    -3.1497     0.2869 H       
  45 H45            6.2592    -6.2003     1.9446 H       
  46 H46            4.2487    -7.3461     2.7785 H       
@<TRIPOS>BOND
   1    1    2 1
   2    1   29 1
   3    1   30 1
   4    1   31 1
   5    2    3 1
   6    3    4 1
   7    3   32 1
   8    3   33 1
   9    4    5 1
  10    4   34 1
  11    4   35 1
  12    5    6 am
  13    5   36 1
  14    6    7 2
  15    6    8 1
  16    8    9 1
  17    8   37 1
  18    8   38 1
  19    9   22 2
  20    9   10 1
  21   10   11 1
  22   11   12 1
  23   11   21 2
  24   12   13 1
  25   12   39 1
  26   13   19 ar
  27   13   14 ar
  28   14   15 ar
  29   14   40 1
  30   15   16 1
  31   15   17 ar
  32   17   18 ar
  33   17   41 1
  34   18   19 ar
  35   18   42 1
  36   19   20 1
  37   21   22 1
  38   22   23 1
  39   23   28 ar
  40   23   24 ar
  41   24   25 ar
  42   24   43 1
  43   25   26 ar
  44   25   44 1
  45   26   27 ar
  46   27   28 ar
  47   27   45 1
  48   28   46 1

#	End of record

