#	Name: ASD01880268
#	Creating user name:	WinNT
#	Creation time:	15. 06. 2019 19:40

#	Modifying user name:	WinNT
#	Modification time:	15. 06. 2019 19:40

#	Program:	/corina/corina34_cracker 3.40 0067  02.08.2006

@<TRIPOS>MOLECULE
ASD01880268
  37   40    0    0    0
SMALL
NO_CHARGES


@<TRIPOS>ATOM
   1 C1            -0.0180     1.4733     0.0101 C.2     
   2 C2             0.0021    -0.0041     0.0020 C.2     
   3 C3            -1.1787    -0.7141     0.0095 C.2     
   4 N4            -1.1655    -2.0629     0.0021 N.am    
   5 C5            -0.0054    -2.7444    -0.0131 C.2     
   6 C6             1.2237    -2.0604    -0.0212 C.2     
   7 C7             1.2334    -0.6997    -0.0194 C.2     
   8 O8            -0.0197    -3.9644    -0.0195 O.2     
   9 C9            -2.4333    -2.7968     0.0112 C.3     
  10 C10           -2.8827    -3.0408    -1.4063 C.ar    
  11 C11           -2.4890    -4.1887    -2.0676 C.ar    
  12 C12           -2.9020    -4.4133    -3.3698 C.ar    
  13 C13           -3.7100    -3.4866    -4.0085 C.ar    
  14 C14           -4.1026    -2.3386    -3.3442 C.ar    
  15 C15           -3.6934    -2.1189    -2.0424 C.ar    
  16 F16           -2.5173    -5.5349    -4.0172 F       
  17 Cl17          -4.2289    -3.7658    -5.6414 Cl      
  18 S18            1.4113     2.4971     0.0020 S.3     
  19 C19            0.3962     3.9369     0.0194 C.ar    
  20 C20           -0.9437     3.5332     0.0301 C.ar    
  21 N21           -1.0875     2.1963     0.0186 N.2     
  22 C22            0.7223     5.2917     0.0232 C.ar    
  23 C23           -0.2749     6.2409     0.0374 C.ar    
  24 C24           -1.6060     5.8489     0.0485 C.ar    
  25 C25           -1.9439     4.5303     0.0443 C.ar    
  26 H26           -2.1213    -0.1872     0.0217 H       
  27 H27            2.1527    -2.6111    -0.0330 H       
  28 H28            2.1681    -0.1586    -0.0255 H       
  29 H29           -2.2966    -3.7518     0.5186 H       
  30 H30           -3.1883    -2.2114     0.5360 H       
  31 H31           -1.8588    -4.9101    -1.5688 H       
  32 H32           -4.7325    -1.6158    -3.8414 H       
  33 H33           -4.0006    -1.2225    -1.5243 H       
  34 H34            1.7581     5.5974     0.0153 H       
  35 H35           -0.0211     7.2907     0.0403 H       
  36 H36           -2.3831     6.5988     0.0599 H       
  37 H37           -2.9852     4.2442     0.0529 H       
@<TRIPOS>BOND
   1    1    2 1
   2    1   18 1
   3    1   21 2
   4    2    3 2
   5    2    7 1
   6    3    4 1
   7    3   26 1
   8    4    5 am
   9    4    9 1
  10    5    6 1
  11    5    8 2
  12    6    7 2
  13    6   27 1
  14    7   28 1
  15    9   10 1
  16    9   29 1
  17    9   30 1
  18   10   11 ar
  19   10   15 ar
  20   11   12 ar
  21   11   31 1
  22   12   13 ar
  23   12   16 1
  24   13   14 ar
  25   13   17 1
  26   14   15 ar
  27   14   32 1
  28   15   33 1
  29   18   19 1
  30   19   20 ar
  31   19   22 ar
  32   20   21 1
  33   20   25 ar
  34   22   23 ar
  35   22   34 1
  36   23   24 ar
  37   23   35 1
  38   24   25 ar
  39   24   36 1
  40   25   37 1

#	End of record

