#	Name: ASD01811153
#	Creating user name:	WinNT
#	Creation time:	15. 06. 2019 19:26

#	Modifying user name:	WinNT
#	Modification time:	15. 06. 2019 19:26

#	Program:	/corina/corina34_cracker 3.40 0067  02.08.2006

@<TRIPOS>MOLECULE
ASD01811153
  61   64    0    0    0
SMALL
NO_CHARGES


@<TRIPOS>ATOM
   1 C1            -0.0169     1.3938     0.0097 C.ar    
   2 C2             0.0021    -0.0041     0.0020 C.ar    
   3 C3            -1.1794    -0.7123     0.0094 C.ar    
   4 C4            -2.3941    -0.0406     0.0241 C.ar    
   5 C5            -2.4193     1.3563     0.0319 C.ar    
   6 C6            -1.2372     2.0726     0.0308 C.ar    
   7 O7            -3.6809    -0.4652     0.0340 O.3     
   8 C8            -4.4978     0.5999     0.0475 C.2     
   9 N9            -3.7636     1.7300     0.0466 N.am    
  10 O10           -5.7127     0.5524     0.0584 O.2     
  11 C11           -4.2820     3.1002     0.0596 C.3     
  12 C12           -5.1499     3.3307    -1.1806 C.3     
  13 C13           -5.7376     4.7428    -1.1307 C.3     
  14 N14           -6.5428     4.8964     0.0877 N.3     
  15 C15           -5.7207     4.7262     1.2925 C.3     
  16 C16           -5.1324     3.3136     1.3149 C.3     
  17 C17           -8.7825     7.6646     1.3972 C.3     
  18 C18           -8.0616     6.3152     1.3830 C.3     
  19 C19           -7.2350     6.1921     0.1014 C.3     
  20 C20           -6.2042     7.3215     0.0489 C.3     
  21 C21           -6.9251     8.6710     0.0632 C.3     
  22 C22           -7.7517     8.7941     1.3448 C.3     
  23 O23           -8.4250    10.0544     1.3581 O.3     
  24 C24           -8.1600     6.2890    -1.1134 C.3     
  25 C25            1.2125     2.1281     0.0019 C.1     
  26 N26            2.1878     2.7106    -0.0043 N.1     
  27 C27           -8.6474    10.5807     2.6679 C.3     
  28 C28           -9.3708    11.9247     2.5614 C.3     
  29 O29          -10.6732    11.7222     2.0092 O.3     
  30 C30          -11.4369    12.9216     1.8665 C.3     
  31 H31            0.9453    -0.5299    -0.0101 H       
  32 H32           -1.1606    -1.7922     0.0035 H       
  33 H33           -1.2573     3.1524     0.0372 H       
  34 H34           -3.4500     3.8044     0.0580 H       
  35 H35           -4.5396     3.2220    -2.0772 H       
  36 H36           -5.9588     2.6003    -1.1996 H       
  37 H37           -4.9284     5.4730    -1.1257 H       
  38 H38           -6.3676     4.9051    -2.0052 H       
  39 H39           -4.9115     5.4565     1.2862 H       
  40 H40           -6.3384     4.8765     2.1779 H       
  41 H41           -5.9411     2.5830     1.3352 H       
  42 H42           -4.5097     3.1927     2.2013 H       
  43 H43           -9.4415     7.7337     0.5318 H       
  44 H44           -9.3714     7.7523     2.3103 H       
  45 H45           -7.4026     6.2461     2.2484 H       
  46 H46           -8.7959     5.5105     1.4204 H       
  47 H47           -5.5452     7.2525     0.9144 H       
  48 H48           -5.6153     7.2338    -0.8641 H       
  49 H49           -6.1907     9.4756     0.0258 H       
  50 H50           -7.5841     8.7400    -0.8023 H       
  51 H51           -7.0927     8.7250     2.2102 H       
  52 H52           -8.6736     7.2504    -1.1033 H       
  53 H53           -7.5711     6.2013    -2.0264 H       
  54 H54           -8.8943     5.4844    -1.0760 H       
  55 H55           -9.2588     9.8834     3.2407 H       
  56 H56           -7.6904    10.7221     3.1701 H       
  57 H57           -9.4616    12.3681     3.5530 H       
  58 H58           -8.8021    12.5933     1.9152 H       
  59 H59          -12.4118    12.6831     1.4412 H       
  60 H60          -11.5705    13.3856     2.8437 H       
  61 H61          -10.9110    13.6108     1.2059 H       
@<TRIPOS>BOND
   1    1    2 ar
   2    1   25 1
   3    1    6 ar
   4    2    3 ar
   5    2   31 1
   6    3    4 ar
   7    3   32 1
   8    4    5 ar
   9    4    7 1
  10    5    6 ar
  11    5    9 1
  12    6   33 1
  13    7    8 1
  14    8    9 am
  15    8   10 2
  16    9   11 1
  17   11   12 1
  18   11   16 1
  19   11   34 1
  20   12   13 1
  21   12   35 1
  22   12   36 1
  23   13   14 1
  24   13   37 1
  25   13   38 1
  26   14   15 1
  27   14   19 1
  28   15   16 1
  29   15   39 1
  30   15   40 1
  31   16   41 1
  32   16   42 1
  33   17   18 1
  34   17   22 1
  35   17   43 1
  36   17   44 1
  37   18   19 1
  38   18   45 1
  39   18   46 1
  40   19   20 1
  41   19   24 1
  42   20   21 1
  43   20   47 1
  44   20   48 1
  45   21   22 1
  46   21   49 1
  47   21   50 1
  48   22   23 1
  49   22   51 1
  50   23   27 1
  51   24   52 1
  52   24   53 1
  53   24   54 1
  54   25   26 3
  55   27   28 1
  56   27   55 1
  57   27   56 1
  58   28   29 1
  59   28   57 1
  60   28   58 1
  61   29   30 1
  62   30   59 1
  63   30   60 1
  64   30   61 1

#	End of record

