#	Name: ASD01001033
#	Creating user name:	WinNT
#	Creation time:	15. 06. 2019 18:54

#	Modifying user name:	WinNT
#	Modification time:	15. 06. 2019 18:54

#	Program:	/corina/corina34_cracker 3.40 0067  02.08.2006

@<TRIPOS>MOLECULE
ASD01001033
  49   51    0    0    0
SMALL
NO_CHARGES


@<TRIPOS>ATOM
   1 C1             1.2205    -0.6739    -0.1330 C.ar    
   2 C2             0.4105    -0.4327     0.9608 C.ar    
   3 C3             2.2527     0.1951    -0.4337 C.ar    
   4 C4             0.6326     0.6774     1.7540 C.ar    
   5 C5             2.4747     1.3053     0.3595 C.ar    
   6 C6             1.6650     1.5461     1.4536 C.ar    
   7 C7             3.6006     2.2521     0.0322 C.3     
   8 C8             3.4232     2.7783    -1.3688 C.ar    
   9 C9             3.5888     3.4022     1.0060 C.ar    
  10 C10            4.9356     1.5116     0.1337 C.3     
  11 C11            2.2617     2.5066    -2.0673 C.ar    
  12 C12            4.4197     3.5375    -1.9533 C.ar    
  13 C13            4.7229     3.6993     1.7384 C.ar    
  14 C14            2.4456     4.1635     1.1627 C.ar    
  15 C15            5.0441     0.8415     1.5048 C.3     
  16 C16            2.0966     2.9940    -3.3503 C.ar    
  17 C17            4.2570     4.0201    -3.2384 C.ar    
  18 C18            4.7138     4.7578     2.6275 C.ar    
  19 C19            2.4348     5.2184     2.0560 C.ar    
  20 C20            6.4363     0.2271     1.6634 C.3     
  21 C21            3.0929     3.7535    -3.9346 C.ar    
  22 C22            3.5708     5.5194     2.7839 C.ar    
  23 N23            6.6075    -0.8566     0.6866 N.3     
  24 C24            6.5859    -0.3251     3.0576 C.2     
  25 O25            6.4503    -1.5091     3.2563 O.2     
  26 O26            6.8698     0.4986     4.0788 O.3     
  27 H27            1.0498    -1.5436    -0.7501 H       
  28 H28           -0.3961    -1.1115     1.1955 H       
  29 H29            2.8857     0.0066    -1.2882 H       
  30 H30           -0.0007     0.8662     2.6082 H       
  31 H31            1.8381     2.4139     2.0729 H       
  32 H32            4.9904     0.7528    -0.6469 H       
  33 H33            5.7545     2.2202     0.0097 H       
  34 H34            1.4833     1.9132    -1.6107 H       
  35 H35            5.3251     3.7538    -1.4058 H       
  36 H36            5.6159     3.1043     1.6163 H       
  37 H37            1.5611     3.9343     0.5870 H       
  38 H38            4.8837     1.5845     2.2861 H       
  39 H39            4.2900     0.0588     1.5875 H       
  40 H40            1.1895     2.7811    -3.8962 H       
  41 H41            5.0354     4.6135    -3.6949 H       
  42 H42            5.5997     4.9895     3.2002 H       
  43 H43            1.5418     5.8134     2.1781 H       
  44 H44            7.1930     0.9929     1.4928 H       
  45 H45            2.9641     4.1340    -4.9371 H       
  46 H46            3.5624     6.3435     3.4818 H       
  47 H47            5.9172    -1.5796     0.8240 H       
  48 H48            6.5758    -0.5011    -0.2572 H       
  49 H49            6.9561     0.0982     4.9548 H       
@<TRIPOS>BOND
   1    1    2 ar
   2    1    3 ar
   3    1   27 1
   4    2    4 ar
   5    2   28 1
   6    3    5 ar
   7    3   29 1
   8    4    6 ar
   9    4   30 1
  10    5    6 ar
  11    5    7 1
  12    6   31 1
  13    7   10 1
  14    7    8 1
  15    7    9 1
  16    8   12 ar
  17    8   11 ar
  18    9   14 ar
  19    9   13 ar
  20   10   15 1
  21   10   32 1
  22   10   33 1
  23   11   16 ar
  24   11   34 1
  25   12   17 ar
  26   12   35 1
  27   13   18 ar
  28   13   36 1
  29   14   19 ar
  30   14   37 1
  31   15   20 1
  32   15   38 1
  33   15   39 1
  34   16   21 ar
  35   16   40 1
  36   17   21 ar
  37   17   41 1
  38   18   22 ar
  39   18   42 1
  40   19   22 ar
  41   19   43 1
  42   20   23 1
  43   20   24 1
  44   20   44 1
  45   21   45 1
  46   22   46 1
  47   23   47 1
  48   23   48 1
  49   24   25 2
  50   24   26 1
  51   26   49 1

#	End of record

