#	Name: ASD03740030
#	Creating user name:	WinNT
#	Creation time:	15. 06. 2019 20:46

#	Modifying user name:	WinNT
#	Modification time:	15. 06. 2019 20:46

#	Program:	/corina/corina34_cracker 3.40 0067  02.08.2006

@<TRIPOS>MOLECULE
ASD03740030
  42   44    0    0    0
SMALL
NO_CHARGES


@<TRIPOS>ATOM
   1 C1            -0.0011     1.4096     0.0487 C.ar    
   2 C2             0.0320     0.0286     0.0589 C.ar    
   3 C3             1.2504    -0.6349     0.0587 C.ar    
   4 C4             2.4327     0.0908     0.0481 C.ar    
   5 C5             2.3942     1.4717     0.0380 C.ar    
   6 C6             1.1787     2.1305     0.0383 C.ar    
   7 C7             1.1396     3.6370     0.0272 C.3     
   8 N8             1.2424     4.1180    -1.3528 N.pl3   
   9 O9             1.2856    -1.9934     0.0691 O.3     
  10 C10            0.2183     4.2624    -2.2230 C.2     
  11 C11            0.7335     4.7317    -3.3903 C.2     
  12 C12            2.1137     4.8762    -3.2218 C.2     
  13 N13            2.4185     4.5152    -2.0016 N.2     
  14 O14           -1.0883     3.9880    -1.9763 O.3     
  15 C15           -1.9745     4.3171    -2.9366 C.2     
  16 C16           -3.4193     4.1597    -2.6914 C.ar    
  17 O17           -1.5824     4.7437    -4.0048 O.2     
  18 C18           -4.0598     2.9558    -3.0068 C.ar    
  19 C19           -5.4150     2.8171    -2.7735 C.ar    
  20 C20           -6.1381     3.8637    -2.2305 C.ar    
  21 C21           -5.5135     5.0571    -1.9162 C.ar    
  22 C22           -4.1578     5.2112    -2.1364 C.ar    
  23 C23            3.0835     5.3694    -4.2646 C.3     
  24 C24            2.5753    -2.6089     0.0682 C.3     
  25 F25           -3.5497     6.3776    -1.8283 F       
  26 F26           -3.3556     1.9326    -3.5381 F       
  27 H27           -0.9494     1.9265     0.0444 H       
  28 H28           -0.8898    -0.5341     0.0675 H       
  29 H29            3.3825    -0.4234     0.0483 H       
  30 H30            3.3144     2.0370     0.0301 H       
  31 H31            0.2006     3.9793     0.4623 H       
  32 H32            1.9738     4.0264     0.6108 H       
  33 H33            0.1758     4.9530    -4.2883 H       
  34 H34           -5.9109     1.8889    -3.0162 H       
  35 H35           -7.1968     3.7485    -2.0512 H       
  36 H36           -6.0860     5.8692    -1.4928 H       
  37 H37            3.1766     6.4529    -4.1907 H       
  38 H38            4.0579     4.9090    -4.1013 H       
  39 H39            2.7173     5.1029    -5.2561 H       
  40 H40            3.1285    -2.2948     0.9533 H       
  41 H41            2.4605    -3.6928     0.0772 H       
  42 H42            3.1205    -2.3087    -0.8266 H       
@<TRIPOS>BOND
   1    1    2 ar
   2    1    6 ar
   3    1   27 1
   4    2    3 ar
   5    2   28 1
   6    3    4 ar
   7    3    9 1
   8    4    5 ar
   9    4   29 1
  10    5    6 ar
  11    5   30 1
  12    6    7 1
  13    7    8 1
  14    7   31 1
  15    7   32 1
  16    8   10 1
  17    8   13 1
  18    9   24 1
  19   10   11 2
  20   10   14 1
  21   11   12 1
  22   11   33 1
  23   12   13 2
  24   12   23 1
  25   14   15 1
  26   15   16 1
  27   15   17 2
  28   16   18 ar
  29   16   22 ar
  30   18   19 ar
  31   18   26 1
  32   19   20 ar
  33   19   34 1
  34   20   21 ar
  35   20   35 1
  36   21   22 ar
  37   21   36 1
  38   22   25 1
  39   23   37 1
  40   23   38 1
  41   23   39 1
  42   24   40 1
  43   24   41 1
  44   24   42 1

#	End of record

