#	Name: ASD08150459
#	Creating user name:	WinNT
#	Creation time:	15. 06. 2019 21:16

#	Modifying user name:	WinNT
#	Modification time:	15. 06. 2019 21:16

#	Program:	/corina/corina34_cracker 3.40 0067  02.08.2006

@<TRIPOS>MOLECULE
ASD08150459
  84   91    0    0    0
SMALL
NO_CHARGES


@<TRIPOS>ATOM
   1 N1            -4.3316    -1.2097    -3.4518 N.am    
   2 C2            -3.2093    -1.2742    -4.1942 C.2     
   3 C3            -2.5983    -2.5130    -4.4762 C.2     
   4 C4            -3.1368    -3.6644    -4.0001 C.2     
   5 C5            -4.3173    -3.6003    -3.2182 C.ar    
   6 C6            -4.9164    -4.7642    -2.6998 C.ar    
   7 N7            -6.0054    -4.7022    -1.9789 N.ar    
   8 C8            -6.6109    -3.5398    -1.6922 C.ar    
   9 C9            -6.0775    -2.3182    -2.1721 C.ar    
  10 C10           -4.9004    -2.3510    -2.9559 C.ar    
  11 C11           -6.7162    -1.1121    -1.8678 C.ar    
  12 C12           -7.8678    -1.1254    -1.0974 C.ar    
  13 C13           -8.3894    -2.3383    -0.6258 C.ar    
  14 C14           -7.7801    -3.5193    -0.9141 C.ar    
  15 O15           -2.7155    -0.2475    -4.6283 O.2     
  16 C16           -8.5515     0.1493    -0.7700 C.ar    
  17 C17           -4.9162     0.0330    -3.1813 C.ar    
  18 C18           -4.6333     0.6909    -1.9916 C.ar    
  19 C19           -5.2118     1.9171    -1.7277 C.ar    
  20 C20           -6.0722     2.4893    -2.6464 C.ar    
  21 C21           -6.3564     1.8365    -3.8321 C.ar    
  22 C22           -5.7761     0.6135    -4.1049 C.ar    
  23 C23           -6.7020     3.8270    -2.3549 C.3     
  24 C24           -9.9372     0.2114    -0.7400 C.ar    
  25 C25           -7.8012     1.3006    -0.4823 C.ar    
  26 N26           -8.3776     2.4385    -0.1892 N.ar    
  27 C27           -9.7086     2.5618    -0.1496 C.ar    
  28 C28          -10.5354     1.4432    -0.4237 C.ar    
  29 C29           -5.6964     4.9406    -2.6567 C.3     
  30 C30           -7.9438     4.0076    -3.2309 C.3     
  31 C31           -8.6008     5.3531    -2.9073 C.3     
  32 N32           -7.5981     6.4168    -3.0553 N.am    
  33 C33           -6.3280     6.2966    -2.3265 C.3     
  34 C34           -7.8386     7.4822    -3.8449 C.2     
  35 C35           -6.7964     8.5605    -3.9935 C.3     
  36 O36           -8.8938     7.5732    -4.4357 O.2     
  37 N37           -7.1672     9.4505    -5.1019 N.3     
  38 C38           -6.2802     9.2509    -6.2572 C.3     
  39 C39           -7.1571    10.8570    -4.6741 C.3     
  40 C40           -7.6059    11.7424    -5.8397 C.3     
  41 O41           -6.7516    11.5121    -6.9633 O.3     
  42 C42           -6.7378    10.1525    -7.4068 C.3     
  43 C43          -10.3097     3.7926     0.1667 C.ar    
  44 C44          -11.6664     3.8940     0.2005 C.ar    
  45 C45          -12.4773     2.7943    -0.0736 C.ar    
  46 C46          -11.9329     1.5848    -0.3800 C.ar    
  47 C47           -4.9053     2.6317    -0.4368 C.3     
  48 F48           -4.1415     1.7985     0.3876 F       
  49 F49           -4.1884     3.8015    -0.7101 F       
  50 F50           -6.1017     2.9586     0.2107 F       
  51 H51           -1.6990    -2.5460    -5.0734 H       
  52 H52           -2.6726    -4.6157    -4.2142 H       
  53 H53           -4.4683    -5.7259    -2.9016 H       
  54 H54           -6.3147    -0.1773    -2.2301 H       
  55 H55           -9.2874    -2.3346    -0.0257 H       
  56 H56           -8.1959    -4.4443    -0.5428 H       
  57 H57           -3.9619     0.2441    -1.2732 H       
  58 H58           -7.0291     2.2860    -4.5475 H       
  59 H59           -5.9984     0.1042    -5.0310 H       
  60 H60           -6.9892     3.8720    -1.3044 H       
  61 H61          -10.5380    -0.6603    -0.9537 H       
  62 H62           -6.7228     1.2458    -0.5029 H       
  63 H63           -4.8026     4.7980    -2.0493 H       
  64 H64           -5.4277     4.9118    -3.7126 H       
  65 H65           -7.6539     3.9877    -4.2815 H       
  66 H66           -8.6495     3.2010    -3.0324 H       
  67 H67           -9.4269     5.5314    -3.5957 H       
  68 H68           -8.9724     5.3412    -1.8827 H       
  69 H69           -6.5142     6.3617    -1.2545 H       
  70 H70           -5.6544     7.0974    -2.6317 H       
  71 H71           -6.7350     9.1363    -3.0701 H       
  72 H72           -5.8287     8.1042    -4.2021 H       
  73 H73           -5.2576     9.5062    -5.9793 H       
  74 H74           -6.3227     8.2085    -6.5730 H       
  75 H75           -7.8397    10.9869    -3.8344 H       
  76 H76           -6.1485    11.1380    -4.3710 H       
  77 H77           -8.6337    11.4979    -6.1077 H       
  78 H78           -7.5453    12.7901    -5.5451 H       
  79 H79           -6.0494    10.0503    -8.2457 H       
  80 H80           -7.7404     9.8617    -7.7204 H       
  81 H81           -9.6966     4.6551     0.3826 H       
  82 H82          -12.1222     4.8423     0.4442 H       
  83 H83          -13.5514     2.9022    -0.0394 H       
  84 H84          -12.5712     0.7396    -0.5910 H       
@<TRIPOS>BOND
   1    1    2 am
   2    1   10 1
   3    1   17 1
   4    2    3 1
   5    2   15 2
   6    3    4 2
   7    3   51 1
   8    4    5 1
   9    4   52 1
  10    5    6 ar
  11    5   10 ar
  12    6    7 ar
  13    6   53 1
  14    7    8 ar
  15    8    9 ar
  16    8   14 ar
  17    9   10 ar
  18    9   11 ar
  19   11   12 ar
  20   11   54 1
  21   12   13 ar
  22   12   16 1
  23   13   14 ar
  24   13   55 1
  25   14   56 1
  26   16   24 ar
  27   16   25 ar
  28   17   18 ar
  29   17   22 ar
  30   18   19 ar
  31   18   57 1
  32   19   20 ar
  33   19   47 1
  34   20   21 ar
  35   20   23 1
  36   21   22 ar
  37   21   58 1
  38   22   59 1
  39   23   29 1
  40   23   30 1
  41   23   60 1
  42   24   28 ar
  43   24   61 1
  44   25   26 ar
  45   25   62 1
  46   26   27 ar
  47   27   28 ar
  48   27   43 ar
  49   28   46 ar
  50   29   33 1
  51   29   63 1
  52   29   64 1
  53   30   31 1
  54   30   65 1
  55   30   66 1
  56   31   32 1
  57   31   67 1
  58   31   68 1
  59   32   33 1
  60   32   34 am
  61   33   69 1
  62   33   70 1
  63   34   35 1
  64   34   36 2
  65   35   37 1
  66   35   71 1
  67   35   72 1
  68   37   38 1
  69   37   39 1
  70   38   42 1
  71   38   73 1
  72   38   74 1
  73   39   40 1
  74   39   75 1
  75   39   76 1
  76   40   41 1
  77   40   77 1
  78   40   78 1
  79   41   42 1
  80   42   79 1
  81   42   80 1
  82   43   44 ar
  83   43   81 1
  84   44   45 ar
  85   44   82 1
  86   45   46 ar
  87   45   83 1
  88   46   84 1
  89   47   48 1
  90   47   49 1
  91   47   50 1

#	End of record

