#	Name: ASD02198073
#	Creating user name:	WinNT
#	Creation time:	15. 06. 2019 20:18

#	Modifying user name:	WinNT
#	Modification time:	15. 06. 2019 20:18

#	Program:	/corina/corina34_cracker 3.40 0067  02.08.2006

@<TRIPOS>MOLECULE
ASD02198073
  42   45    0    0    0
SMALL
NO_CHARGES


@<TRIPOS>ATOM
   1 C1            -0.0164     1.3748     0.0044 C.2     
   2 C2             0.0033    -0.0035     0.0268 C.2     
   3 C3            -1.1854    -0.8006     0.0737 C.1     
   4 S4             1.5672     2.0042    -0.0519 S.3     
   5 C5             2.2764     0.3975    -0.0456 C.2     
   6 C6             1.2848    -0.5510    -0.0011 C.2     
   7 C7             3.6606     0.1222    -0.0819 C.2     
   8 C8             4.6283     1.2268    -0.1288 C.2     
   9 O9             4.0534    -1.0335    -0.0743 O.2     
  10 N10            1.5332    -1.9160     0.0141 N.pl3   
  11 N11           -1.1604     2.1397     0.0194 N.pl3   
  12 N12           -2.1284    -1.4330     0.1110 N.1     
  13 C13            5.9857     1.0823    -0.1665 C.2     
  14 C14           -1.0701     3.5309     0.1321 C.ar    
  15 C15           -0.0743     4.1027     0.9120 C.ar    
  16 C16            0.0123     5.4774     1.0215 C.ar    
  17 C17           -0.8913     6.2845     0.3559 C.ar    
  18 C18           -1.8856     5.7198    -0.4227 C.ar    
  19 C19           -1.9748     4.3454    -0.5419 C.ar    
  20 F20           -2.9457     3.7937    -1.3022 F       
  21 C21            6.6857     2.2584    -0.2072 C.2     
  22 C22            5.9142     3.3830    -0.2035 C.2     
  23 S23            4.2145     2.9356    -0.1527 S.3     
  24 C24            6.4284     4.7671    -0.2418 C.ar    
  25 C25            5.5342     5.8387    -0.2336 C.ar    
  26 C26            6.0317     7.1293    -0.2699 C.ar    
  27 C27            7.4073     7.3086    -0.3132 C.ar    
  28 C28            8.2368     6.2015    -0.3189 C.ar    
  29 N29            7.7392     4.9829    -0.2784 N.ar    
  30 H30            2.4461    -2.2431    -0.0071 H       
  31 H31            0.7939    -2.5431     0.0460 H       
  32 H32           -2.0294     1.7140    -0.0482 H       
  33 H33            6.4690     0.1165    -0.1641 H       
  34 H34            0.6320     3.4735     1.4332 H       
  35 H35            0.7872     5.9221     1.6283 H       
  36 H36           -0.8211     7.3586     0.4442 H       
  37 H37           -2.5899     6.3533    -0.9413 H       
  38 H38            7.7647     2.2928    -0.2394 H       
  39 H39            4.4691     5.6630    -0.1999 H       
  40 H40            5.3644     7.9784    -0.2650 H       
  41 H41            7.8264     8.3035    -0.3425 H       
  42 H42            9.3075     6.3386    -0.3529 H       
@<TRIPOS>BOND
   1    1    2 2
   2    1    4 1
   3    1   11 1
   4    2    3 1
   5    2    6 1
   6    3   12 3
   7    4    5 1
   8    5    6 2
   9    5    7 1
  10    6   10 1
  11    7    8 1
  12    7    9 2
  13    8   13 2
  14    8   23 1
  15   10   30 1
  16   10   31 1
  17   11   14 1
  18   11   32 1
  19   13   21 1
  20   13   33 1
  21   14   15 ar
  22   14   19 ar
  23   15   16 ar
  24   15   34 1
  25   16   17 ar
  26   16   35 1
  27   17   18 ar
  28   17   36 1
  29   18   19 ar
  30   18   37 1
  31   19   20 1
  32   21   22 2
  33   21   38 1
  34   22   23 1
  35   22   24 1
  36   24   25 ar
  37   24   29 ar
  38   25   26 ar
  39   25   39 1
  40   26   27 ar
  41   26   40 1
  42   27   28 ar
  43   27   41 1
  44   28   29 ar
  45   28   42 1

#	End of record

