#	Name: ASD03332205
#	Creating user name:	WinNT
#	Creation time:	15. 06. 2019 20:40

#	Modifying user name:	WinNT
#	Modification time:	15. 06. 2019 20:40

#	Program:	/corina/corina34_cracker 3.40 0067  02.08.2006

@<TRIPOS>MOLECULE
ASD03332205
  63   65    0    0    0
SMALL
NO_CHARGES


@<TRIPOS>ATOM
   1 C1            -0.2467     0.1920     0.6571 C.3     
   2 N2            -0.3480    -1.2160     0.2481 N.3     
   3 C3             0.1780    -1.4134    -1.1147 C.3     
   4 C4             1.5370    -0.7661    -1.1879 C.2     
   5 N5             1.9988     0.1232    -0.2701 N.pl3   
   6 C6             1.2237     0.5594     0.8949 C.3     
   7 C7             2.5108    -0.9263    -2.1184 C.2     
   8 N8             3.5527    -0.1409    -1.7614 N.2     
   9 C9             3.2503     0.4920    -0.6499 C.2     
  10 C10            4.1252     1.4457     0.0670 C.ar    
  11 C11            2.4455    -1.7986    -3.3043 C.2     
  12 O12            1.4478    -2.4603    -3.5184 O.2     
  13 C13            5.2460     1.9815    -0.5679 C.ar    
  14 C14           -1.7322    -1.6963     0.3528 C.3     
  15 N15            3.4915    -1.8631    -4.1518 N.am    
  16 C16            3.4266    -2.7303    -5.3308 C.3     
  17 C17            4.8227    -3.1111    -5.7517 C.2     
  18 C18            6.0576     2.8709     0.1059 C.ar    
  19 C19            5.7623     3.2311     1.4085 C.ar    
  20 C20            4.6526     2.7030     2.0439 C.ar    
  21 C21            3.8296     1.8175     1.3788 C.ar    
  22 C22           -2.6490    -0.7950    -0.4768 C.3     
  23 C23            2.7345    -1.9856    -6.4742 C.3     
  24 C24            3.5282    -0.7227    -6.8145 C.3     
  25 C25            2.6655    -2.8918    -7.7050 C.3     
  26 C26            1.3177    -1.5978    -6.0463 C.3     
  27 C27           -1.8155    -3.1307    -0.1730 C.3     
  28 N28            5.0188    -4.1846    -6.5427 N.am    
  29 O29            5.7697    -2.4516    -5.3786 O.2     
  30 C30            6.3654    -4.5042    -7.0232 C.3     
  31 H31           -0.6566     0.8277    -0.1277 H       
  32 H32           -0.8114     0.3437     1.5769 H       
  33 H33            0.2659    -2.4794    -1.3248 H       
  34 H34           -0.4910    -0.9485    -1.8388 H       
  35 H35            1.3181     1.6385     1.0164 H       
  36 H36            1.5888     0.0547     1.7894 H       
  37 H37            5.4780     1.7005    -1.5846 H       
  38 H38           -2.0470    -1.6729     1.3961 H       
  39 H39            4.2873    -1.3354    -3.9811 H       
  40 H40            2.8617    -3.6306    -5.0890 H       
  41 H41            6.9256     3.2863    -0.3846 H       
  42 H42            6.4009     3.9274     1.9318 H       
  43 H43            4.4278     2.9876     3.0611 H       
  44 H44            2.9636     1.4059     1.8758 H       
  45 H45           -2.3342    -0.8184    -1.5201 H       
  46 H46           -3.6761    -1.1515    -0.3991 H       
  47 H47           -2.5897     0.2269    -0.1022 H       
  48 H48            4.5376    -0.9990    -7.1193 H       
  49 H49            3.0351    -0.1922    -7.6291 H       
  50 H50            3.5774    -0.0771    -5.9377 H       
  51 H51            2.0873    -3.7846    -7.4669 H       
  52 H52            2.1858    -2.3561    -8.5242 H       
  53 H53            3.6741    -3.1803    -8.0008 H       
  54 H54            1.3669    -0.9522    -5.1694 H       
  55 H55            0.8246    -1.0672    -6.8609 H       
  56 H56            0.7522    -2.4975    -5.8038 H       
  57 H57           -2.8426    -3.4871    -0.0953 H       
  58 H58           -1.5007    -3.1541    -1.2163 H       
  59 H59           -1.1624    -3.7728     0.4180 H       
  60 H60            4.2684    -4.7455    -6.7939 H       
  61 H61            6.3267    -5.3991    -7.6442 H       
  62 H62            6.7488    -3.6703    -7.6111 H       
  63 H63            7.0225    -4.6809    -6.1717 H       
@<TRIPOS>BOND
   1    1    2 1
   2    1    6 1
   3    1   31 1
   4    1   32 1
   5    2    3 1
   6    2   14 1
   7    3    4 1
   8    3   33 1
   9    3   34 1
  10    4    5 1
  11    4    7 2
  12    5    6 1
  13    5    9 1
  14    6   35 1
  15    6   36 1
  16    7    8 1
  17    7   11 1
  18    8    9 2
  19    9   10 1
  20   10   13 ar
  21   10   21 ar
  22   11   12 2
  23   11   15 am
  24   13   18 ar
  25   13   37 1
  26   14   22 1
  27   14   27 1
  28   14   38 1
  29   15   16 1
  30   15   39 1
  31   16   17 1
  32   16   23 1
  33   16   40 1
  34   17   28 am
  35   17   29 2
  36   18   19 ar
  37   18   41 1
  38   19   20 ar
  39   19   42 1
  40   20   21 ar
  41   20   43 1
  42   21   44 1
  43   22   45 1
  44   22   46 1
  45   22   47 1
  46   23   24 1
  47   23   25 1
  48   23   26 1
  49   24   48 1
  50   24   49 1
  51   24   50 1
  52   25   51 1
  53   25   52 1
  54   25   53 1
  55   26   54 1
  56   26   55 1
  57   26   56 1
  58   27   57 1
  59   27   58 1
  60   27   59 1
  61   28   30 1
  62   28   60 1
  63   30   61 1
  64   30   62 1
  65   30   63 1

#	End of record

