#	Name: ASD01190167
#	Creating user name:	WinNT
#	Creation time:	15. 06. 2019 19:07

#	Modifying user name:	WinNT
#	Modification time:	15. 06. 2019 19:07

#	Program:	/corina/corina34_cracker 3.40 0067  02.08.2006

@<TRIPOS>MOLECULE
ASD01190167
  43   46    0    0    0
SMALL
NO_CHARGES


@<TRIPOS>ATOM
   1 C1             0.2841     0.8578     1.3075 C.2     
   2 C2             0.3317    -0.6148     0.9912 C.3     
   3 O3             1.2979     1.5217     1.2578 O.2     
   4 N4            -0.8859     1.4382     1.6402 N.am    
   5 N5             1.7053    -0.9982     0.6560 N.pl3   
   6 C6             2.2137    -1.0713    -0.6123 C.2     
   7 C7             3.5003    -1.4519    -0.5682 C.2     
   8 C8             3.8438    -1.6378     0.8436 C.ar    
   9 C9             5.0054    -2.0198     1.5177 C.ar    
  10 C10            5.0025    -2.1010     2.8815 C.ar    
  11 C11            3.8535    -1.8069     3.6031 C.ar    
  12 C12            2.6966    -1.4286     2.9583 C.ar    
  13 C13            2.6786    -1.3330     1.5705 C.ar    
  14 C14            4.4173    -1.6503    -1.7476 C.3     
  15 C15            3.6648    -1.3244    -3.0392 C.3     
  16 N16            9.0187     1.5454    -1.3020 N.pl3   
  17 N17            9.9885     0.5595    -1.5115 N.2     
  18 C18            9.4179    -0.5951    -1.7054 C.2     
  19 C19            7.9742    -0.3978    -1.6259 C.ar    
  20 C20            6.8682    -1.2465    -1.7483 C.ar    
  21 C21            5.6090    -0.7373    -1.6164 C.ar    
  22 C22            5.4152     0.6152    -1.3629 C.ar    
  23 C23            6.4787     1.4635    -1.2402 C.ar    
  24 C24            7.7757     0.9725    -1.3694 C.ar    
  25 O25            4.8596    -3.0087    -1.7838 O.3     
  26 F26            3.2318     0.0054    -3.0038 F       
  27 F27            4.5160    -1.5086    -4.1340 F       
  28 F28            2.5584    -2.1720    -3.1610 F       
  29 H29           -0.0029    -1.1838     1.8586 H       
  30 H30           -0.3214    -0.8258     0.1444 H       
  31 H31           -1.6974     0.9080     1.6761 H       
  32 H32           -0.9165     2.3861     1.8438 H       
  33 H33            1.6617    -0.8551    -1.5150 H       
  34 H34            5.9029    -2.2504     0.9630 H       
  35 H35            5.9012    -2.3968     3.4024 H       
  36 H36            3.8668    -1.8757     4.6809 H       
  37 H37            1.8078    -1.2021     3.5286 H       
  38 H38            9.1975     2.4836    -1.1322 H       
  39 H39            9.9230    -1.5313    -1.8923 H       
  40 H40            7.0104    -2.2986    -1.9465 H       
  41 H41            4.4113     1.0004    -1.2619 H       
  42 H42            6.3142     2.5127    -1.0438 H       
  43 H43            5.3455    -3.2853    -0.9948 H       
@<TRIPOS>BOND
   1    1    2 1
   2    1    3 2
   3    1    4 am
   4    2    5 1
   5    2   29 1
   6    2   30 1
   7    4   31 1
   8    4   32 1
   9    5    6 1
  10    5   13 1
  11    6    7 2
  12    6   33 1
  13    7    8 1
  14    7   14 1
  15    8    9 ar
  16    8   13 ar
  17    9   10 ar
  18    9   34 1
  19   10   11 ar
  20   10   35 1
  21   11   12 ar
  22   11   36 1
  23   12   13 ar
  24   12   37 1
  25   14   15 1
  26   14   21 1
  27   14   25 1
  28   15   26 1
  29   15   27 1
  30   15   28 1
  31   16   17 1
  32   16   24 1
  33   16   38 1
  34   17   18 2
  35   18   19 1
  36   18   39 1
  37   19   20 ar
  38   19   24 ar
  39   20   21 ar
  40   20   40 1
  41   21   22 ar
  42   22   23 ar
  43   22   41 1
  44   23   24 ar
  45   23   42 1
  46   25   43 1

#	End of record

