#	Name: ASD01680081
#	Creating user name:	WinNT
#	Creation time:	15. 06. 2019 19:22

#	Modifying user name:	WinNT
#	Modification time:	15. 06. 2019 19:22

#	Program:	/corina/corina34_cracker 3.40 0067  02.08.2006

@<TRIPOS>MOLECULE
ASD01680081
  69   71    0    0    0
SMALL
NO_CHARGES


@<TRIPOS>ATOM
   1 C1            -0.8455     1.2802    -0.0517 C.2     
   2 C2            -0.6760    -0.2166    -0.0061 C.3     
   3 C3            -1.5092    -0.8583    -1.1174 C.3     
   4 O4             0.1151     1.9919    -0.2265 O.2     
   5 O5            -2.0644     1.8223     0.0965 O.3     
   6 N6             0.7366    -0.5541    -0.1980 N.am    
   7 S7             1.7151    -0.7998     1.1152 S.o2    
   8 O8             2.9965    -1.1389     0.6031 O.2     
   9 O9             1.4936     0.2967     1.9914 O.2     
  10 C10            1.1179    -2.2321     1.9498 C.ar    
  11 C11            0.2992    -2.0968     3.0554 C.ar    
  12 C12           -0.1693    -3.2205     3.7102 C.ar    
  13 C13            0.1805    -4.4795     3.2592 C.ar    
  14 C14            0.9985    -4.6148     2.1530 C.ar    
  15 C15            1.4634    -3.4912     1.4956 C.ar    
  16 C16            2.3510    -3.6387     0.2867 C.3     
  17 C17           -0.3294    -5.7045     3.9736 C.3     
  18 C18           -0.0822    -0.7243     3.5471 C.3     
  19 N19           -1.2523    -2.3002    -1.1497 N.am    
  20 C20           -1.8807    -3.0766    -2.0546 C.2     
  21 O21           -2.6588    -2.5814    -2.8422 O.2     
  22 C22           -1.6164    -4.5598    -2.0878 C.3     
  23 O23           -2.3946    -5.1592    -3.1257 O.3     
  24 N24           -3.3502    -8.6545    -3.0437 N.3     
  25 C25           -3.2570    -7.3292    -2.3795 C.3     
  26 C26           -2.2170    -6.5722    -3.2432 C.3     
  27 C27           -2.5464    -7.0477    -4.6768 C.3     
  28 C28           -3.2929    -8.3825    -4.4963 C.3     
  29 C29           -2.5335    -9.5046    -5.2072 C.3     
  30 N30           -3.1720   -10.7896    -4.9117 N.pl3   
  31 C31           -2.6557   -11.9623    -5.4506 C.ar    
  32 C32           -1.5323   -11.9086    -6.2698 C.ar    
  33 C33           -1.0293   -13.0830    -6.7992 C.ar    
  34 C34           -1.6688   -14.2766    -6.4906 C.ar    
  35 C35           -2.7791   -14.2565    -5.6710 C.ar    
  36 N36           -3.2341   -13.1211    -5.1754 N.ar    
  37 H37           -1.0108    -0.5909     0.9613 H       
  38 H38           -2.5676    -0.6820    -0.9258 H       
  39 H39           -1.2355    -0.4189    -2.0766 H       
  40 H40           -2.1233     2.7868     0.0599 H       
  41 H41            1.0989    -0.6336    -1.0943 H       
  42 H42           -0.8084    -3.1148     4.5744 H       
  43 H43            1.2721    -5.5984     1.8009 H       
  44 H44            3.3949    -3.5610     0.5906 H       
  45 H45            2.1783    -4.6112    -0.1743 H       
  46 H46            2.1218    -2.8507    -0.4307 H       
  47 H47           -1.2795    -6.0112     3.5361 H       
  48 H48            0.3951    -6.5124     3.8719 H       
  49 H49           -0.4727    -5.4758     5.0297 H       
  50 H50           -0.8037    -0.2802     2.8614 H       
  51 H51           -0.5258    -0.8042     4.5396 H       
  52 H52            0.8070    -0.0958     3.5961 H       
  53 H53           -0.6299    -2.6962    -0.5198 H       
  54 H54           -0.5580    -4.7361    -2.2794 H       
  55 H55           -1.8901    -4.9992    -1.1286 H       
  56 H56           -2.5921    -9.2561    -2.7583 H       
  57 H57           -4.2200    -6.8191    -2.4020 H       
  58 H58           -2.9011    -7.4366    -1.3549 H       
  59 H59           -1.2027    -6.8566    -2.9631 H       
  60 H60           -3.1859    -6.3215    -5.1787 H       
  61 H61           -1.6288    -7.2012    -5.2448 H       
  62 H62           -4.3025    -8.3007    -4.8989 H       
  63 H63           -2.5499    -9.3296    -6.2829 H       
  64 H64           -1.5013    -9.5228    -4.8577 H       
  65 H65           -3.9549   -10.8221    -4.3401 H       
  66 H66           -1.0599   -10.9626    -6.4896 H       
  67 H67           -0.1589   -13.0722    -7.4386 H       
  68 H68           -1.3012   -15.2111    -6.8882 H       
  69 H69           -3.2794   -15.1823    -5.4284 H       
@<TRIPOS>BOND
   1    1    2 1
   2    1    4 2
   3    1    5 1
   4    2    3 1
   5    2    6 1
   6    2   37 1
   7    3   19 1
   8    3   38 1
   9    3   39 1
  10    5   40 1
  11    6    7 am
  12    6   41 1
  13    7    8 2
  14    7    9 2
  15    7   10 1
  16   10   11 ar
  17   10   15 ar
  18   11   12 ar
  19   11   18 1
  20   12   13 ar
  21   12   42 1
  22   13   14 ar
  23   13   17 1
  24   14   15 ar
  25   14   43 1
  26   15   16 1
  27   16   44 1
  28   16   45 1
  29   16   46 1
  30   17   47 1
  31   17   48 1
  32   17   49 1
  33   18   50 1
  34   18   51 1
  35   18   52 1
  36   19   20 am
  37   19   53 1
  38   20   21 2
  39   20   22 1
  40   22   23 1
  41   22   54 1
  42   22   55 1
  43   23   26 1
  44   24   25 1
  45   24   28 1
  46   24   56 1
  47   25   26 1
  48   25   57 1
  49   25   58 1
  50   26   27 1
  51   26   59 1
  52   27   28 1
  53   27   60 1
  54   27   61 1
  55   28   29 1
  56   28   62 1
  57   29   30 1
  58   29   63 1
  59   29   64 1
  60   30   31 1
  61   30   65 1
  62   31   32 ar
  63   31   36 ar
  64   32   33 ar
  65   32   66 1
  66   33   34 ar
  67   33   67 1
  68   34   35 ar
  69   34   68 1
  70   35   36 ar
  71   35   69 1

#	End of record

