#	Name: ASD03092949
#	Creating user name:	WinNT
#	Creation time:	15. 06. 2019 20:33

#	Modifying user name:	WinNT
#	Modification time:	15. 06. 2019 20:33

#	Program:	/corina/corina34_cracker 3.40 0067  02.08.2006

@<TRIPOS>MOLECULE
ASD03092949
  52   55    0    0    0
SMALL
NO_CHARGES


@<TRIPOS>ATOM
   1 F1            -7.8052     2.8841    -1.5190 F       
   2 C2            -7.6897     4.2423    -1.2041 C.3     
   3 F3            -6.5891     4.7849    -1.8760 F       
   4 F4            -8.8530     4.9127    -1.5972 F       
   5 C5            -7.4978     4.3987     0.2825 C.ar    
   6 C6            -8.5989     4.5315     1.1091 C.ar    
   7 C7            -8.4290     4.6751     2.4712 C.ar    
   8 C8            -7.1453     4.6855     3.0134 C.ar    
   9 C9            -6.0397     4.5508     2.1759 C.ar    
  10 C10           -6.2215     4.4031     0.8158 C.ar    
  11 C11           -6.9564     4.8400     4.4769 C.2     
  12 C12           -5.7668     4.8721     5.1324 C.2     
  13 N13           -6.0540     5.0284     6.4596 N.pl3   
  14 C14           -7.3987     5.0870     6.5784 C.2     
  15 N15           -7.9343     4.9796     5.3949 N.2     
  16 C16           -5.0824     5.1162     7.5525 C.3     
  17 H17           -4.0645     5.0518     7.1678 H       
  18 C18           -5.2820     6.4255     8.3606 C.3     
  19 C19           -4.7172     6.0249     9.7463 C.3     
  20 N20           -5.1242     4.6196     9.9278 N.am    
  21 C21           -5.3401     4.0145     8.6020 C.3     
  22 C22           -5.2704     3.9906    11.1108 C.2     
  23 O23           -4.9756     4.5595    12.1405 O.2     
  24 C24           -5.8003     2.5805    11.1540 C.3     
  25 C25           -4.6296     1.5955    11.1514 C.3     
  26 C26           -5.1675     0.1639    11.1953 C.3     
  27 C27           -5.9953    -0.0311    12.4672 C.3     
  28 F28           -6.4872    -1.3402    12.5074 F       
  29 F29           -5.1898     0.1989    13.5877 F       
  30 C30           -7.1660     0.9539    12.4698 C.3     
  31 C31           -6.6281     2.3855    12.4259 C.3     
  32 H32           -9.5933     4.5233     0.6879 H       
  33 H33           -9.2894     4.7794     3.1157 H       
  34 H34           -5.0426     4.5585     2.5907 H       
  35 H35           -5.3656     4.2948     0.1661 H       
  36 H36           -4.7847     4.7897     4.6907 H       
  37 H37           -7.9418     5.2076     7.5041 H       
  38 H38           -4.7078     7.2440     7.9265 H       
  39 H39           -6.3384     6.6850     8.4294 H       
  40 H40           -3.6305     6.1089     9.7518 H       
  41 H41           -5.1507     6.6492    10.5276 H       
  42 H42           -6.3669     3.6580     8.5207 H       
  43 H43           -4.6455     3.1883     8.4504 H       
  44 H44           -6.4279     2.4013    10.2810 H       
  45 H45           -4.0399     1.7344    10.2453 H       
  46 H46           -4.0020     1.7747    12.0244 H       
  47 H47           -5.7951    -0.0154    10.3223 H       
  48 H48           -4.3335    -0.5379    11.1935 H       
  49 H49           -7.7936     0.7746    11.5968 H       
  50 H50           -7.7557     0.8150    13.3759 H       
  51 H51           -6.0005     2.5648    13.2989 H       
  52 H52           -7.4621     3.0873    12.4277 H       
@<TRIPOS>BOND
   1    1    2 1
   2    2    3 1
   3    2    4 1
   4    2    5 1
   5    5   10 ar
   6    5    6 ar
   7    6    7 ar
   8    6   32 1
   9    7    8 ar
  10    7   33 1
  11    8    9 ar
  12    8   11 1
  13    9   10 ar
  14    9   34 1
  15   10   35 1
  16   11   15 1
  17   11   12 2
  18   12   13 1
  19   12   36 1
  20   13   14 1
  21   13   16 1
  22   14   15 2
  23   14   37 1
  24   16   17 1
  25   16   21 1
  26   16   18 1
  27   18   19 1
  28   18   38 1
  29   18   39 1
  30   19   20 1
  31   19   40 1
  32   19   41 1
  33   20   21 1
  34   20   22 am
  35   21   42 1
  36   21   43 1
  37   22   23 2
  38   22   24 1
  39   24   31 1
  40   24   25 1
  41   24   44 1
  42   25   26 1
  43   25   45 1
  44   25   46 1
  45   26   27 1
  46   26   47 1
  47   26   48 1
  48   27   28 1
  49   27   29 1
  50   27   30 1
  51   30   31 1
  52   30   49 1
  53   30   50 1
  54   31   51 1
  55   31   52 1

#	End of record

