#	Name: ASD01150459
#	Creating user name:	WinNT
#	Creation time:	15. 06. 2019 19:04

#	Modifying user name:	WinNT
#	Modification time:	15. 06. 2019 19:04

#	Program:	/corina/corina34_cracker 3.40 0067  02.08.2006

@<TRIPOS>MOLECULE
ASD01150459
  53   55    0    0    0
SMALL
NO_CHARGES


@<TRIPOS>ATOM
   1 C1             1.9143     1.4016     0.9687 C.ar    
   2 C2             1.9596     0.0213     0.9430 C.ar    
   3 C3             0.4926     0.0046    -0.9573 C.ar    
   4 C4             0.4445     1.3911    -0.9341 C.ar    
   5 C5             1.1563     2.0910     0.0298 C.ar    
   6 N6             1.1105     3.4892     0.0567 N.am    
   7 C7            -0.0780     4.1147    -0.0078 C.2     
   8 N8            -0.1589     5.4581     0.0161 N.am    
   9 C9             0.9636     6.2013     0.1061 C.2     
  10 C10            2.2667     5.5231     0.1770 C.2     
  11 N11            2.3023     4.2168     0.1563 N.2     
  12 O12            0.8987     7.4163     0.1278 O.2     
  13 C13           -1.4670     6.1139    -0.0561 C.3     
  14 O14           -1.0968     3.4557    -0.0895 O.2     
  15 C15           -2.0092     6.3079     1.3365 C.ar    
  16 C16           -1.7301     7.4632     2.0413 C.ar    
  17 N17           -2.2011     7.6402     3.2604 N.ar    
  18 C18           -2.9511     6.7317     3.8526 C.ar    
  19 C19           -3.2723     5.5512     3.2091 C.ar    
  20 C20           -2.7993     5.3318     1.9246 C.ar    
  21 O21            3.4151     6.2432     0.2677 O.3     
  22 C22            4.6386     5.5078     0.3321 C.3     
  23 C23            1.2518    -0.6785    -0.0157 C.ar    
  24 N24           -0.2233    -0.7049    -1.9279 N.am    
  25 C25            0.2667    -1.8622    -2.4149 C.2     
  26 C26           -0.5545    -2.6831    -3.3755 C.3     
  27 O27            1.3684    -2.2429    -2.0799 O.2     
  28 C28           -3.4637     6.9830     5.2473 C.3     
  29 C29           -4.8729     7.5742     5.1739 C.3     
  30 C30           -3.5037     5.6639     6.0214 C.3     
  31 H31            2.4650     1.9454     1.7220 H       
  32 H32            2.5496    -0.5122     1.6735 H       
  33 H33           -0.1453     1.9245    -1.6649 H       
  34 H34           -1.3610     7.0833    -0.5431 H       
  35 H35           -2.1540     5.4921    -0.6301 H       
  36 H36           -1.1189     8.2300     1.5888 H       
  37 H37           -3.8868     4.8107     3.6996 H       
  38 H38           -3.0342     4.4189     1.3975 H       
  39 H39            4.7446     4.8993    -0.5660 H       
  40 H40            5.4764     6.2016     0.4019 H       
  41 H41            4.6282     4.8614     1.2097 H       
  42 H42            1.2893    -1.7577    -0.0331 H       
  43 H43           -1.0722    -0.3638    -2.2503 H       
  44 H44           -0.3365    -2.3725    -4.3973 H       
  45 H45           -0.3069    -3.7379    -3.2557 H       
  46 H46           -1.6140    -2.5328    -3.1682 H       
  47 H47           -2.8020     7.6834     5.7569 H       
  48 H48           -5.5347     6.8738     4.6643 H       
  49 H49           -5.2437     7.7559     6.1827 H       
  50 H50           -4.8445     8.5139     4.6225 H       
  51 H51           -4.1654     4.9635     5.5118 H       
  52 H52           -2.4997     5.2427     6.0737 H       
  53 H53           -3.8744     5.8456     7.0302 H       
@<TRIPOS>BOND
   1    1    2 ar
   2    1    5 ar
   3    1   31 1
   4    2   23 ar
   5    2   32 1
   6    3    4 ar
   7    3   24 1
   8    3   23 ar
   9    4    5 ar
  10    4   33 1
  11    5    6 1
  12    6    7 am
  13    6   11 1
  14    7    8 am
  15    7   14 2
  16    8    9 am
  17    8   13 1
  18    9   10 1
  19    9   12 2
  20   10   11 2
  21   10   21 1
  22   13   15 1
  23   13   34 1
  24   13   35 1
  25   15   16 ar
  26   15   20 ar
  27   16   17 ar
  28   16   36 1
  29   17   18 ar
  30   18   19 ar
  31   18   28 1
  32   19   20 ar
  33   19   37 1
  34   20   38 1
  35   21   22 1
  36   22   39 1
  37   22   40 1
  38   22   41 1
  39   23   42 1
  40   24   25 am
  41   24   43 1
  42   25   26 1
  43   25   27 2
  44   26   44 1
  45   26   45 1
  46   26   46 1
  47   28   29 1
  48   28   30 1
  49   28   47 1
  50   29   48 1
  51   29   49 1
  52   29   50 1
  53   30   51 1
  54   30   52 1
  55   30   53 1

#	End of record

