#	Name: ASD00431402
#	Creating user name:	WinNT
#	Creation time:	15. 06. 2019 18:35

#	Modifying user name:	WinNT
#	Modification time:	15. 06. 2019 18:35

#	Program:	/corina/corina34_cracker 3.40 0067  02.08.2006

@<TRIPOS>MOLECULE
ASD00431402
  42   43    0    0    0
SMALL
NO_CHARGES


@<TRIPOS>ATOM
   1 C1            -0.0866     1.2089     0.5763 C.2     
   2 N2            -0.0001    -0.0088     0.0053 N.am    
   3 O3             0.8946     1.7114     1.0875 O.2     
   4 O4            -1.2590     1.8712     0.5754 O.3     
   5 C5             1.2438    -0.6448    -0.1036 C.ar    
   6 C6             1.3302    -2.0258     0.0116 C.ar    
   7 C7             2.5561    -2.6520    -0.0957 C.ar    
   8 C8             3.7016    -1.9014    -0.3182 C.ar    
   9 C9             3.6160    -0.5213    -0.4329 C.ar    
  10 C10            2.3896     0.1052    -0.3324 C.ar    
  11 O11            4.9086    -2.5184    -0.4233 O.3     
  12 S12            6.5086    -4.2979    -1.7165 S.3     
  13 C13            5.1116    -3.3420    -1.4785 C.2     
  14 N14            4.2728    -3.5184    -2.4538 N.2     
  15 C15            4.6245    -4.3554    -3.4026 C.2     
  16 C16            5.8376    -4.9245    -3.2203 C.2     
  17 C17            6.4824    -5.8948    -4.1180 C.2     
  18 N18            5.8756    -6.2792    -5.2073 N.2     
  19 O19            6.4963    -7.2134    -6.0716 O.3     
  20 N20            7.7348    -6.4011    -3.8068 N.pl3   
  21 C21           -1.2786     3.1778     1.2083 C.3     
  22 C22           -0.2841     4.1015     0.5021 C.3     
  23 C23           -2.6852     3.7716     1.1091 C.3     
  24 C24           -0.8870     3.0372     2.6806 C.3     
  25 H25           -0.7988    -0.4450    -0.3302 H       
  26 H26            0.4387    -2.6101     0.1855 H       
  27 H27            2.6234    -3.7261    -0.0061 H       
  28 H28            4.5080     0.0625    -0.6057 H       
  29 H29            2.3224     1.1790    -0.4265 H       
  30 H30            3.9982    -4.5712    -4.2555 H       
  31 H31            5.9707    -7.4368    -6.8520 H       
  32 H32            8.1859    -6.1155    -2.9970 H       
  33 H33            8.1601    -7.0411    -4.3988 H       
  34 H34           -0.5630     4.2017    -0.5469 H       
  35 H35           -0.2988     5.0824     0.9772 H       
  36 H36            0.7180     3.6785     0.5727 H       
  37 H37           -3.3936     3.1136     1.6122 H       
  38 H38           -2.6998     4.7525     1.5842 H       
  39 H39           -2.9641     3.8718     0.0602 H       
  40 H40            0.1151     2.6142     2.7513 H       
  41 H41           -0.9017     4.0181     3.1558 H       
  42 H42           -1.5955     2.3792     3.1838 H       
@<TRIPOS>BOND
   1    1    2 am
   2    1    3 2
   3    1    4 1
   4    2    5 1
   5    2   25 1
   6    4   21 1
   7    5    6 ar
   8    5   10 ar
   9    6    7 ar
  10    6   26 1
  11    7    8 ar
  12    7   27 1
  13    8    9 ar
  14    8   11 1
  15    9   10 ar
  16    9   28 1
  17   10   29 1
  18   11   13 1
  19   12   13 1
  20   12   16 1
  21   13   14 2
  22   14   15 1
  23   15   16 2
  24   15   30 1
  25   16   17 1
  26   17   18 2
  27   17   20 1
  28   18   19 1
  29   19   31 1
  30   20   32 1
  31   20   33 1
  32   21   22 1
  33   21   24 1
  34   21   23 1
  35   22   34 1
  36   22   35 1
  37   22   36 1
  38   23   37 1
  39   23   38 1
  40   23   39 1
  41   24   40 1
  42   24   41 1
  43   24   42 1

#	End of record

