#	Name: ASD03091385
#	Creating user name:	WinNT
#	Creation time:	15. 06. 2019 20:30

#	Modifying user name:	WinNT
#	Modification time:	15. 06. 2019 20:30

#	Program:	/corina/corina34_cracker 3.40 0067  02.08.2006

@<TRIPOS>MOLECULE
ASD03091385
  50   54    0    0    0
SMALL
NO_CHARGES


@<TRIPOS>ATOM
   1 N1            -0.1851     0.3906     0.1962 N.am    
   2 C2            -0.4320    -0.9301     0.4568 C.2     
   3 N3            -1.6317    -1.4021     0.6758 N.2     
   4 C4            -2.7202    -0.6062     0.6593 C.ar    
   5 C5            -2.5605     0.7739     0.3987 C.ar    
   6 C6            -1.2019     1.2832     0.1599 C.2     
   7 O7            -1.0002     2.4615    -0.0698 O.2     
   8 C8            -4.0008    -1.1162     0.8937 C.ar    
   9 C9            -5.0809    -0.2810     0.8689 C.ar    
  10 C10           -4.9278     1.0800     0.6124 C.ar    
  11 C11           -3.6732     1.6120     0.3771 C.ar    
  12 O12           -6.0190     1.8902     0.5933 O.3     
  13 C13           -5.8108     3.2499     0.2058 C.3     
  14 C14           -7.1227     3.8390    -0.3276 C.3     
  15 C15            1.1887     0.8419    -0.0389 C.3     
  16 C16            0.7108    -1.8668     0.4919 C.ar    
  17 C17            0.7757    -2.8565     1.4737 C.ar    
  18 C18            1.7270    -1.7689    -0.4604 C.ar    
  19 C19            2.7907    -2.6462    -0.4229 C.ar    
  20 C20            2.8525    -3.6225     0.5555 C.ar    
  21 C21            1.8460    -3.7287     1.5003 C.ar    
  22 Cl22           1.9325    -4.9570     2.7240 Cl      
  23 C23           -5.3602     4.0664     1.4205 C.3     
  24 N24           -6.3304     5.1402     1.6728 N.3     
  25 C25           -6.4025     6.0651     0.5332 C.3     
  26 C26           -6.8818     5.3056    -0.7071 C.3     
  27 C27           -8.1717     3.7888     0.7904 C.3     
  28 C28           -7.6561     4.5906     1.9887 C.3     
  29 H29           -4.1356    -2.1689     1.0936 H       
  30 H30           -6.0676    -0.6810     1.0503 H       
  31 H31           -3.5570     2.6672     0.1785 H       
  32 H32           -5.0474     3.2955    -0.5709 H       
  33 H33           -7.4665     3.2682    -1.1902 H       
  34 H34            1.4461     0.6917    -1.0874 H       
  35 H35            1.2705     1.9006     0.2072 H       
  36 H36            1.8717     0.2692     0.5885 H       
  37 H37           -0.0091    -2.9399     2.2109 H       
  38 H38            1.6800    -1.0079    -1.2253 H       
  39 H39            3.5772    -2.5710    -1.1593 H       
  40 H40            3.6875    -4.3071     0.5801 H       
  41 H41           -5.3015     3.4168     2.2938 H       
  42 H42           -4.3801     4.5007     1.2235 H       
  43 H43           -7.1028     6.8687     0.7607 H       
  44 H44           -5.4150     6.4856     0.3431 H       
  45 H45           -6.1212     5.3611    -1.4859 H       
  46 H46           -7.8106     5.7464    -1.0690 H       
  47 H47           -9.1057     4.2237     0.4346 H       
  48 H48           -8.3388     2.7537     1.0882 H       
  49 H49           -7.5812     3.9376     2.8582 H       
  50 H50           -8.3460     5.4064     2.2045 H       
@<TRIPOS>BOND
   1    1    2 1
   2    1   15 1
   3    1    6 am
   4    2    3 2
   5    2   16 1
   6    3    4 1
   7    4    5 ar
   8    4    8 ar
   9    5    6 1
  10    5   11 ar
  11    6    7 2
  12    8    9 ar
  13    8   29 1
  14    9   10 ar
  15    9   30 1
  16   10   11 ar
  17   10   12 1
  18   11   31 1
  19   12   13 1
  20   13   14 1
  21   13   23 1
  22   13   32 1
  23   14   27 1
  24   14   26 1
  25   14   33 1
  26   15   34 1
  27   15   35 1
  28   15   36 1
  29   16   17 ar
  30   16   18 ar
  31   17   21 ar
  32   17   37 1
  33   18   19 ar
  34   18   38 1
  35   19   20 ar
  36   19   39 1
  37   20   21 ar
  38   20   40 1
  39   21   22 1
  40   23   24 1
  41   23   41 1
  42   23   42 1
  43   24   25 1
  44   24   28 1
  45   25   26 1
  46   25   43 1
  47   25   44 1
  48   26   45 1
  49   26   46 1
  50   27   28 1
  51   27   47 1
  52   27   48 1
  53   28   49 1
  54   28   50 1

#	End of record

