#	Name: ASD02560022
#	Creating user name:	WinNT
#	Creation time:	15. 06. 2019 20:24

#	Modifying user name:	WinNT
#	Modification time:	15. 06. 2019 20:24

#	Program:	/corina/corina34_cracker 3.40 0067  02.08.2006

@<TRIPOS>MOLECULE
ASD02560022
  66   68    0    0    0
SMALL
NO_CHARGES


@<TRIPOS>ATOM
   1 N1            -1.0471     1.8952     0.1530 N.am    
   2 C2            -1.1095     0.6109    -0.2451 C.2     
   3 N3            -0.7783    -0.3893     0.5917 N.am    
   4 C4            -0.3694    -0.1221     1.8699 C.2     
   5 C5            -0.2977     1.1573     2.2953 C.2     
   6 C6            -0.6438     2.2004     1.4029 C.2     
   7 O7            -0.5870     3.3621     1.7638 O.2     
   8 C8             0.1499     1.4710     3.6997 C.3     
   9 C9            -1.4131     2.9659    -0.7775 C.3     
  10 O10           -1.4705     0.3510    -1.3766 O.2     
  11 C11           -0.8566    -1.7774     0.1301 C.3     
  12 O12            0.4654    -2.3524     0.0391 O.3     
  13 C13            0.8291    -2.6896     1.3962 C.3     
  14 C14           -0.4617    -3.2593     2.0186 C.3     
  15 C15           -1.5960    -2.6493     1.1701 C.3     
  16 C16            1.9360    -3.7459     1.4045 C.3     
  17 O17            3.1334    -3.1853     0.8623 O.3     
  18 Si18           4.3911    -4.2228     0.8190 Si      
  19 C19            3.9468    -5.6938    -0.2343 C.3     
  20 C20            5.8781    -3.3662     0.0938 C.3     
  21 C21            4.7852    -4.7935     2.5481 C.3     
  22 O22           -2.4515    -1.8429     1.9825 O.3     
  23 Si23          -4.0339    -1.9685     1.6078 Si      
  24 C24           -4.6218    -3.6993     1.9679 C.3     
  25 C25           -0.4764    -4.7536     1.9121 C.2     
  26 C26           -0.1892    -5.3274     3.0747 C.2     
  27 S27            0.0552    -3.9630     4.1862 S.o2    
  28 O28           -0.5807    -2.8165     3.3755 O.3     
  29 N29           -0.7561    -5.4514     0.7439 N.pl3   
  30 O30           -0.7684    -4.1878     5.3221 O.2     
  31 O31            1.4526    -3.7132     4.2511 O.2     
  32 C32           -5.0120    -0.7554     2.6288 C.3     
  33 C33           -4.2753    -1.5944    -0.2012 C.3     
  34 H34           -0.1057    -0.9308     2.5353 H       
  35 H35            1.2322     1.5992     3.7160 H       
  36 H36           -0.3299     2.3897     4.0373 H       
  37 H37           -0.1288     0.6511     4.3616 H       
  38 H38           -2.4782     3.1788    -0.6856 H       
  39 H39           -0.8415     3.8635    -0.5415 H       
  40 H40           -1.1920     2.6522    -1.7977 H       
  41 H41           -1.3594    -1.8276    -0.8358 H       
  42 H42            1.1496    -1.7984     1.9359 H       
  43 H43           -2.1669    -3.4343     0.6741 H       
  44 H44            2.1188    -4.0725     2.4282 H       
  45 H45            1.6283    -4.5993     0.8002 H       
  46 H46            3.7162    -5.3599    -1.2460 H       
  47 H47            4.7873    -6.3872    -0.2632 H       
  48 H48            3.0768    -6.1950     0.1900 H       
  49 H49            6.1381    -2.5056     0.7101 H       
  50 H50            6.7186    -4.0596     0.0649 H       
  51 H51            5.6475    -3.0323    -0.9179 H       
  52 H52            3.9152    -5.2947     2.9724 H       
  53 H53            5.6257    -5.4869     2.5192 H       
  54 H54            5.0452    -3.9329     3.1644 H       
  55 H55           -4.4805    -3.9182     3.0263 H       
  56 H56           -5.6793    -3.7832     1.7175 H       
  57 H57           -4.0495    -4.4091     1.3705 H       
  58 H58           -0.1204    -6.3825     3.2945 H       
  59 H59           -0.9589    -4.9686    -0.0726 H       
  60 H60           -0.7485    -6.4213     0.7447 H       
  61 H61           -4.6680     0.2572     2.4181 H       
  62 H62           -6.0695    -0.8394     2.3784 H       
  63 H63           -4.8707    -0.9743     3.6872 H       
  64 H64           -3.7507    -2.3393    -0.7995 H       
  65 H65           -5.3388    -1.6209    -0.4389 H       
  66 H66           -3.8778    -0.6042    -0.4236 H       
@<TRIPOS>BOND
   1    1    2 am
   2    1    9 1
   3    1    6 am
   4    2    3 am
   5    2   10 2
   6    3    4 1
   7    3   11 1
   8    4    5 2
   9    4   34 1
  10    5    6 1
  11    5    8 1
  12    6    7 2
  13    8   35 1
  14    8   36 1
  15    8   37 1
  16    9   38 1
  17    9   39 1
  18    9   40 1
  19   11   12 1
  20   11   15 1
  21   11   41 1
  22   12   13 1
  23   13   14 1
  24   13   16 1
  25   13   42 1
  26   14   15 1
  27   14   25 1
  28   14   28 1
  29   15   22 1
  30   15   43 1
  31   16   17 1
  32   16   44 1
  33   16   45 1
  34   17   18 1
  35   18   19 1
  36   18   20 1
  37   18   21 1
  38   19   46 1
  39   19   47 1
  40   19   48 1
  41   20   49 1
  42   20   50 1
  43   20   51 1
  44   21   52 1
  45   21   53 1
  46   21   54 1
  47   22   23 1
  48   23   24 1
  49   23   32 1
  50   23   33 1
  51   24   55 1
  52   24   56 1
  53   24   57 1
  54   25   26 2
  55   25   29 1
  56   26   27 1
  57   26   58 1
  58   27   28 1
  59   27   30 2
  60   27   31 2
  61   29   59 1
  62   29   60 1
  63   32   61 1
  64   32   62 1
  65   32   63 1
  66   33   64 1
  67   33   65 1
  68   33   66 1

#	End of record

