#	Name: ASD01560050
#	Creating user name:	WinNT
#	Creation time:	15. 06. 2019 19:22

#	Modifying user name:	WinNT
#	Modification time:	15. 06. 2019 19:22

#	Program:	/corina/corina34_cracker 3.40 0067  02.08.2006

@<TRIPOS>MOLECULE
ASD01560050
  38   41    0    0    0
SMALL
NO_CHARGES


@<TRIPOS>ATOM
   1 I1             0.0021    -0.0041     0.0020 I       
   2 C2            -0.0263     2.0907     0.0135 C.ar    
   3 C3             1.1643     2.7963     0.0060 C.ar    
   4 C4             1.1518     4.1759     0.0139 C.ar    
   5 C5            -0.0639     4.8595     0.0292 C.ar    
   6 C6            -1.2606     4.1431     0.0363 C.ar    
   7 C7            -1.2357     2.7636     0.0229 C.ar    
   8 C8            -0.0840     6.3407     0.0384 C.2     
   9 C9             0.6404     7.1799     0.9035 C.2     
  10 N10            0.3664     8.4237     0.6099 N.2     
  11 N11           -0.5428     8.4567    -0.4527 N.am    
  12 C12           -0.8190     7.1625    -0.8120 C.2     
  13 N13           -1.6737     6.9069    -1.8200 N.2     
  14 C14           -2.2509     7.8962    -2.4682 C.2     
  15 S15           -3.3677     7.5471    -3.7856 S.3     
  16 C16           -3.3135     5.7380    -3.7726 C.3     
  17 C17           -4.2204     5.2005    -4.8495 C.2     
  18 N18           -5.5790     5.2206    -4.6784 N.am    
  19 C19           -6.3970     4.7431    -5.6339 C.2     
  20 O20           -7.6003     4.7703    -5.4610 O.2     
  21 N21           -5.9026     4.2362    -6.7784 N.am    
  22 C22           -4.5709     4.1981    -6.9858 C.2     
  23 O23           -4.1230     3.7392    -8.0212 O.2     
  24 C24           -3.6977     4.7017    -5.9905 C.2     
  25 Cl25          -1.9785     4.6669    -6.2289 Cl      
  26 N26           -1.9877     9.1992    -2.1231 N.am    
  27 C27           -1.1300     9.4714    -1.1183 C.2     
  28 O28           -0.8947    10.6234    -0.8095 O.2     
  29 H29            2.1050     2.2659    -0.0059 H       
  30 H30            2.0815     4.7255     0.0087 H       
  31 H31           -2.2049     4.6671     0.0482 H       
  32 H32           -2.1617     2.2078     0.0281 H       
  33 H33            1.3125     6.8509     1.6823 H       
  34 H34           -2.2926     5.4037    -3.9571 H       
  35 H35           -3.6458     5.3715    -2.8013 H       
  36 H36           -5.9550     5.5821    -3.8606 H       
  37 H37           -6.5069     3.8965    -7.4569 H       
  38 H38           -2.4164     9.9242    -2.6043 H       
@<TRIPOS>BOND
   1    1    2 1
   2    2    3 ar
   3    2    7 ar
   4    3    4 ar
   5    3   29 1
   6    4    5 ar
   7    4   30 1
   8    5    6 ar
   9    5    8 1
  10    6    7 ar
  11    6   31 1
  12    7   32 1
  13    8    9 1
  14    8   12 2
  15    9   10 2
  16    9   33 1
  17   10   11 1
  18   11   12 1
  19   11   27 am
  20   12   13 1
  21   13   14 2
  22   14   15 1
  23   14   26 1
  24   15   16 1
  25   16   17 1
  26   16   34 1
  27   16   35 1
  28   17   18 1
  29   17   24 2
  30   18   19 am
  31   18   36 1
  32   19   20 2
  33   19   21 am
  34   21   22 am
  35   21   37 1
  36   22   23 2
  37   22   24 1
  38   24   25 1
  39   26   27 am
  40   26   38 1
  41   27   28 2

#	End of record

