#	Name: ASD01917611
#	Creating user name:	WinNT
#	Creation time:	15. 06. 2019 20:09

#	Modifying user name:	WinNT
#	Modification time:	15. 06. 2019 20:09

#	Program:	/corina/corina34_cracker 3.40 0067  02.08.2006

@<TRIPOS>MOLECULE
ASD01917611
  56   60    0    0    0
SMALL
NO_CHARGES


@<TRIPOS>ATOM
   1 C1            -0.0166     1.3759     0.0096 C.ar    
   2 C2             0.0021    -0.0041     0.0020 C.ar    
   3 C3             1.2198    -0.6817    -0.0133 C.ar    
   4 C4             2.4124     0.0392    -0.0209 C.ar    
   5 C5             2.3818     1.4189    -0.0132 C.ar    
   6 C6             1.1702     2.0863     0.0021 C.ar    
   7 C7             1.2463    -2.1650    -0.0210 C.2     
   8 N8             0.1705    -2.9784    -0.0151 N.2     
   9 C9             2.3585    -2.9449    -0.0413 C.2     
  10 N10            1.9280    -4.2444    -0.0419 N.pl3   
  11 C11            0.5692    -4.2195    -0.0255 C.2     
  12 C12            2.7383    -5.3885    -0.0604 C.ar    
  13 C13            3.7568    -5.5044    -0.9966 C.ar    
  14 C14            4.5533    -6.6327    -1.0123 C.ar    
  15 C15            4.3371    -7.6462    -0.0969 C.ar    
  16 C16            3.3231    -7.5338     0.8365 C.ar    
  17 C17            2.5273    -6.4052     0.8611 C.ar    
  18 C18           -0.3297    -5.4290    -0.0194 C.3     
  19 C19           -0.6123    -5.8376     1.4034 C.2     
  20 N20           -1.3998    -6.9020     1.6551 N.am    
  21 O21           -0.1312    -5.2085     2.3219 O.2     
  22 C22           -1.6884    -7.3178     3.0360 C.3     
  23 C23           -1.9983    -7.6749     0.5561 C.3     
  24 C24           -3.5027    -7.8060     0.8162 C.3     
  25 N25           -3.7177    -8.3648     2.1576 N.3     
  26 C26           -3.2057    -7.4637     3.1934 C.3     
  27 C27           -5.0558    -8.6493     2.3678 C.ar    
  28 N28           -5.4332    -9.1622     3.5297 N.ar    
  29 N29           -5.9297    -8.3972     1.4044 N.ar    
  30 C30           -7.2157    -8.6569     1.5731 C.ar    
  31 C31           -7.6441    -9.1987     2.7747 C.ar    
  32 C32           -6.7041    -9.4451     3.7631 C.ar    
  33 H33           -0.9597     1.9021     0.0169 H       
  34 H34           -0.9252    -0.5578     0.0083 H       
  35 H35            3.3589    -0.4809    -0.0324 H       
  36 H36            3.3054     1.9786    -0.0186 H       
  37 H37            1.1509     3.1661     0.0077 H       
  38 H38            3.3837    -2.6054    -0.0550 H       
  39 H39            3.9259    -4.7133    -1.7120 H       
  40 H40            5.3456    -6.7236    -1.7407 H       
  41 H41            4.9612    -8.5275    -0.1111 H       
  42 H42            3.1563    -8.3272     1.5501 H       
  43 H43            1.7356    -6.3178     1.5906 H       
  44 H44           -1.2668    -5.1878    -0.5211 H       
  45 H45            0.1617    -6.2495    -0.5422 H       
  46 H46           -1.2057    -8.2737     3.2391 H       
  47 H47           -1.3192    -6.5631     3.7304 H       
  48 H48           -1.8337    -7.1562    -0.3883 H       
  49 H49           -1.5458    -8.6658     0.5166 H       
  50 H50           -3.9699    -6.8233     0.7524 H       
  51 H51           -3.9442    -8.4681     0.0713 H       
  52 H52           -3.4270    -7.8774     4.1773 H       
  53 H53           -3.6806    -6.4877     3.0936 H       
  54 H54           -7.9233    -8.4489     0.7842 H       
  55 H55           -8.6883    -9.4201     2.9390 H       
  56 H56           -7.0050    -9.8667     4.7107 H       
@<TRIPOS>BOND
   1    1    2 ar
   2    1    6 ar
   3    1   33 1
   4    2    3 ar
   5    2   34 1
   6    3    4 ar
   7    3    7 1
   8    4    5 ar
   9    4   35 1
  10    5    6 ar
  11    5   36 1
  12    6   37 1
  13    7    8 1
  14    7    9 2
  15    8   11 2
  16    9   10 1
  17    9   38 1
  18   10   11 1
  19   10   12 1
  20   11   18 1
  21   12   13 ar
  22   12   17 ar
  23   13   14 ar
  24   13   39 1
  25   14   15 ar
  26   14   40 1
  27   15   16 ar
  28   15   41 1
  29   16   17 ar
  30   16   42 1
  31   17   43 1
  32   18   19 1
  33   18   44 1
  34   18   45 1
  35   19   20 am
  36   19   21 2
  37   20   22 1
  38   20   23 1
  39   22   26 1
  40   22   46 1
  41   22   47 1
  42   23   24 1
  43   23   48 1
  44   23   49 1
  45   24   25 1
  46   24   50 1
  47   24   51 1
  48   25   26 1
  49   25   27 1
  50   26   52 1
  51   26   53 1
  52   27   28 ar
  53   27   29 ar
  54   28   32 ar
  55   29   30 ar
  56   30   31 ar
  57   30   54 1
  58   31   32 ar
  59   31   55 1
  60   32   56 1

#	End of record

