#	Name: ASD03730721
#	Creating user name:	WinNT
#	Creation time:	15. 06. 2019 20:44

#	Modifying user name:	WinNT
#	Modification time:	15. 06. 2019 20:44

#	Program:	/corina/corina34_cracker 3.40 0067  02.08.2006

@<TRIPOS>MOLECULE
ASD03730721
  63   69    0    0    0
SMALL
NO_CHARGES


@<TRIPOS>ATOM
   1 C1             1.5573    -1.2864    -2.4137 C.2     
   2 C2             0.7041    -1.1969    -1.2096 C.ar    
   3 C3             1.2056    -0.6325    -0.0354 C.ar    
   4 C4             0.4041    -0.5515     1.0843 C.ar    
   5 C5            -0.8942    -1.0286     1.0455 C.ar    
   6 C6            -1.3974    -1.5891    -0.1148 C.ar    
   7 C7            -0.6081    -1.6709    -1.2436 C.ar    
   8 O8             2.6651    -0.7862    -2.4121 O.2     
   9 N9             1.1089    -1.9275    -3.5111 N.am    
  10 C10            1.9544    -2.0163    -4.7043 C.3     
  11 O11            0.0625    -2.0429    -6.2487 O.3     
  12 C12            1.2140    -2.7890    -5.7977 C.3     
  13 C13            2.1054    -2.9348    -7.0508 C.3     
  14 C14            1.1191    -2.7937    -8.2317 C.3     
  15 C15           -0.2516    -2.5793    -7.5524 C.3     
  16 C16            2.6196    -0.1133     0.0088 C.3     
  17 O17            0.0928    -1.7703     6.5327 O.3     
  18 C18            0.0950    -1.6641     7.9686 C.3     
  19 O19            1.4935    -1.6023     8.3051 O.3     
  20 C20            2.1096    -1.0652     7.2111 C.ar    
  21 C21            1.2482    -1.1698     6.1214 C.ar    
  22 C22            3.3557    -0.4852     7.0546 C.ar    
  23 C23            3.7588    -0.0048     5.8123 C.ar    
  24 C24            2.8928    -0.1223     4.7294 C.ar    
  25 C25            1.6474    -0.6946     4.8835 C.ar    
  26 O26            4.9220     0.6087     5.4504 O.3     
  27 C27            3.6136     0.4527     3.5395 C.3     
  28 C28            5.0688     0.5419     4.0188 C.3     
  29 N29            2.9248     0.3575     1.3621 N.am    
  30 C30            3.4778    -0.4129     2.3201 C.2     
  31 C31            3.0735     1.7932     3.1379 C.ar    
  32 C32            2.9244     2.9944     3.7945 C.ar    
  33 C33            2.3780     4.0812     3.1354 C.ar    
  34 C34            1.9815     3.9580     1.8161 C.ar    
  35 C35            2.1280     2.7567     1.1544 C.ar    
  36 C36            2.6774     1.6574     1.8099 C.ar    
  37 O37            3.8025    -1.5770     2.2171 O.2     
  38 H38            0.7909    -0.1151     1.9933 H       
  39 H39           -1.5174    -0.9635     1.9252 H       
  40 H40           -2.4115    -1.9596    -0.1385 H       
  41 H41           -1.0034    -2.1050    -2.1501 H       
  42 H42            0.2264    -2.3301    -3.5110 H       
  43 H43            2.1853    -1.0127    -5.0615 H       
  44 H44            2.8801    -2.5354    -4.4558 H       
  45 H45            0.9106    -3.7691    -5.4296 H       
  46 H46            2.8537    -2.1429    -7.0815 H       
  47 H47            2.5836    -3.9142    -7.0675 H       
  48 H48            1.3798    -1.9320    -8.8462 H       
  49 H49            1.1097    -3.7033    -8.8322 H       
  50 H50           -0.7795    -3.5280    -7.4552 H       
  51 H51           -0.8499    -1.8677    -8.1214 H       
  52 H52            3.3090    -0.9131    -0.2617 H       
  53 H53            2.7260     0.7118    -0.6955 H       
  54 H54           -0.4159    -0.7551     8.2861 H       
  55 H55           -0.3687    -2.5421     8.4182 H       
  56 H56            4.0201    -0.4047     7.9022 H       
  57 H57            0.9819    -0.7725     4.0364 H       
  58 H58            5.5478     1.4433     3.6364 H       
  59 H59            5.6274    -0.3477     3.7280 H       
  60 H60            3.2345     3.0882     4.8247 H       
  61 H61            2.2617     5.0237     3.6497 H       
  62 H62            1.5549     4.8064     1.3017 H       
  63 H63            1.8155     2.6681     0.1244 H       
@<TRIPOS>BOND
   1    1    2 1
   2    1    8 2
   3    1    9 am
   4    2    3 ar
   5    2    7 ar
   6    3    4 ar
   7    3   16 1
   8    4    5 ar
   9    4   38 1
  10    5    6 ar
  11    5   39 1
  12    6    7 ar
  13    6   40 1
  14    7   41 1
  15    9   10 1
  16    9   42 1
  17   10   12 1
  18   10   43 1
  19   10   44 1
  20   11   12 1
  21   11   15 1
  22   12   13 1
  23   12   45 1
  24   13   14 1
  25   13   46 1
  26   13   47 1
  27   14   15 1
  28   14   48 1
  29   14   49 1
  30   15   50 1
  31   15   51 1
  32   16   29 1
  33   16   52 1
  34   16   53 1
  35   17   18 1
  36   17   21 1
  37   18   19 1
  38   18   54 1
  39   18   55 1
  40   19   20 1
  41   20   21 ar
  42   20   22 ar
  43   21   25 ar
  44   22   23 ar
  45   22   56 1
  46   23   24 ar
  47   23   26 1
  48   24   25 ar
  49   24   27 1
  50   25   57 1
  51   26   28 1
  52   27   28 1
  53   27   30 1
  54   27   31 1
  55   28   58 1
  56   28   59 1
  57   29   30 am
  58   29   36 1
  59   30   37 2
  60   31   32 ar
  61   31   36 ar
  62   32   33 ar
  63   32   60 1
  64   33   34 ar
  65   33   61 1
  66   34   35 ar
  67   34   62 1
  68   35   36 ar
  69   35   63 1

#	End of record

