#	Name: ASD01230444
#	Creating user name:	WinNT
#	Creation time:	15. 06. 2019 19:14

#	Modifying user name:	WinNT
#	Modification time:	15. 06. 2019 19:14

#	Program:	/corina/corina34_cracker 3.40 0067  02.08.2006

@<TRIPOS>MOLECULE
ASD01230444
  40   42    0    0    0
SMALL
NO_CHARGES


@<TRIPOS>ATOM
   1 C1             0.2514     1.0304     0.4545 C.3     
   2 C2            -0.3224    -0.3800     0.6049 C.3     
   3 C3            -0.0208    -0.9061     2.0096 C.3     
   4 C4             1.4934    -0.9459     2.2250 C.3     
   5 C5             2.0672     0.4644     2.0746 C.3     
   6 C6             1.7656     0.9906     0.6700 C.3     
   7 O7            -0.0303     1.5218    -0.8574 O.3     
   8 C8             1.7905    -1.4642     3.6086 C.ar    
   9 C9             2.5785    -2.5883     3.7712 C.ar    
  10 C10            2.8509    -3.0637     5.0403 C.ar    
  11 C11            2.3358    -2.4148     6.1468 C.ar    
  12 C12            1.5486    -1.2902     5.9843 C.ar    
  13 C13            1.2797    -0.8122     4.7153 C.ar    
  14 C14           -1.7621     2.0421     1.5746 C.ar    
  15 C15           -0.3779     1.9405     1.4777 C.ar    
  16 C16            0.4127     2.6856     2.3334 C.ar    
  17 C17           -0.2097     3.5108     3.2611 C.ar    
  18 C18           -1.5883     3.5629     3.3019 C.ar    
  19 N19           -2.3178     2.8402     2.4730 N.ar    
  20 N20           -2.5688     1.3033     0.7169 N.pl3   
  21 H21           -1.4012    -0.3516     0.4514 H       
  22 H22            0.1327    -1.0382    -0.1351 H       
  23 H23           -0.4759    -0.2479     2.7496 H       
  24 H24           -0.4296    -1.9109     2.1167 H       
  25 H25            1.9485    -1.6042     1.4850 H       
  26 H26            1.6121     1.1227     2.8147 H       
  27 H27            3.1460     0.4360     2.2281 H       
  28 H28            2.2207     0.3323    -0.0701 H       
  29 H29            2.1744     1.9953     0.5628 H       
  30 H30            0.3051     2.4134    -1.0239 H       
  31 H31            2.9809    -3.0953     2.9067 H       
  32 H32            3.4660    -3.9423     5.1673 H       
  33 H33            2.5481    -2.7866     7.1383 H       
  34 H34            1.1458    -0.7834     6.8488 H       
  35 H35            0.6677     0.0686     4.5885 H       
  36 H36            1.4899     2.6269     2.2817 H       
  37 H37            0.3791     4.1053     3.9439 H       
  38 H38           -2.0764     4.2033     4.0218 H       
  39 H39           -2.2144     0.9847    -0.1279 H       
  40 H40           -3.4860     1.1063     0.9633 H       
@<TRIPOS>BOND
   1    1    2 1
   2    1    6 1
   3    1    7 1
   4    1   15 1
   5    2    3 1
   6    2   21 1
   7    2   22 1
   8    3    4 1
   9    3   23 1
  10    3   24 1
  11    4    5 1
  12    4    8 1
  13    4   25 1
  14    5    6 1
  15    5   26 1
  16    5   27 1
  17    6   28 1
  18    6   29 1
  19    7   30 1
  20    8    9 ar
  21    8   13 ar
  22    9   10 ar
  23    9   31 1
  24   10   11 ar
  25   10   32 1
  26   11   12 ar
  27   11   33 1
  28   12   13 ar
  29   12   34 1
  30   13   35 1
  31   14   15 ar
  32   14   19 ar
  33   14   20 1
  34   15   16 ar
  35   16   17 ar
  36   16   36 1
  37   17   18 ar
  38   17   37 1
  39   18   19 ar
  40   18   38 1
  41   20   39 1
  42   20   40 1

#	End of record

