#	Name: ASD04910467
#	Creating user name:	WinNT
#	Creation time:	15. 06. 2019 20:55

#	Modifying user name:	WinNT
#	Modification time:	15. 06. 2019 20:55

#	Program:	/corina/corina34_cracker 3.40 0067  02.08.2006

@<TRIPOS>MOLECULE
ASD04910467
  56   58    0    0    0
SMALL
NO_CHARGES


@<TRIPOS>ATOM
   1 C1            -0.1268     1.4750     0.1080 C.2     
   2 C2            -0.0891    -0.0314     0.0880 C.3     
   3 C3             1.3653    -0.5048     0.0523 C.3     
   4 O4             0.9040     2.1052     0.0951 O.2     
   5 O5            -1.3055     2.1166     0.1347 O.3     
   6 C6             2.5853    -2.6134     0.0004 C.2     
   7 C7             2.6222    -4.0913    -0.0193 C.ar    
   8 C8             3.8461    -4.7615    -0.0528 C.ar    
   9 C9             3.8735    -6.1407    -0.0706 C.ar    
  10 C10            2.6913    -6.8594    -0.0557 C.ar    
  11 C11            1.4748    -6.2012    -0.0225 C.ar    
  12 C12            1.4334    -4.8224     0.0014 C.ar    
  13 O13            3.6223    -1.9794    -0.0126 O.2     
  14 N14            1.4019    -1.9693     0.0327 N.am    
  15 C15            2.7289    -8.3658    -0.0763 C.3     
  16 C16            2.5205    -8.9006     1.3420 C.3     
  17 C17            2.6825   -10.4220     1.3423 C.3     
  18 C18            2.4741   -10.9567     2.7606 C.3     
  19 O19            1.6915    -8.8566    -0.9276 O.3     
  20 C20            2.4720   -12.2242    -3.0140 C.ar    
  21 N21            3.4326   -11.6818    -2.2839 N.ar    
  22 C22            3.2138   -10.5790    -1.5875 C.ar    
  23 C23            1.9544    -9.9905    -1.6305 C.ar    
  24 C24            0.9702   -10.5899    -2.4092 C.ar    
  25 N25            1.2624   -11.6924    -3.0788 N.ar    
  26 N26            2.7435   -13.3854    -3.7400 N.pl3   
  27 N27            3.9675   -14.0656    -3.7817 N.2     
  28 C28            3.8329   -15.1034    -4.5663 C.2     
  29 C29            2.5204   -15.1220    -5.0523 C.2     
  30 C30            1.8660   -14.0609    -4.5276 C.2     
  31 C31            1.9370   -16.1476    -5.9899 C.3     
  32 F32            2.9143   -17.0960    -6.3100 F       
  33 F33            0.8553   -16.7832    -5.3711 F       
  34 F34            1.5000   -15.5155    -7.1589 F       
  35 H35           -0.5755    -0.4190     0.9831 H       
  36 H36           -0.6118    -0.3962    -0.7963 H       
  37 H37            1.8517    -0.1173    -0.8429 H       
  38 H38            1.8879    -0.1401     0.9365 H       
  39 H39           -1.2790     3.0832     0.1468 H       
  40 H40            4.7695    -4.2016    -0.0652 H       
  41 H41            4.8198    -6.6605    -0.0965 H       
  42 H42            0.5556    -6.7681    -0.0110 H       
  43 H43            0.4833    -4.3099     0.0318 H       
  44 H44            0.5744    -2.4753     0.0431 H       
  45 H45            3.6959    -8.7000    -0.4521 H       
  46 H46            3.2586    -8.4565     2.0099 H       
  47 H47            1.5185    -8.6418     1.6843 H       
  48 H48            1.9444   -10.8661     0.6745 H       
  49 H49            3.6844   -10.6808     1.0000 H       
  50 H50            2.5894   -12.0406     2.7608 H       
  51 H51            3.2122   -10.5126     3.4285 H       
  52 H52            1.4721   -10.6979     3.1029 H       
  53 H53            4.0023   -10.1415    -0.9932 H       
  54 H54           -0.0194   -10.1610    -2.4662 H       
  55 H55            4.6036   -15.8231    -4.8000 H       
  56 H56            0.8340   -13.7967    -4.7048 H       
@<TRIPOS>BOND
   1    1    2 1
   2    1    4 2
   3    1    5 1
   4    2    3 1
   5    2   35 1
   6    2   36 1
   7    3   14 1
   8    3   37 1
   9    3   38 1
  10    5   39 1
  11    6    7 1
  12    6   13 2
  13    6   14 am
  14    7    8 ar
  15    7   12 ar
  16    8    9 ar
  17    8   40 1
  18    9   10 ar
  19    9   41 1
  20   10   11 ar
  21   10   15 1
  22   11   12 ar
  23   11   42 1
  24   12   43 1
  25   14   44 1
  26   15   16 1
  27   15   19 1
  28   15   45 1
  29   16   17 1
  30   16   46 1
  31   16   47 1
  32   17   18 1
  33   17   48 1
  34   17   49 1
  35   18   50 1
  36   18   51 1
  37   18   52 1
  38   19   23 1
  39   20   21 ar
  40   20   25 ar
  41   20   26 1
  42   21   22 ar
  43   22   23 ar
  44   22   53 1
  45   23   24 ar
  46   24   25 ar
  47   24   54 1
  48   26   27 1
  49   26   30 1
  50   27   28 2
  51   28   29 1
  52   28   55 1
  53   29   30 2
  54   29   31 1
  55   30   56 1
  56   31   32 1
  57   31   33 1
  58   31   34 1

#	End of record

