#	Name: ASD01948288
#	Creating user name:	WinNT
#	Creation time:	15. 06. 2019 20:14

#	Modifying user name:	WinNT
#	Modification time:	15. 06. 2019 20:14

#	Program:	/corina/corina34_cracker 3.40 0067  02.08.2006

@<TRIPOS>MOLECULE
ASD01948288
  45   47    0    0    0
SMALL
NO_CHARGES


@<TRIPOS>ATOM
   1 C1             0.8895     3.8050     2.5535 C.ar    
   2 C2             1.5092     3.2331     3.6507 C.ar    
   3 C3             2.6632     2.4887     3.4871 C.ar    
   4 C4             3.2019     2.3132     2.2268 C.ar    
   5 C5             2.5838     2.8846     1.1231 C.ar    
   6 C6             1.4229     3.6331     1.2898 C.ar    
   7 N7             4.3592     0.7264    -0.5845 N.am    
   8 C8             4.3356     2.0611    -0.3062 C.2     
   9 N9             3.1274     2.7089    -0.1540 N.pl3   
  10 C10            5.5264     0.0741    -0.7370 C.2     
  11 C11            6.7399     0.7560    -0.6122 C.2     
  12 C12            6.7371     2.1076    -0.3302 C.2     
  13 C13            5.5169     2.7688    -0.1751 C.2     
  14 N14            5.4893     4.1462     0.1122 N.am    
  15 I15            0.6977     3.4960     5.5642 I       
  16 O16            5.5251    -1.1223    -0.9858 O.2     
  17 F17            0.8176     4.1906     0.2183 F       
  18 C18            3.0980    -0.0078    -0.7133 C.3     
  19 S19            6.9011     5.0103     0.1614 S.o2    
  20 O20            6.4893     6.3378     0.4567 O.2     
  21 O21            7.7265     4.2822     1.0602 O.2     
  22 C22            7.5539     4.9072    -1.5279 C.3     
  23 C23            8.0438     0.0202    -0.7835 C.3     
  24 C24            8.8586     5.6481    -1.8275 C.3     
  25 C25            8.8494     4.1208    -1.7379 C.3     
  26 C26            2.5725     0.1279    -2.1438 C.3     
  27 H27           -0.0138     4.3823     2.6841 H       
  28 H28            3.1442     2.0441     4.3457 H       
  29 H29            4.1036     1.7323     2.1007 H       
  30 H30            2.6546     3.0426    -0.9325 H       
  31 H31            7.6675     2.6470    -0.2307 H       
  32 H32            4.6432     4.5894     0.2815 H       
  33 H33            3.2658    -1.0607    -0.4862 H       
  34 H34            2.3663     0.4019    -0.0170 H       
  35 H35            6.8056     4.8656    -2.3194 H       
  36 H36            8.3441     0.0520    -1.8308 H       
  37 H37            8.8112     0.4934    -0.1710 H       
  38 H38            7.9192    -1.0171    -0.4726 H       
  39 H39            8.9687     6.0936    -2.8162 H       
  40 H40            9.3246     6.1975    -1.0096 H       
  41 H41            9.3094     3.6653    -0.8610 H       
  42 H42            8.9535     3.5615    -2.6676 H       
  43 H43            2.3209     1.1700    -2.3410 H       
  44 H44            3.3398    -0.1997    -2.8453 H       
  45 H45            1.6826    -0.4898    -2.2641 H       
@<TRIPOS>BOND
   1    1    2 ar
   2    1    6 ar
   3    1   27 1
   4    2    3 ar
   5    2   15 1
   6    3    4 ar
   7    3   28 1
   8    4    5 ar
   9    4   29 1
  10    5    6 ar
  11    5    9 1
  12    6   17 1
  13    7    8 1
  14    7   10 am
  15    7   18 1
  16    8    9 1
  17    8   13 2
  18    9   30 1
  19   10   11 1
  20   10   16 2
  21   11   12 2
  22   11   23 1
  23   12   13 1
  24   12   31 1
  25   13   14 1
  26   14   19 am
  27   14   32 1
  28   18   26 1
  29   18   33 1
  30   18   34 1
  31   19   20 2
  32   19   21 2
  33   19   22 1
  34   22   24 1
  35   22   25 1
  36   22   35 1
  37   23   36 1
  38   23   37 1
  39   23   38 1
  40   24   25 1
  41   24   39 1
  42   24   40 1
  43   25   41 1
  44   25   42 1
  45   26   43 1
  46   26   44 1
  47   26   45 1

#	End of record

