#	Name: ASD01420141
#	Creating user name:	WinNT
#	Creation time:	15. 06. 2019 19:20

#	Modifying user name:	WinNT
#	Modification time:	15. 06. 2019 19:20

#	Program:	/corina/corina34_cracker 3.40 0067  02.08.2006

@<TRIPOS>MOLECULE
ASD01420141
  79   82    0    0    0
SMALL
NO_CHARGES


@<TRIPOS>ATOM
   1 C1             1.7908     1.3996     1.0291 C.ar    
   2 C2             1.8133     0.0184     1.0240 C.ar    
   3 C3             1.2128    -0.6801    -0.0134 C.ar    
   4 C4             0.5911     0.0109    -1.0433 C.ar    
   5 C5             0.5714     1.3921    -1.0336 C.ar    
   6 C6             1.1706     2.0859     0.0015 C.ar    
   7 C7             1.1472     3.5927     0.0099 C.3     
   8 C8             2.5557     4.1164     0.1232 C.ar    
   9 C9             0.5173     4.1002    -1.2888 C.3     
  10 C10            0.3232     4.0834     1.2020 C.3     
  11 C11            3.5142     3.7226    -0.7922 C.ar    
  12 C12            2.8860     4.9943     1.1390 C.ar    
  13 C13            4.1763     5.4762     1.2448 C.ar    
  14 C14            5.1412     5.0784     0.3306 C.ar    
  15 C15            4.8059     4.2015    -0.6908 C.ar    
  16 O16            6.4113     5.5510     0.4326 O.3     
  17 C17            7.3520     5.0986    -0.5433 C.3     
  18 C18            8.7170     5.7328    -0.2682 C.3     
  19 C19            9.7523     5.1541    -1.2347 C.3     
  20 O20            8.6310     7.1472    -0.4532 O.3     
  21 N21           11.0839     5.6723    -0.8937 N.3     
  22 O22            1.2339    -2.0389    -0.0209 O.3     
  23 C23            0.5958    -2.6916    -1.1204 C.3     
  24 C24            0.7214    -4.2076    -0.9563 C.3     
  25 C25           -0.0673    -4.9076    -2.0648 C.3     
  26 O26            2.0975    -4.5834    -1.0405 O.3     
  27 N27           -0.0463    -6.3590    -1.8390 N.3     
  28 C28           -0.9833    -7.0460    -2.7398 C.3     
  29 C29           -0.8860    -8.5569    -2.5129 C.3     
  30 O30           -1.1481    -8.8451    -1.1368 O.3     
  31 C31           -0.2536    -8.1928    -0.2314 C.3     
  32 C32           -0.3445    -6.6782    -0.4352 C.3     
  33 C33           11.5229     5.1743     0.4180 C.3     
  34 C34           12.0643     5.3318    -1.9349 C.3     
  35 C35           13.4208     5.9403    -1.5697 C.3     
  36 O36           13.8167     5.4695    -0.2785 O.3     
  37 C37           12.8849     5.7844     0.7597 C.3     
  38 H38            2.2543     1.9438     1.8388 H       
  39 H39            2.2982    -0.5173     1.8267 H       
  40 H40            0.1232    -0.5306    -1.8522 H       
  41 H41            0.0876     1.9305    -1.8351 H       
  42 H42           -0.5015     3.7215    -1.3708 H       
  43 H43            0.5004     5.1901    -1.2828 H       
  44 H44            1.1043     3.7507    -2.1382 H       
  45 H45            0.7719     3.7218     2.1273 H       
  46 H46            0.3063     5.1732     1.2081 H       
  47 H47           -0.6956     3.7046     1.1201 H       
  48 H48            3.2528     3.0396    -1.5870 H       
  49 H49            2.1345     5.3039     1.8502 H       
  50 H50            4.4338     6.1622     2.0382 H       
  51 H51            5.5543     3.8933    -1.4059 H       
  52 H52            7.4381     4.0134    -0.4893 H       
  53 H53            7.0112     5.3870    -1.5377 H       
  54 H54            9.0174     5.5181     0.7573 H       
  55 H55            9.7545     4.0669    -1.1566 H       
  56 H56            9.4996     5.4446    -2.2545 H       
  57 H57            8.3679     7.4120    -1.3452 H       
  58 H58           -0.4583    -2.4149    -1.1452 H       
  59 H59            1.0736    -2.3861    -2.0513 H       
  60 H60            0.3230    -4.5021     0.0146 H       
  61 H61           -1.0981    -4.5535    -2.0566 H       
  62 H62            0.3861    -4.6836    -3.0304 H       
  63 H63            2.5179    -4.3515    -1.8799 H       
  64 H64           -1.9996    -6.7114    -2.5318 H       
  65 H65           -0.7283    -6.8161    -3.7743 H       
  66 H66           -1.6194    -9.0668    -3.1376 H       
  67 H67            0.1155    -8.9002    -2.7723 H       
  68 H68           -0.5296    -8.4393     0.7938 H       
  69 H69            0.7663    -8.5254    -0.4245 H       
  70 H70            0.3767    -6.1798     0.2125 H       
  71 H71           -1.3506    -6.3377    -0.1904 H       
  72 H72           10.7954     5.4597     1.1778 H       
  73 H73           11.6087     4.0882     0.3850 H       
  74 H74           12.1587     4.2482    -2.0056 H       
  75 H75           11.7319     5.7320    -2.8927 H       
  76 H76           14.1642     5.6428    -2.3092 H       
  77 H77           13.3392     7.0271    -1.5515 H       
  78 H78           12.7877     6.8667     0.8456 H       
  79 H79           13.2407     5.3742     1.7048 H       
@<TRIPOS>BOND
   1    1    2 ar
   2    1    6 ar
   3    1   38 1
   4    2    3 ar
   5    2   39 1
   6    3    4 ar
   7    3   22 1
   8    4    5 ar
   9    4   40 1
  10    5    6 ar
  11    5   41 1
  12    6    7 1
  13    7    8 1
  14    7    9 1
  15    7   10 1
  16    8   12 ar
  17    8   11 ar
  18    9   42 1
  19    9   43 1
  20    9   44 1
  21   10   45 1
  22   10   46 1
  23   10   47 1
  24   11   15 ar
  25   11   48 1
  26   12   13 ar
  27   12   49 1
  28   13   14 ar
  29   13   50 1
  30   14   15 ar
  31   14   16 1
  32   15   51 1
  33   16   17 1
  34   17   18 1
  35   17   52 1
  36   17   53 1
  37   18   19 1
  38   18   20 1
  39   18   54 1
  40   19   21 1
  41   19   55 1
  42   19   56 1
  43   20   57 1
  44   21   34 1
  45   21   33 1
  46   22   23 1
  47   23   24 1
  48   23   58 1
  49   23   59 1
  50   24   25 1
  51   24   26 1
  52   24   60 1
  53   25   27 1
  54   25   61 1
  55   25   62 1
  56   26   63 1
  57   27   28 1
  58   27   32 1
  59   28   29 1
  60   28   64 1
  61   28   65 1
  62   29   30 1
  63   29   66 1
  64   29   67 1
  65   30   31 1
  66   31   32 1
  67   31   68 1
  68   31   69 1
  69   32   70 1
  70   32   71 1
  71   33   37 1
  72   33   72 1
  73   33   73 1
  74   34   35 1
  75   34   74 1
  76   34   75 1
  77   35   36 1
  78   35   76 1
  79   35   77 1
  80   36   37 1
  81   37   78 1
  82   37   79 1

#	End of record

