#	Name: ASD01412021
#	Creating user name:	WinNT
#	Creation time:	15. 06. 2019 19:19

#	Modifying user name:	WinNT
#	Modification time:	15. 06. 2019 19:19

#	Program:	/corina/corina34_cracker 3.40 0067  02.08.2006

@<TRIPOS>MOLECULE
ASD01412021
  84   89    0    0    0
SMALL
NO_CHARGES


@<TRIPOS>ATOM
   1 C1            -1.1722     3.2494    -0.6265 C.ar    
   2 C2            -0.9749     1.9108    -1.0223 C.ar    
   3 C3            -2.0433     1.0033    -0.9788 C.ar    
   4 C4            -3.2694     1.4147    -0.5547 C.ar    
   5 C5            -3.4751     2.7445    -0.1590 C.ar    
   6 C6            -2.4233     3.6581    -0.1917 C.ar    
   7 N7             0.0353     3.9013    -0.7715 N.pl3   
   8 C8             0.9672     3.0072    -1.2432 C.2     
   9 C9             0.3829     1.7925    -1.4046 C.2     
  10 C10            1.0595     0.5410    -1.9017 C.3     
  11 C11            0.9719    -0.5465    -0.8291 C.3     
  12 C12            1.6587    -1.8171    -1.3338 C.3     
  13 C13            0.9638    -2.3006    -2.6082 C.3     
  14 C14            1.0515    -1.2131    -3.6809 C.3     
  15 C15            0.3646     0.0575    -3.1762 C.3     
  16 C16           -4.8095     3.1768     0.2986 C.2     
  17 O17           -4.9907     4.3290     0.6422 O.2     
  18 N18           -5.8277     2.2945     0.3356 N.am    
  19 C19           -7.1527     2.7237     0.7899 C.3     
  20 C20           -8.1045     1.5566     0.7363 C.2     
  21 C21           -7.0570     3.2382     2.2276 C.3     
  22 C22           -7.6658     3.8424    -0.1190 C.3     
  23 C23           -8.8165    -0.4855    -0.2458 C.ar    
  24 O24           -8.9739     1.4442     1.5744 O.2     
  25 C25           -9.1910    -1.0743     0.9583 C.ar    
  26 C26          -10.0110    -2.1794     0.9605 C.ar    
  27 C27          -10.4689    -2.7112    -0.2511 C.ar    
  28 C28          -10.0898    -2.1151    -1.4600 C.ar    
  29 C29           -9.2691    -1.0106    -1.4525 C.ar    
  30 C30          -11.3442    -3.8914    -0.2539 C.2     
  31 C31          -12.3911    -3.9580     0.5974 C.2     
  32 N32           -7.9896     0.6376    -0.2429 N.am    
  33 C33            0.2835     5.3137    -0.4721 C.3     
  34 N34            4.6624     2.6998    -1.3432 N.ar    
  35 C35            3.4014     2.4478    -1.1035 C.ar    
  36 C36            2.3834     3.3195    -1.5292 C.ar    
  37 C37            2.7194     4.4765    -2.2213 C.ar    
  38 C38            4.0805     4.7256    -2.4673 C.ar    
  39 C39            5.0469     3.7971    -2.0050 C.ar    
  40 C40            6.4073     4.0491    -2.2525 C.ar    
  41 C41            6.7756     5.1722    -2.9275 C.ar    
  42 C42            5.8241     6.0837    -3.3811 C.ar    
  43 C43            4.4971     5.8749    -3.1605 C.ar    
  44 C44          -12.7888    -2.8069     1.3234 C.2     
  45 O45          -12.2150    -1.7487     1.1478 O.2     
  46 O46          -13.8039    -2.8851     2.2090 O.3     
  47 H47           -1.8931    -0.0223    -1.2822 H       
  48 H48           -4.0895     0.7127    -0.5231 H       
  49 H49           -2.5840     4.6815     0.1135 H       
  50 H50            2.1062     0.7551    -2.1175 H       
  51 H51            1.4669    -0.2020     0.0789 H       
  52 H52           -0.0749    -0.7606    -0.6133 H       
  53 H53            2.7055    -1.6031    -1.5495 H       
  54 H54            1.5963    -2.5919    -0.5696 H       
  55 H55            1.4532    -3.2058    -2.9678 H       
  56 H56           -0.0829    -2.5147    -2.3925 H       
  57 H57            2.0982    -0.9991    -3.8966 H       
  58 H58            0.5564    -1.5576    -4.5888 H       
  59 H59           -0.6822    -0.1566    -2.9604 H       
  60 H60            0.4270     0.8323    -3.9403 H       
  61 H61           -5.6832     1.3753     0.0614 H       
  62 H62           -6.3685     4.0824     2.2663 H       
  63 H63           -8.0428     3.5575     2.5656 H       
  64 H64           -6.6914     2.4412     2.8751 H       
  65 H65           -7.7340     3.4759    -1.1433 H       
  66 H66           -8.6517     4.1617     0.2190 H       
  67 H67           -6.9774     4.6866    -0.0803 H       
  68 H68           -8.8373    -0.6635     1.8924 H       
  69 H69          -10.3005    -2.6362     1.8954 H       
  70 H70          -10.4404    -2.5221    -2.3969 H       
  71 H71           -8.9765    -0.5500    -2.3845 H       
  72 H72          -11.1506    -4.7056    -0.9365 H       
  73 H73          -12.9251    -4.8880     0.7250 H       
  74 H74           -7.3318     0.7574    -0.9456 H       
  75 H75            0.5956     5.4154     0.5673 H       
  76 H76            1.0697     5.6911    -1.1260 H       
  77 H77           -0.6300     5.8856    -0.6347 H       
  78 H78            3.1359     1.5497    -0.5656 H       
  79 H79            1.9579     5.1632    -2.5601 H       
  80 H80            7.1583     3.3536    -1.9079 H       
  81 H81            7.8226     5.3603    -3.1142 H       
  82 H82            6.1435     6.9671    -3.9138 H       
  83 H83            3.7685     6.5881    -3.5169 H       
  84 H84          -14.0022    -2.0502     2.6547 H       
@<TRIPOS>BOND
   1    1    2 ar
   2    1    7 1
   3    1    6 ar
   4    2    3 ar
   5    2    9 1
   6    3    4 ar
   7    3   47 1
   8    4    5 ar
   9    4   48 1
  10    5    6 ar
  11    5   16 1
  12    6   49 1
  13    7    8 1
  14    7   33 1
  15    8    9 2
  16    8   36 1
  17    9   10 1
  18   10   11 1
  19   10   15 1
  20   10   50 1
  21   11   12 1
  22   11   51 1
  23   11   52 1
  24   12   13 1
  25   12   53 1
  26   12   54 1
  27   13   14 1
  28   13   55 1
  29   13   56 1
  30   14   15 1
  31   14   57 1
  32   14   58 1
  33   15   59 1
  34   15   60 1
  35   16   17 2
  36   16   18 am
  37   18   19 1
  38   18   61 1
  39   19   20 1
  40   19   21 1
  41   19   22 1
  42   20   24 2
  43   20   32 am
  44   21   62 1
  45   21   63 1
  46   21   64 1
  47   22   65 1
  48   22   66 1
  49   22   67 1
  50   23   25 ar
  51   23   29 ar
  52   23   32 1
  53   25   26 ar
  54   25   68 1
  55   26   27 ar
  56   26   69 1
  57   27   28 ar
  58   27   30 1
  59   28   29 ar
  60   28   70 1
  61   29   71 1
  62   30   31 2
  63   30   72 1
  64   31   44 1
  65   31   73 1
  66   32   74 1
  67   33   75 1
  68   33   76 1
  69   33   77 1
  70   34   35 ar
  71   34   39 ar
  72   35   36 ar
  73   35   78 1
  74   36   37 ar
  75   37   38 ar
  76   37   79 1
  77   38   39 ar
  78   38   43 ar
  79   39   40 ar
  80   40   41 ar
  81   40   80 1
  82   41   42 ar
  83   41   81 1
  84   42   43 ar
  85   42   82 1
  86   43   83 1
  87   44   45 2
  88   44   46 1
  89   46   84 1

#	End of record

