#	Name: ASD09890105
#	Creating user name:	WinNT
#	Creation time:	15. 06. 2019 21:24

#	Modifying user name:	WinNT
#	Modification time:	15. 06. 2019 21:24

#	Program:	/corina/corina34_cracker 3.40 0067  02.08.2006

@<TRIPOS>MOLECULE
ASD09890105
  56   60    0    0    0
SMALL
NO_CHARGES


@<TRIPOS>ATOM
   1 C1            -0.0176     1.3672     0.0647 C.2     
   2 N2            -0.0056    -0.0001     0.0346 N.pl3   
   3 C3            -1.2997    -0.4350     0.1186 C.2     
   4 N4            -2.0758     0.6195     0.1972 N.2     
   5 N5            -1.2619     1.7594     0.1686 N.2     
   6 S6            -1.8306    -2.1151     0.1204 S.3     
   7 C7            -3.6341    -1.9731     0.2538 C.3     
   8 C8             1.1332    -0.8132    -0.0650 C.ar    
   9 C9             2.0781    -0.8331     0.9568 C.ar    
  10 C10            3.1863    -1.6522     0.8128 C.ar    
  11 C11            3.3165    -2.4167    -0.3314 C.ar    
  12 N12            2.4030    -2.3746    -1.2817 N.ar    
  13 C13            1.3313    -1.6140    -1.1815 C.ar    
  14 C14           -4.2819    -3.3645     0.1440 C.3     
  15 C15           -5.0381    -3.6042     1.4671 C.3     
  16 C16           -5.3145    -2.1801     2.0100 C.3     
  17 C17           -4.0192    -1.4158     1.6398 C.3     
  18 O18            1.0701     2.1752     0.0035 O.3     
  19 C19            0.8650     3.5149    -0.0919 C.ar    
  20 C20           -0.4191     4.0073    -0.2838 C.ar    
  21 C21           -0.6303     5.3666    -0.3815 C.ar    
  22 C22            0.4467     6.2465    -0.2869 C.ar    
  23 C23            1.7347     5.7492    -0.0937 C.ar    
  24 C24            1.9390     4.3892     0.0084 C.ar    
  25 C25            0.2229     7.7090    -0.3920 C.ar    
  26 C26            1.3006     8.5887    -0.2973 C.ar    
  27 C27            1.0905     9.9474    -0.3952 C.ar    
  28 C28           -0.1953    10.4411    -0.5878 C.ar    
  29 C29           -1.2714     9.5652    -0.6826 C.ar    
  30 C30           -1.0646     8.2055    -0.5914 C.ar    
  31 S31           -0.4613    12.1785    -0.7115 S.3     
  32 C32           -2.2553    12.3006    -0.9513 C.3     
  33 H33           -4.0160    -1.3204    -0.5312 H       
  34 H34            1.9507    -0.2247     1.8400 H       
  35 H35            3.9398    -1.6927     1.5854 H       
  36 H36            4.1782    -3.0570    -0.4489 H       
  37 H37            0.6047    -1.6063    -1.9805 H       
  38 H38           -4.9789    -3.3868    -0.6937 H       
  39 H39           -3.5126    -4.1251     0.0106 H       
  40 H40           -5.9746    -4.1301     1.2813 H       
  41 H41           -4.4167    -4.1647     2.1655 H       
  42 H42           -6.1788    -1.7386     1.5138 H       
  43 H43           -5.4562    -2.1994     3.0905 H       
  44 H44           -3.2333    -1.6229     2.3661 H       
  45 H45           -4.2121    -0.3447     1.5801 H       
  46 H46           -1.2531     3.3251    -0.3571 H       
  47 H47           -1.6292     5.7489    -0.5315 H       
  48 H48            2.5710     6.4285    -0.0200 H       
  49 H49            2.9365     4.0034     0.1584 H       
  50 H50            2.2991     8.2057    -0.1470 H       
  51 H51            1.9250    10.6291    -0.3219 H       
  52 H52           -2.2692     9.9505    -0.8322 H       
  53 H53           -1.9005     7.5257    -0.6653 H       
  54 H54           -2.7670    11.8582    -0.0966 H       
  55 H55           -2.5392    13.3490    -1.0420 H       
  56 H56           -2.5376    11.7678    -1.8594 H       
@<TRIPOS>BOND
   1    1    2 1
   2    1   18 1
   3    1    5 2
   4    2    3 1
   5    2    8 1
   6    3    4 2
   7    3    6 1
   8    4    5 1
   9    6    7 1
  10    7   14 1
  11    7   17 1
  12    7   33 1
  13    8    9 ar
  14    8   13 ar
  15    9   10 ar
  16    9   34 1
  17   10   11 ar
  18   10   35 1
  19   11   12 ar
  20   11   36 1
  21   12   13 ar
  22   13   37 1
  23   14   15 1
  24   14   38 1
  25   14   39 1
  26   15   16 1
  27   15   40 1
  28   15   41 1
  29   16   17 1
  30   16   42 1
  31   16   43 1
  32   17   44 1
  33   17   45 1
  34   18   19 1
  35   19   20 ar
  36   19   24 ar
  37   20   21 ar
  38   20   46 1
  39   21   22 ar
  40   21   47 1
  41   22   23 ar
  42   22   25 1
  43   23   24 ar
  44   23   48 1
  45   24   49 1
  46   25   26 ar
  47   25   30 ar
  48   26   27 ar
  49   26   50 1
  50   27   28 ar
  51   27   51 1
  52   28   29 ar
  53   28   31 1
  54   29   30 ar
  55   29   52 1
  56   30   53 1
  57   31   32 1
  58   32   54 1
  59   32   55 1
  60   32   56 1

#	End of record

