#	Name: ASD08830162
#	Creating user name:	WinNT
#	Creation time:	15. 06. 2019 21:19

#	Modifying user name:	WinNT
#	Modification time:	15. 06. 2019 21:19

#	Program:	/corina/corina34_cracker 3.40 0067  02.08.2006

@<TRIPOS>MOLECULE
ASD08830162
  37   40    0    0    0
SMALL
NO_CHARGES


@<TRIPOS>ATOM
   1 C1             0.0659     1.3575    -0.0130 C.ar    
   2 C2             0.1365    -0.0342    -0.0464 C.ar    
   3 C3             2.5652     0.1201    -0.1144 C.ar    
   4 C4             2.4649     1.5222    -0.0800 C.ar    
   5 C5             1.3848    -0.6666    -0.0973 C.ar    
   6 C6             1.2454     2.1235    -0.0306 C.ar    
   7 C7             1.4901    -2.0689    -0.1314 C.ar    
   8 C8             2.7195    -2.6512    -0.1802 C.ar    
   9 C9             3.8783    -1.8780    -0.1971 C.ar    
  10 C10            3.8149    -0.5178    -0.1651 C.ar    
  11 C11            0.8901     3.5918     0.0124 C.3     
  12 C12           -0.6415     3.6654     0.0594 C.3     
  13 C13           -1.1161     2.2334     0.0475 C.2     
  14 O14           -2.2718     1.8671     0.0752 O.2     
  15 N15            1.4618     4.2139     1.2142 N.3     
  16 C16            0.9894     3.5394     2.4321 C.3     
  17 C17            1.1532     5.6506     1.2613 C.3     
  18 C18            1.8164     6.2692     2.4947 C.3     
  19 O19            1.3694     5.5807     3.6659 O.3     
  20 C20            1.6542     4.1793     3.6538 C.3     
  21 H21           -0.7688    -0.6229    -0.0326 H       
  22 H22            3.3608     2.1251    -0.0929 H       
  23 H23            0.6001    -2.6804    -0.1185 H       
  24 H24            2.7978    -3.7280    -0.2060 H       
  25 H25            4.8417    -2.3646    -0.2357 H       
  26 H26            4.7223     0.0678    -0.1791 H       
  27 H27            1.2614     4.0929    -0.8815 H       
  28 H28           -0.9672     4.1592     0.9749 H       
  29 H29           -1.0201     4.1988    -0.8125 H       
  30 H30           -0.0927     3.6444     2.5098 H       
  31 H31            1.2510     2.4822     2.3873 H       
  32 H32            1.5343     6.1344     0.3620 H       
  33 H33            0.0737     5.7892     1.3203 H       
  34 H34            2.8992     6.1781     2.4100 H       
  35 H35            1.5434     7.3222     2.5651 H       
  36 H36            1.2640     3.7207     4.5624 H       
  37 H37            2.7323     4.0274     3.6028 H       
@<TRIPOS>BOND
   1    1    2 ar
   2    1    6 ar
   3    1   13 1
   4    2    5 ar
   5    2   21 1
   6    3    4 ar
   7    3    5 ar
   8    3   10 ar
   9    4    6 ar
  10    4   22 1
  11    5    7 ar
  12    6   11 1
  13    7    8 ar
  14    7   23 1
  15    8    9 ar
  16    8   24 1
  17    9   10 ar
  18    9   25 1
  19   10   26 1
  20   11   12 1
  21   11   15 1
  22   11   27 1
  23   12   13 1
  24   12   28 1
  25   12   29 1
  26   13   14 2
  27   15   16 1
  28   15   17 1
  29   16   20 1
  30   16   30 1
  31   16   31 1
  32   17   18 1
  33   17   32 1
  34   17   33 1
  35   18   19 1
  36   18   34 1
  37   18   35 1
  38   19   20 1
  39   20   36 1
  40   20   37 1

#	End of record

