#	Name: ASD03331416
#	Creating user name:	WinNT
#	Creation time:	15. 06. 2019 20:39

#	Modifying user name:	WinNT
#	Modification time:	15. 06. 2019 20:39

#	Program:	/corina/corina34_cracker 3.40 0067  02.08.2006

@<TRIPOS>MOLECULE
ASD03331416
  73   77    0    0    0
SMALL
NO_CHARGES


@<TRIPOS>ATOM
   1 N1            -0.4972     0.4118     3.8631 N.3     
   2 C2             0.9432     0.5690     4.1018 C.3     
   3 C3             1.3942    -0.4205     5.1785 C.3     
   4 C4             1.0875    -1.8471     4.7144 C.3     
   5 C5            -0.4112    -1.9706     4.4263 C.3     
   6 C6            -0.8098    -0.9361     3.3713 C.3     
   7 N7            -2.6605     3.6005     2.1998 N.am    
   8 C8            -2.9886     2.2649     1.6827 C.3     
   9 C9            -2.4837     1.2138     2.6763 C.3     
  10 C10           -0.9923     1.4383     2.9362 C.3     
  11 C11           -0.7828     2.8240     3.5510 C.3     
  12 C12           -1.2685     3.8934     2.5674 C.3     
  13 C13           -0.2367     1.3469     1.6356 C.2     
  14 O14            0.5933     2.1859     1.3562 O.2     
  15 N15           -0.4832     0.3328     0.7828 N.am    
  16 C16           -3.6173     4.5409     2.3291 C.2     
  17 O17           -3.3530     5.6105     2.8442 O.2     
  18 N18           -7.1914     4.1724     1.7227 N.pl3   
  19 C19           -6.1578     4.5825     2.4981 C.2     
  20 C20           -4.9830     4.2732     1.8466 C.2     
  21 C21           -5.3383     3.6482     0.6230 C.2     
  22 C22           -6.6942     3.6006     0.5751 C.2     
  23 C23           -6.2731     5.2590     3.8398 C.3     
  24 C24           -6.2898     4.2009     4.9448 C.3     
  25 O25           -6.3991     4.8425     6.2170 O.3     
  26 C26           -7.5004     3.0304    -0.5256 C.ar    
  27 C27           -7.2499     3.4082    -1.8468 C.ar    
  28 C28           -8.0059     2.8718    -2.8698 C.ar    
  29 C29           -9.0104     1.9614    -2.5877 C.ar    
  30 C30           -9.2631     1.5839    -1.2798 C.ar    
  31 C31           -8.5105     2.1086    -0.2492 C.ar    
  32 Cl32          -9.9571     1.2910    -3.8792 Cl      
  33 Cl33          -5.9913     4.5499    -2.2016 Cl      
  34 C34           -8.5496     4.3047     2.0422 C.ar    
  35 C35           -9.3502     5.1836     1.3251 C.ar    
  36 C36          -10.6884     5.3118     1.6416 C.ar    
  37 C37          -11.2314     4.5652     2.6725 C.ar    
  38 C38          -10.4354     3.6888     3.3890 C.ar    
  39 C39           -9.0979     3.5528     3.0726 C.ar    
  40 Cl40         -12.9139     4.7286     3.0679 Cl      
  41 H41            1.4879     0.3738     3.1781 H       
  42 H42            1.1471     1.5865     4.4353 H       
  43 H43            2.4662    -0.3143     5.3444 H       
  44 H44            0.8599    -0.2170     6.1066 H       
  45 H45            1.6519    -2.0643     3.8076 H       
  46 H46            1.3675    -2.5527     5.4966 H       
  47 H47           -0.6290    -2.9719     4.0546 H       
  48 H48           -0.9739    -1.7915     5.3424 H       
  49 H49           -1.8792    -1.0119     3.1743 H       
  50 H50           -0.2569    -1.1243     2.4510 H       
  51 H51           -4.0688     2.1719     1.5699 H       
  52 H52           -2.5043     2.1176     0.7174 H       
  53 H53           -3.0339     1.3046     3.6128 H       
  54 H54           -2.6346     0.2178     2.2602 H       
  55 H55           -1.3491     2.8996     4.4793 H       
  56 H56            0.2769     2.9740     3.7574 H       
  57 H57           -0.6439     3.8789     1.6742 H       
  58 H58           -1.2137     4.8749     3.0382 H       
  59 H59           -1.2048    -0.2895     0.9648 H       
  60 H60            0.0609     0.2251    -0.0130 H       
  61 H61           -4.6572     3.2791    -0.1295 H       
  62 H62           -5.4215     5.9236     3.9860 H       
  63 H63           -7.1960     5.8377     3.8768 H       
  64 H64           -7.1414     3.5364     4.7986 H       
  65 H65           -5.3668     3.6223     4.9078 H       
  66 H66           -6.4156     4.2308     6.9658 H       
  67 H67           -7.8139     3.1630    -3.8919 H       
  68 H68          -10.0482     0.8737    -1.0662 H       
  69 H69           -8.7058     1.8094     0.7700 H       
  70 H70           -8.9268     5.7668     0.5207 H       
  71 H71          -11.3115     5.9956     1.0843 H       
  72 H72          -10.8614     3.1075     4.1933 H       
  73 H73           -8.4782     2.8652     3.6289 H       
@<TRIPOS>BOND
   1    1    2 1
   2    1    6 1
   3    1   10 1
   4    2    3 1
   5    2   41 1
   6    2   42 1
   7    3    4 1
   8    3   43 1
   9    3   44 1
  10    4    5 1
  11    4   45 1
  12    4   46 1
  13    5    6 1
  14    5   47 1
  15    5   48 1
  16    6   49 1
  17    6   50 1
  18    7    8 1
  19    7   12 1
  20    7   16 am
  21    8    9 1
  22    8   51 1
  23    8   52 1
  24    9   10 1
  25    9   53 1
  26    9   54 1
  27   10   11 1
  28   10   13 1
  29   11   12 1
  30   11   55 1
  31   11   56 1
  32   12   57 1
  33   12   58 1
  34   13   14 2
  35   13   15 am
  36   15   59 1
  37   15   60 1
  38   16   17 2
  39   16   20 1
  40   18   19 1
  41   18   22 1
  42   18   34 1
  43   19   20 2
  44   19   23 1
  45   20   21 1
  46   21   22 2
  47   21   61 1
  48   22   26 1
  49   23   24 1
  50   23   62 1
  51   23   63 1
  52   24   25 1
  53   24   64 1
  54   24   65 1
  55   25   66 1
  56   26   27 ar
  57   26   31 ar
  58   27   28 ar
  59   27   33 1
  60   28   29 ar
  61   28   67 1
  62   29   30 ar
  63   29   32 1
  64   30   31 ar
  65   30   68 1
  66   31   69 1
  67   34   35 ar
  68   34   39 ar
  69   35   36 ar
  70   35   70 1
  71   36   37 ar
  72   36   71 1
  73   37   38 ar
  74   37   40 1
  75   38   39 ar
  76   38   72 1
  77   39   73 1

#	End of record

