#	Name: ASD00843669
#	Creating user name:	WinNT
#	Creation time:	15. 06. 2019 18:47

#	Modifying user name:	WinNT
#	Modification time:	15. 06. 2019 18:47

#	Program:	/corina/corina34_cracker 3.40 0067  02.08.2006

@<TRIPOS>MOLECULE
ASD00843669
  92   97    0    0    0
SMALL
NO_CHARGES


@<TRIPOS>ATOM
   1 F1             5.6100    -2.3576    -2.1921 F       
   2 N2             0.7512     1.1466    -0.6362 N.ar    
   3 C3             0.9601    -0.1436    -0.8381 C.ar    
   4 C4             0.8546    -1.0501     0.2093 C.ar    
   5 C5             0.5272    -0.5858     1.4711 C.ar    
   6 C6             0.3158     0.7758     1.6414 C.ar    
   7 C7             0.4377     1.6192     0.5553 C.ar    
   8 C8             1.0930    -2.5194    -0.0256 C.3     
   9 C9             0.7878    -3.3130     1.2269 C.2     
  10 C10            0.2438    -3.0184    -1.1964 C.3     
  11 C11           -1.2032    -2.6785    -0.9482 C.2     
  12 N12           -2.1496    -3.0847    -1.8176 N.am    
  13 O13           -1.5162    -2.0395     0.0340 O.2     
  14 C14           -3.5473    -2.6625    -1.6539 C.3     
  15 C15           -4.4399    -3.9074    -1.6385 C.3     
  16 C16           -4.1767    -4.7345    -2.8990 C.3     
  17 C17           -2.7152    -5.1882    -2.9174 C.3     
  18 C18           -1.8021    -3.9533    -2.9505 C.3     
  19 C19           -5.0913    -5.9610    -2.9040 C.3     
  20 C20           -6.5540    -5.5086    -2.8873 C.3     
  21 C21           -7.4638    -6.7375    -2.9539 C.3     
  22 N22           -7.1801    -7.4921    -4.1813 N.3     
  23 C23           -5.7942    -7.9773    -4.1980 C.3     
  24 C24           -4.8347    -6.7855    -4.1685 C.3     
  25 H25           -7.8315    -8.2541    -4.2959 H       
  26 O26           -0.2840    -3.3866     1.7899 O.2     
  27 N27            1.9272    -3.9210     1.5976 N.am    
  28 C28            2.5591    -2.7838    -0.2806 C.ar    
  29 C29            2.9858    -3.6313     0.7342 C.ar    
  30 C30            3.4305    -2.3570    -1.2575 C.ar    
  31 C31            4.7517    -2.7736    -1.2352 C.ar    
  32 C32            5.1897    -3.6195    -0.2275 C.ar    
  33 C33            4.3150    -4.0476     0.7526 C.ar    
  34 F34            6.4776    -4.0270    -0.2040 F       
  35 C35            1.6989    -6.5434     2.4011 C.ar    
  36 C36            0.4273    -6.8611     1.9457 C.ar    
  37 C37            2.6832    -7.5128     2.4380 C.ar    
  38 C38            2.4040    -8.8001     2.0213 C.ar    
  39 C39            1.1337    -9.1229     1.5650 C.ar    
  40 C40            0.1446    -8.1525     1.5274 C.ar    
  41 O41            0.8596   -10.3895     1.1557 O.3     
  42 O42           -0.5402    -5.9076     1.9100 O.3     
  43 C43            1.9264   -11.3379     1.2222 C.3     
  44 C44           -1.8259    -6.3055     1.4296 C.3     
  45 C45           -2.7762    -5.1068     1.4628 C.3     
  46 S46            2.0610    -4.9008     2.9260 S.o2    
  47 O47            3.4331    -4.8909     3.2954 O.2     
  48 O48            1.0152    -4.5225     3.8106 O.2     
  49 O49            1.2801    -0.5862    -2.0801 O.3     
  50 C50            1.2832     0.3805    -3.1325 C.3     
  51 C51            1.7665    -0.2764    -4.4270 C.3     
  52 F52            3.0256    -0.8490    -4.2175 F       
  53 F53            0.8604    -1.2704    -4.8120 F       
  54 H54            0.4377    -1.2670     2.3043 H       
  55 H55            0.0585     1.1708     2.6130 H       
  56 H56            0.2747     2.6792     0.6825 H       
  57 H57            0.5768    -2.5391    -2.1170 H       
  58 H58            0.3524    -4.0989    -1.2895 H       
  59 H59           -3.6580    -2.1218    -0.7139 H       
  60 H60           -3.8339    -2.0176    -2.4846 H       
  61 H61           -4.2136    -4.5064    -0.7565 H       
  62 H62           -5.4866    -3.6043    -1.6143 H       
  63 H63           -4.3795    -4.1269    -3.7809 H       
  64 H64           -2.5052    -5.7752    -2.0233 H       
  65 H65           -2.5344    -5.7968    -3.8035 H       
  66 H66           -1.9477    -3.4162    -3.8877 H       
  67 H67           -0.7614    -4.2659    -2.8640 H       
  68 H68           -4.8884    -6.5704    -2.0233 H       
  69 H69           -6.7539    -4.9573    -1.9685 H       
  70 H70           -6.7462    -4.8665    -3.7469 H       
  71 H71           -7.2808    -7.3722    -2.0869 H       
  72 H72           -8.5059    -6.4181    -2.9566 H       
  73 H73           -5.6191    -8.6062    -3.3251 H       
  74 H74           -5.6238    -8.5585    -5.1043 H       
  75 H75           -4.9998    -6.1635    -5.0482 H       
  76 H76           -3.8062    -7.1464    -4.1651 H       
  77 H77            3.0844    -1.6985    -2.0404 H       
  78 H78            4.6626    -4.7061     1.5348 H       
  79 H79            3.6723    -7.2635     2.7928 H       
  80 H80            3.1751    -9.5557     2.0505 H       
  81 H81           -0.8446    -8.4019     1.1729 H       
  82 H82            2.7524   -11.0002     0.5963 H       
  83 H83            2.2664   -11.4306     2.2537 H       
  84 H84            1.5741   -12.3065     0.8674 H       
  85 H85           -1.7348    -6.6687     0.4059 H       
  86 H86           -2.2207    -7.0998     2.0632 H       
  87 H87           -3.7568    -5.4104     1.0963 H       
  88 H88           -2.8673    -4.7436     2.4864 H       
  89 H89           -2.3814    -4.3126     0.8292 H       
  90 H90            0.2735     0.7654    -3.2753 H       
  91 H91            1.9511     1.2010    -2.8701 H       
  92 H92            1.8357     0.4761    -5.2125 H       
@<TRIPOS>BOND
   1    1   31 1
   2    2    3 ar
   3    2    7 ar
   4    3    4 ar
   5    3   49 1
   6    4    5 ar
   7    4    8 1
   8    5    6 ar
   9    5   54 1
  10    6    7 ar
  11    6   55 1
  12    7   56 1
  13    8    9 1
  14    8   10 1
  15    8   28 1
  16    9   26 2
  17    9   27 am
  18   10   11 1
  19   10   57 1
  20   10   58 1
  21   11   12 am
  22   11   13 2
  23   12   14 1
  24   12   18 1
  25   14   15 1
  26   14   59 1
  27   14   60 1
  28   15   16 1
  29   15   61 1
  30   15   62 1
  31   16   17 1
  32   16   19 1
  33   16   63 1
  34   17   18 1
  35   17   64 1
  36   17   65 1
  37   18   66 1
  38   18   67 1
  39   19   20 1
  40   19   24 1
  41   19   68 1
  42   20   21 1
  43   20   69 1
  44   20   70 1
  45   21   22 1
  46   21   71 1
  47   21   72 1
  48   22   23 1
  49   22   25 1
  50   23   24 1
  51   23   73 1
  52   23   74 1
  53   24   75 1
  54   24   76 1
  55   27   46 am
  56   27   29 1
  57   28   29 ar
  58   28   30 ar
  59   29   33 ar
  60   30   31 ar
  61   30   77 1
  62   31   32 ar
  63   32   33 ar
  64   32   34 1
  65   33   78 1
  66   35   36 ar
  67   35   37 ar
  68   35   46 1
  69   36   42 1
  70   36   40 ar
  71   37   38 ar
  72   37   79 1
  73   38   39 ar
  74   38   80 1
  75   39   40 ar
  76   39   41 1
  77   40   81 1
  78   41   43 1
  79   42   44 1
  80   43   82 1
  81   43   83 1
  82   43   84 1
  83   44   45 1
  84   44   85 1
  85   44   86 1
  86   45   87 1
  87   45   88 1
  88   45   89 1
  89   46   47 2
  90   46   48 2
  91   49   50 1
  92   50   51 1
  93   50   90 1
  94   50   91 1
  95   51   52 1
  96   51   53 1
  97   51   92 1

#	End of record

