#	Name: ASD01918378
#	Creating user name:	WinNT
#	Creation time:	15. 06. 2019 20:11

#	Modifying user name:	WinNT
#	Modification time:	15. 06. 2019 20:11

#	Program:	/corina/corina34_cracker 3.40 0067  02.08.2006

@<TRIPOS>MOLECULE
ASD01918378
  39   41    0    0    0
SMALL
NO_CHARGES


@<TRIPOS>ATOM
   1 C1            -0.0187     1.5258     0.0104 C.3     
   2 C2             0.0021    -0.0041     0.0020 C.3     
   3 C3            -1.4333    -0.5336     0.0129 C.3     
   4 C4            -2.1352    -0.1312    -1.2857 C.3     
   5 C5            -1.4136    -2.0361     0.1285 C.2     
   6 N6            -1.9534    -2.7497     1.0847 N.2     
   7 C7            -1.6863    -4.0381     0.7716 C.2     
   8 N8            -1.0063    -4.0306    -0.3460 N.2     
   9 O9            -0.8467    -2.8908    -0.7289 O.3     
  10 C10           -2.0884    -5.2349     1.5496 C.ar    
  11 C11           -1.7377    -6.5161     1.1098 C.ar    
  12 C12           -2.1327    -7.6018     1.8658 C.ar    
  13 C13           -2.8648    -7.3862     3.0372 C.ar    
  14 N14           -3.1807    -6.1531     3.4243 N.ar    
  15 C15           -2.8159    -5.0967     2.7319 C.ar    
  16 C16           -3.2796    -8.5050     3.8289 C.1     
  17 C17           -3.6198    -9.4222     4.4779 C.1     
  18 C18           -4.0346   -10.5410     5.2696 C.ar    
  19 C19           -3.7123   -11.8514     4.8904 C.ar    
  20 C20           -4.1321   -12.8986     5.6833 C.ar    
  21 N21           -4.8273   -12.6799     6.7833 N.ar    
  22 C22           -5.1524   -11.4632     7.1772 C.ar    
  23 C23           -4.7695   -10.3566     6.4489 C.ar    
  24 H24            1.0039     1.9031     0.0027 H       
  25 H25           -0.5459     1.8868    -0.8726 H       
  26 H26           -0.5289     1.8773     0.9072 H       
  27 H27            0.5123    -0.3556    -0.8948 H       
  28 H28            0.5293    -0.3651     0.8851 H       
  29 H29           -1.9701    -0.1109     0.8621 H       
  30 H30           -1.5984    -0.5539    -2.1349 H       
  31 H31           -3.1578    -0.5085    -1.2779 H       
  32 H32           -2.1495     0.9555    -1.3693 H       
  33 H33           -1.1716    -6.6526     0.2002 H       
  34 H34           -1.8797    -8.6050     1.5559 H       
  35 H35           -3.0864    -4.1108     3.0800 H       
  36 H36           -3.1443   -12.0381     3.9910 H       
  37 H37           -3.8889   -13.9120     5.3998 H       
  38 H38           -5.7230   -11.3320     8.0847 H       
  39 H39           -5.0355    -9.3635     6.7796 H       
@<TRIPOS>BOND
   1    1    2 1
   2    1   24 1
   3    1   25 1
   4    1   26 1
   5    2    3 1
   6    2   27 1
   7    2   28 1
   8    3    4 1
   9    3    5 1
  10    3   29 1
  11    4   30 1
  12    4   31 1
  13    4   32 1
  14    5    9 1
  15    5    6 2
  16    6    7 1
  17    7    8 2
  18    7   10 1
  19    8    9 1
  20   10   15 ar
  21   10   11 ar
  22   11   12 ar
  23   11   33 1
  24   12   13 ar
  25   12   34 1
  26   13   14 ar
  27   13   16 1
  28   14   15 ar
  29   15   35 1
  30   16   17 3
  31   17   18 1
  32   18   23 ar
  33   18   19 ar
  34   19   20 ar
  35   19   36 1
  36   20   21 ar
  37   20   37 1
  38   21   22 ar
  39   22   23 ar
  40   22   38 1
  41   23   39 1

#	End of record

