#	Name: ASD01310032
#	Creating user name:	WinNT
#	Creation time:	15. 06. 2019 19:15

#	Modifying user name:	WinNT
#	Modification time:	15. 06. 2019 19:15

#	Program:	/corina/corina34_cracker 3.40 0067  02.08.2006

@<TRIPOS>MOLECULE
ASD01310032
  45   49    0    0    0
SMALL
NO_CHARGES


@<TRIPOS>ATOM
   1 C1            -0.0167     1.3782     0.0096 C.ar    
   2 C2             0.0021    -0.0041     0.0020 C.ar    
   3 C3             1.2108    -0.6810    -0.0127 C.ar    
   4 C4             2.3791     1.4198    -0.0135 C.ar    
   5 C5             1.1693     2.0886     0.0021 C.ar    
   6 O6             1.5011    -2.0148    -0.0221 O.3     
   7 C7             2.8813    -2.1106     0.3768 C.3     
   8 O8             3.4443    -0.8508    -0.0343 O.3     
   9 C9             2.4055     0.0346    -0.0202 C.ar    
  10 S10            1.1389     3.8503     0.0118 S.o2    
  11 O11            2.3762     4.2761    -0.5422 O.2     
  12 O12           -0.1228     4.2327    -0.5186 O.2     
  13 N13            1.1455     4.3320     1.5962 N.am    
  14 C14           -0.0497     4.5555     2.4318 C.3     
  15 C15            2.3436     4.6014     2.4049 C.3     
  16 C16            0.4495     4.3898     3.8830 C.3     
  17 C17           -0.4414     5.1252     4.8355 C.ar    
  18 C18            1.8622     4.9949     3.8213 C.3     
  19 C19            1.8074     6.4939     3.8967 C.2     
  20 N20            0.8487     7.1470     4.5639 N.am    
  21 C21           -2.3407     5.1148     6.3039 C.ar    
  22 C22           -1.4990     4.4556     5.4292 C.ar    
  23 C23           -0.2297     6.4632     5.1344 C.ar    
  24 C24           -1.0808     7.1259     6.0098 C.ar    
  25 C25           -2.1342     6.4507     6.5941 C.ar    
  26 O26            2.6653     7.1376     3.3304 O.2     
  27 C27            0.9306     8.6034     4.6999 C.3     
  28 H28            2.5079     4.5730     4.5915 H       
  29 H29            0.5046     3.3332     4.1452 H       
  30 H30           -0.9599     1.9042     0.0169 H       
  31 H31           -0.9259    -0.5565     0.0079 H       
  32 H32            3.3040     1.9774    -0.0200 H       
  33 H33            2.9602    -2.2311     1.4572 H       
  34 H34            3.3725    -2.9360    -0.1385 H       
  35 H35           -0.4387     5.5619     2.2766 H       
  36 H36           -0.8150     3.8128     2.2063 H       
  37 H37            2.9632     3.7063     2.4592 H       
  38 H38            2.9110     5.4216     1.9650 H       
  39 H39           -3.1624     4.5849     6.7627 H       
  40 H40           -1.6665     3.4121     5.2067 H       
  41 H41           -0.9182     8.1698     6.2339 H       
  42 H42           -2.7956     6.9652     7.2755 H       
  43 H43            1.8287     8.9651     4.1991 H       
  44 H44            0.0519     9.0608     4.2452 H       
  45 H45            0.9723     8.8679     5.7565 H       
@<TRIPOS>BOND
   1    1    2 ar
   2    1    5 ar
   3    1   30 1
   4    2    3 ar
   5    2   31 1
   6    3    6 1
   7    3    9 ar
   8    4    5 ar
   9    4    9 ar
  10    4   32 1
  11    5   10 1
  12    6    7 1
  13    7    8 1
  14    7   33 1
  15    7   34 1
  16    8    9 1
  17   10   11 2
  18   10   12 2
  19   10   13 am
  20   13   15 1
  21   13   14 1
  22   14   16 1
  23   14   35 1
  24   14   36 1
  25   15   18 1
  26   15   37 1
  27   15   38 1
  28   16   18 1
  29   16   29 1
  30   16   17 1
  31   17   23 ar
  32   17   22 ar
  33   18   19 1
  34   18   28 1
  35   19   20 am
  36   19   26 2
  37   20   23 1
  38   20   27 1
  39   21   22 ar
  40   21   25 ar
  41   21   39 1
  42   22   40 1
  43   23   24 ar
  44   24   25 ar
  45   24   41 1
  46   25   42 1
  47   27   43 1
  48   27   44 1
  49   27   45 1

#	End of record

