#	Name: ASD01917004
#	Creating user name:	WinNT
#	Creation time:	15. 06. 2019 20:08

#	Modifying user name:	WinNT
#	Modification time:	15. 06. 2019 20:08

#	Program:	/corina/corina34_cracker 3.40 0067  02.08.2006

@<TRIPOS>MOLECULE
ASD01917004
  58   62    0    0    0
SMALL
NO_CHARGES


@<TRIPOS>ATOM
   1 C1            -0.0042     1.3494     0.1623 C.ar    
   2 C2             0.0266    -0.0079     0.4268 C.ar    
   3 C3             1.2366    -0.6617     0.5741 C.ar    
   4 C4             2.4206     0.0382     0.4582 C.ar    
   5 C5             2.3954     1.4055     0.1919 C.ar    
   6 C6             1.1737     2.0589     0.0440 C.ar    
   7 C7             3.6653     2.1634     0.0667 C.2     
   8 N8             4.8933     1.6476     0.1880 N.2     
   9 N9             3.7655     3.4504    -0.1872 N.2     
  10 N10            5.1360     3.7546    -0.2210 N.pl3   
  11 C11            5.7913     2.5949     0.0188 C.2     
  12 C12            7.2597     2.4223     0.0805 C.ar    
  13 C13            5.7376     5.0669    -0.4703 C.3     
  14 C14            5.8685     5.8149     0.8315 C.2     
  15 O15            5.4959     5.3022     1.8655 O.2     
  16 N16            6.3995     7.0535     0.8465 N.am    
  17 C17            6.5364     7.8009     2.1058 C.3     
  18 C18            7.9797     8.3032     2.2194 C.3     
  19 N19            8.3290     9.0575     1.0082 N.3     
  20 C20            8.2882     8.2001    -0.1839 C.3     
  21 C21            6.8632     7.6912    -0.3951 C.3     
  22 C22            9.5662     9.6637     1.1410 C.ar    
  23 C23            8.0855     3.5247     0.3008 C.ar    
  24 N24           10.2489     9.5009     2.2648 N.ar    
  25 N25           10.0420    10.3886     0.1392 N.ar    
  26 C26           11.2210    10.9808     0.2336 C.ar    
  27 C27           11.9595    10.8355     1.3975 C.ar    
  28 C28           11.4342    10.0661     2.4238 C.ar    
  29 C29            9.4539     3.3578     0.3573 C.ar    
  30 C30           10.0076     2.0995     0.1954 C.ar    
  31 C31            9.1929     1.0017    -0.0241 C.ar    
  32 C32            7.8231     1.1555    -0.0758 C.ar    
  33 Br33          11.8841     1.8791     0.2735 Br      
  34 C34            9.8034    -0.3647    -0.2004 C.3     
  35 H35           -0.9517     1.8541     0.0438 H       
  36 H36           -0.8975    -0.5592     0.5190 H       
  37 H37            1.2550    -1.7216     0.7805 H       
  38 H38            3.3648    -0.4731     0.5741 H       
  39 H39            1.1486     3.1186    -0.1629 H       
  40 H40            6.7242     4.9358    -0.9148 H       
  41 H41            5.1040     5.6334    -1.1527 H       
  42 H42            5.8525     8.6496     2.1040 H       
  43 H43            6.3094     7.1459     2.9469 H       
  44 H44            8.0717     8.9514     3.0908 H       
  45 H45            8.6534     7.4529     2.3253 H       
  46 H46            8.6039     8.7735    -1.0554 H       
  47 H47            8.9576     7.3512    -0.0445 H       
  48 H48            6.8503     6.9654    -1.2083 H       
  49 H49            6.2077     8.5278    -0.6369 H       
  50 H50            7.6546     4.5070     0.4266 H       
  51 H51           11.6038    11.5701    -0.5865 H       
  52 H52           12.9250    11.3083     1.5010 H       
  53 H53           11.9842     9.9330     3.3436 H       
  54 H54           10.0943     4.2105     0.5279 H       
  55 H55            7.1885     0.2985    -0.2471 H       
  56 H56            9.8902    -0.8520     0.7708 H       
  57 H57            9.1689    -0.9649    -0.8525 H       
  58 H58           10.7928    -0.2657    -0.6469 H       
@<TRIPOS>BOND
   1    1    2 ar
   2    1    6 ar
   3    1   35 1
   4    2    3 ar
   5    2   36 1
   6    3    4 ar
   7    3   37 1
   8    4    5 ar
   9    4   38 1
  10    5    6 ar
  11    5    7 1
  12    6   39 1
  13    7    8 1
  14    7    9 2
  15    8   11 2
  16    9   10 1
  17   10   11 1
  18   10   13 1
  19   11   12 1
  20   12   23 ar
  21   12   32 ar
  22   13   14 1
  23   13   40 1
  24   13   41 1
  25   14   15 2
  26   14   16 am
  27   16   17 1
  28   16   21 1
  29   17   18 1
  30   17   42 1
  31   17   43 1
  32   18   19 1
  33   18   44 1
  34   18   45 1
  35   19   20 1
  36   19   22 1
  37   20   21 1
  38   20   46 1
  39   20   47 1
  40   21   48 1
  41   21   49 1
  42   22   25 ar
  43   22   24 ar
  44   23   29 ar
  45   23   50 1
  46   24   28 ar
  47   25   26 ar
  48   26   27 ar
  49   26   51 1
  50   27   28 ar
  51   27   52 1
  52   28   53 1
  53   29   30 ar
  54   29   54 1
  55   30   31 ar
  56   30   33 1
  57   31   32 ar
  58   31   34 1
  59   32   55 1
  60   34   56 1
  61   34   57 1
  62   34   58 1

#	End of record

