#	Name: ASD01911374
#	Creating user name:	WinNT
#	Creation time:	15. 06. 2019 19:57

#	Modifying user name:	WinNT
#	Modification time:	15. 06. 2019 19:57

#	Program:	/corina/corina34_cracker 3.40 0067  02.08.2006

@<TRIPOS>MOLECULE
ASD01911374
  50   53    0    0    0
SMALL
NO_CHARGES


@<TRIPOS>ATOM
   1 C1            -0.0173     1.4278     0.0099 C.ar    
   2 C2             0.0021    -0.0041     0.0020 C.1     
   3 C3             0.0180    -1.1779    -0.0044 C.1     
   4 C4             0.0374    -2.6098    -0.0123 C.ar    
   5 N5            -1.1126    -3.2811    -0.0049 N.ar    
   6 C6            -1.1402    -4.5954    -0.0112 C.ar    
   7 C7             0.0510    -5.3261    -0.0425 C.ar    
   8 C8             1.2772    -4.6524    -0.0437 C.ar    
   9 C9             1.2645    -3.2821    -0.0335 C.ar    
  10 C10           -2.4537    -5.3334     0.0370 C.3     
  11 C11           -2.3547    -6.6317    -0.7597 C.3     
  12 N12           -1.1813    -7.4044    -0.3586 N.am    
  13 C13           -0.0076    -6.7989    -0.0944 C.2     
  14 O14            0.9942    -7.4602     0.0991 O.2     
  15 C15           -1.2832    -8.8612    -0.2415 C.3     
  16 C16           -0.2940    -9.5207    -1.2045 C.3     
  17 C17           -0.4004   -11.0421    -1.0822 C.3     
  18 C18           -0.0732   -11.4625     0.3520 C.3     
  19 C19           -1.0624   -10.8031     1.3151 C.3     
  20 C20           -0.9560    -9.2817     1.1928 C.3     
  21 C21            1.1813     2.1464     0.0023 C.ar    
  22 C22            1.1546     3.5254     0.0095 C.ar    
  23 C23           -0.0549     4.1973     0.0242 C.ar    
  24 C24           -1.2461     3.4925     0.0322 C.ar    
  25 C25           -1.2354     2.1137     0.0194 C.ar    
  26 C26            2.4459     4.3022     0.0018 C.3     
  27 H27            2.2092    -5.1980    -0.0566 H       
  28 H28            2.1912    -2.7273    -0.0335 H       
  29 H29           -2.7014    -5.5632     1.0733 H       
  30 H30           -3.2366    -4.7064    -0.3895 H       
  31 H31           -3.2514    -7.2268    -0.5869 H       
  32 H32           -2.2820    -6.3955    -1.8213 H       
  33 H33           -2.2968    -9.1757    -0.4900 H       
  34 H34           -0.5271    -9.2211    -2.2263 H       
  35 H35            0.7196    -9.2062    -0.9560 H       
  36 H36           -1.4140   -11.3566    -1.3308 H       
  37 H37            0.3043   -11.5119    -1.7683 H       
  38 H38           -0.1490   -12.5464     0.4391 H       
  39 H39            0.9404   -11.1481     0.6005 H       
  40 H40           -2.0760   -11.1175     1.0665 H       
  41 H41           -0.8293   -11.1026     2.3369 H       
  42 H42            0.0577    -8.9672     1.4413 H       
  43 H43           -1.6607    -8.8118     1.8789 H       
  44 H44            2.1261     1.6233    -0.0088 H       
  45 H45           -0.0696     5.2772     0.0297 H       
  46 H46           -2.1863     4.0238     0.0444 H       
  47 H47           -2.1657     1.5651     0.0257 H       
  48 H48            2.7480     4.4947    -1.0276 H       
  49 H49            2.3031     5.2496     0.5217 H       
  50 H50            3.2206     3.7243     0.5058 H       
@<TRIPOS>BOND
   1    1    2 1
   2    1   21 ar
   3    1   25 ar
   4    2    3 3
   5    3    4 1
   6    4    5 ar
   7    4    9 ar
   8    5    6 ar
   9    6    7 ar
  10    6   10 1
  11    7    8 ar
  12    7   13 1
  13    8    9 ar
  14    8   27 1
  15    9   28 1
  16   10   11 1
  17   10   29 1
  18   10   30 1
  19   11   12 1
  20   11   31 1
  21   11   32 1
  22   12   13 am
  23   12   15 1
  24   13   14 2
  25   15   16 1
  26   15   20 1
  27   15   33 1
  28   16   17 1
  29   16   34 1
  30   16   35 1
  31   17   18 1
  32   17   36 1
  33   17   37 1
  34   18   19 1
  35   18   38 1
  36   18   39 1
  37   19   20 1
  38   19   40 1
  39   19   41 1
  40   20   42 1
  41   20   43 1
  42   21   22 ar
  43   21   44 1
  44   22   23 ar
  45   22   26 1
  46   23   24 ar
  47   23   45 1
  48   24   25 ar
  49   24   46 1
  50   25   47 1
  51   26   48 1
  52   26   49 1
  53   26   50 1

#	End of record

