#	Name: ASD03081335
#	Creating user name:	WinNT
#	Creation time:	15. 06. 2019 20:27

#	Modifying user name:	WinNT
#	Modification time:	15. 06. 2019 20:27

#	Program:	/corina/corina34_cracker 3.40 0067  02.08.2006

@<TRIPOS>MOLECULE
ASD03081335
  27   29    0    0    0
SMALL
NO_CHARGES


@<TRIPOS>ATOM
   1 C1            -0.0169     1.3970     0.0097 C.ar    
   2 C2             0.0021    -0.0041     0.0020 C.ar    
   3 C3             1.2243    -0.6780    -0.0133 C.ar    
   4 C4             2.4046     0.0379    -0.0207 C.ar    
   5 C5             2.3807     1.4228    -0.0126 C.ar    
   6 C6             1.1762     2.1006     0.0021 C.ar    
   7 O7            -1.2007     2.0625     0.0190 O.3     
   8 O8            -1.3893    -2.1062     0.0046 O.3     
   9 C9            -1.2638    -0.7633     0.0105 C.2     
  10 N10           -2.4758    -0.2550     0.0257 N.2     
  11 N11           -3.3391    -1.2090     0.0295 N.2     
  12 C12           -2.7135    -2.3637     0.0168 C.2     
  13 C13           -2.5603    -4.8550     0.0018 C.ar    
  14 C14           -3.3442    -3.6997     0.0161 C.ar    
  15 C15           -4.7383    -3.8289     0.0302 C.ar    
  16 C16           -5.2789    -5.1028     0.0293 C.ar    
  17 C17           -4.4332    -6.1972     0.0147 C.ar    
  18 N18           -3.1226    -6.0455     0.0011 N.ar    
  19 Cl19           3.9245    -0.8007    -0.0397 Cl      
  20 H20            1.2466    -1.7578    -0.0189 H       
  21 H21            3.3082     1.9760    -0.0181 H       
  22 H22            1.1652     3.1805     0.0080 H       
  23 H23           -1.5394     2.2505     0.9050 H       
  24 H24           -1.4836    -4.7713    -0.0137 H       
  25 H25           -5.3753    -2.9568     0.0418 H       
  26 H26           -6.3499    -5.2410     0.0403 H       
  27 H27           -4.8527    -7.1925     0.0140 H       
@<TRIPOS>BOND
   1    1    2 ar
   2    1    6 ar
   3    1    7 1
   4    2    3 ar
   5    2    9 1
   6    3    4 ar
   7    3   20 1
   8    4    5 ar
   9    4   19 1
  10    5    6 ar
  11    5   21 1
  12    6   22 1
  13    7   23 1
  14    8    9 1
  15    8   12 1
  16    9   10 2
  17   10   11 1
  18   11   12 2
  19   12   14 1
  20   13   14 ar
  21   13   18 ar
  22   13   24 1
  23   14   15 ar
  24   15   16 ar
  25   15   25 1
  26   16   17 ar
  27   16   26 1
  28   17   18 ar
  29   17   27 1

#	End of record

