#	Name: ASD03180099
#	Creating user name:	WinNT
#	Creation time:	15. 06. 2019 20:33

#	Modifying user name:	WinNT
#	Modification time:	15. 06. 2019 20:33

#	Program:	/corina/corina34_cracker 3.40 0067  02.08.2006

@<TRIPOS>MOLECULE
ASD03180099
  39   41    0    0    0
SMALL
NO_CHARGES


@<TRIPOS>ATOM
   1 N1            -0.0167     1.3821     0.0096 N.pl3   
   2 C2            -0.0135    -0.0042     0.0053 C.2     
   3 S3             1.4197    -1.0174    -0.1352 S.3     
   4 C4             0.4127    -2.4601    -0.0422 C.2     
   5 C5            -0.8687    -2.0732     0.0821 C.2     
   6 N6            -1.0653    -0.7561     0.1097 N.2     
   7 C7             1.1919     2.0836     0.0257 C.ar    
   8 C8             3.4737     2.2739     0.7387 C.ar    
   9 C9             3.5849     3.4725     0.0576 C.ar    
  10 C10            2.5013     3.9811    -0.6345 C.ar    
  11 C11            1.3053     3.2904    -0.6525 C.ar    
  12 C12            2.2810     1.5782     0.7249 C.ar    
  13 C13            0.1250     3.8453    -1.4074 C.3     
  14 C14           -0.7671     4.6369    -0.4490 C.3     
  15 C15           -1.9845    -3.0446     0.1864 C.ar    
  16 C16           -4.0674    -4.8579     0.3821 C.ar    
  17 C17           -2.7667    -5.3131     0.2611 C.ar    
  18 C18           -1.7245    -4.4138     0.1632 C.ar    
  19 C19           -3.2966    -2.5917     0.3138 C.ar    
  20 C20           -4.3309    -3.5002     0.4110 C.ar    
  21 C21           -5.2012    -5.8450     0.4886 C.3     
  22 H22           -0.8578     1.8651    -0.0025 H       
  23 H23            0.7645    -3.4806    -0.0787 H       
  24 H24            4.3220     1.8794     1.2783 H       
  25 H25            4.5188     4.0148     0.0703 H       
  26 H26            2.5915     4.9174    -1.1653 H       
  27 H27            2.1948     0.6425     1.2573 H       
  28 H28            0.4783     4.5029    -2.2017 H       
  29 H29           -0.4465     3.0252    -1.8420 H       
  30 H30           -1.6208     5.0382    -0.9950 H       
  31 H31           -1.1204     3.9793     0.3453 H       
  32 H32           -0.1956     5.4570    -0.0144 H       
  33 H33           -2.5669    -6.3742     0.2394 H       
  34 H34           -0.7095    -4.7703     0.0684 H       
  35 H35           -3.5034    -1.5320     0.3368 H       
  36 H36           -5.3484    -3.1505     0.5052 H       
  37 H37           -5.3791    -6.0822     1.5375 H       
  38 H38           -6.1027    -5.4108     0.0563 H       
  39 H39           -4.9418    -6.7558    -0.0510 H       
@<TRIPOS>BOND
   1    1    2 1
   2    1    7 1
   3    1   22 1
   4    2    3 1
   5    2    6 2
   6    3    4 1
   7    4    5 2
   8    4   23 1
   9    5    6 1
  10    5   15 1
  11    7   12 ar
  12    7   11 ar
  13    8    9 ar
  14    8   12 ar
  15    8   24 1
  16    9   10 ar
  17    9   25 1
  18   10   11 ar
  19   10   26 1
  20   11   13 1
  21   12   27 1
  22   13   14 1
  23   13   28 1
  24   13   29 1
  25   14   30 1
  26   14   31 1
  27   14   32 1
  28   15   19 ar
  29   15   18 ar
  30   16   17 ar
  31   16   20 ar
  32   16   21 1
  33   17   18 ar
  34   17   33 1
  35   18   34 1
  36   19   20 ar
  37   19   35 1
  38   20   36 1
  39   21   37 1
  40   21   38 1
  41   21   39 1

#	End of record

