#	Name: ASD01209217
#	Creating user name:	WinNT
#	Creation time:	15. 06. 2019 19:11

#	Modifying user name:	WinNT
#	Modification time:	15. 06. 2019 19:11

#	Program:	/corina/corina34_cracker 3.40 0067  02.08.2006

@<TRIPOS>MOLECULE
ASD01209217
  67   70    0    0    0
SMALL
NO_CHARGES


@<TRIPOS>ATOM
   1 O1            -0.0173     1.4248     0.0099 O.3     
   2 O2             2.1367     2.0777     1.3686 O.3     
   3 N3             6.4039     7.9699     3.4690 N.2     
   4 C4             6.5815     8.0104     2.1658 C.2     
   5 C5             5.7302     7.3850     1.1386 C.2     
   6 N6             4.6395     6.6825     1.5037 N.am    
   7 O7             6.0118     7.5025    -0.0387 O.2     
   8 C8             3.8370     6.0929     0.5355 C.2     
   9 P9             1.3209     2.3199     0.0019 P.3     
  10 O10            2.1650     1.9351    -1.1513 O.2     
  11 C11            0.8726     4.0817    -0.1342 C.3     
  12 N12            2.7693     5.3986     0.7779 N.2     
  13 S13            4.1093     6.1833    -1.1500 S.3     
  14 C14            2.6728     5.2070    -1.4450 C.2     
  15 C15            2.1248     4.9100    -0.2652 C.2     
  16 C16            7.7966     8.8040     1.9385 C.ar    
  17 C17            8.2251     9.1653     3.2308 C.ar    
  18 N18            7.3184     8.6146     4.0985 N.pl3   
  19 C19            8.5190     9.2180     0.8231 C.ar    
  20 C20            9.6442     9.9758     0.9928 C.ar    
  21 C21           10.0688    10.3329     2.2662 C.ar    
  22 C22            9.3739     9.9368     3.3745 C.ar    
  23 S23           11.5230    11.3098     2.4553 S.o2    
  24 O24           12.0025    10.9772     3.7510 O.2     
  25 O25           12.2907    11.0238     1.2943 O.2     
  26 C26           10.9259    13.0223     2.4177 C.3     
  27 C27            2.7182     0.8193     1.7153 C.3     
  28 C28            3.4161     0.9364     3.0718 C.3     
  29 C29            0.0021    -0.0041     0.0020 C.3     
  30 C30           -1.4333    -0.5336     0.0129 C.3     
  31 C31            7.3845     8.7445     5.5562 C.3     
  32 C32            6.6107     9.9901     5.9929 C.3     
  33 C33            6.5657    10.0712     7.5288 C.3     
  34 C34            7.2659    11.3886     7.9213 C.3     
  35 C35            7.1400    12.2765     6.6585 C.3     
  36 C36            7.3367    11.2611     5.5056 C.3     
  37 H37            4.4148     6.5888     2.4427 H       
  38 H38            0.2452     4.2302    -1.0130 H       
  39 H39            0.3264     4.3876     0.7581 H       
  40 H40            2.2988     4.9050    -2.4122 H       
  41 H41            8.1933     8.9423    -0.1690 H       
  42 H42           10.2076    10.2991     0.1300 H       
  43 H43            9.7155    10.2218     4.3587 H       
  44 H44           10.2211    13.1794     3.2343 H       
  45 H45           11.7693    13.7037     2.5296 H       
  46 H46           10.4285    13.2129     1.4668 H       
  47 H47            1.9368     0.0615     1.7729 H       
  48 H48            3.4459     0.5337     0.9558 H       
  49 H49            4.1975     1.6941     3.0142 H       
  50 H50            2.6884     1.2219     3.8314 H       
  51 H51            3.8596    -0.0235     3.3363 H       
  52 H52            0.5123    -0.3556    -0.8948 H       
  53 H53            0.5293    -0.3651     0.8851 H       
  54 H54           -1.4185    -1.6235     0.0069 H       
  55 H55           -1.9435    -0.1821     0.9097 H       
  56 H56           -1.9605    -0.1726    -0.8702 H       
  57 H57            6.9439     7.8620     6.0200 H       
  58 H58            8.4255     8.8364     5.8660 H       
  59 H59            5.5981     9.9603     5.5907 H       
  60 H60            5.5311    10.0816     7.8720 H       
  61 H61            7.0951     9.2232     7.9631 H       
  62 H62            6.7583    11.8533     8.7666 H       
  63 H63            8.3145    11.2076     8.1574 H       
  64 H64            6.1524    12.7347     6.6053 H       
  65 H65            7.9210    13.0366     6.6413 H       
  66 H66            8.3968    11.0595     5.3515 H       
  67 H67            6.8808    11.6327     4.5879 H       
@<TRIPOS>BOND
   1    1   29 1
   2    1    9 1
   3    2   27 1
   4    2    9 1
   5    3    4 2
   6    3   18 1
   7    4    5 1
   8    4   16 1
   9    5    6 am
  10    5    7 2
  11    6    8 1
  12    6   37 1
  13    8   12 2
  14    8   13 1
  15    9   10 2
  16    9   11 1
  17   11   15 1
  18   11   38 1
  19   11   39 1
  20   12   15 1
  21   13   14 1
  22   14   15 2
  23   14   40 1
  24   16   17 ar
  25   16   19 ar
  26   17   18 1
  27   17   22 ar
  28   18   31 1
  29   19   20 ar
  30   19   41 1
  31   20   21 ar
  32   20   42 1
  33   21   22 ar
  34   21   23 1
  35   22   43 1
  36   23   24 2
  37   23   25 2
  38   23   26 1
  39   26   44 1
  40   26   45 1
  41   26   46 1
  42   27   28 1
  43   27   47 1
  44   27   48 1
  45   28   49 1
  46   28   50 1
  47   28   51 1
  48   29   30 1
  49   29   52 1
  50   29   53 1
  51   30   54 1
  52   30   55 1
  53   30   56 1
  54   31   32 1
  55   31   57 1
  56   31   58 1
  57   32   33 1
  58   32   36 1
  59   32   59 1
  60   33   34 1
  61   33   60 1
  62   33   61 1
  63   34   35 1
  64   34   62 1
  65   34   63 1
  66   35   36 1
  67   35   64 1
  68   35   65 1
  69   36   66 1
  70   36   67 1

#	End of record

