#	Name: ASD02508387
#	Creating user name:	WinNT
#	Creation time:	15. 06. 2019 20:24

#	Modifying user name:	WinNT
#	Modification time:	15. 06. 2019 20:24

#	Program:	/corina/corina34_cracker 3.40 0067  02.08.2006

@<TRIPOS>MOLECULE
ASD02508387
  40   42    0    0    0
SMALL
NO_CHARGES


@<TRIPOS>ATOM
   1 C1             0.4797     1.3599    -0.4135 C.2     
   2 C2             0.2951     0.0048    -0.0715 C.2     
   3 C3             1.5114    -0.5762    -0.0472 C.2     
   4 N4             2.4435     0.3720    -0.3622 N.pl3   
   5 C5             1.8021     1.5577    -0.5856 C.2     
   6 C6             3.8237     0.1638    -0.4421 C.ar    
   7 C7             4.6896     1.0194     0.2304 C.ar    
   8 N8             4.2937    -0.8484    -1.1523 N.ar    
   9 C9             5.5883    -1.0809    -1.2538 C.ar    
  10 C10            6.5060    -0.2691    -0.6169 C.ar    
  11 C11            6.0544     0.8011     0.1429 C.ar    
  12 S12            1.8421    -2.2660     0.3268 S.o2    
  13 O13            1.6675    -2.9868    -0.8853 O.2     
  14 O14            3.0508    -2.2825     1.0737 O.2     
  15 N15            0.6505    -2.7829     1.3541 N.am    
  16 C16           -0.7306    -2.8925     0.8778 C.3     
  17 C17           -1.5087    -3.7980     1.7974 C.ar    
  18 C18           -2.1715    -3.2695     2.8893 C.ar    
  19 Cl19           4.0683     2.3429     1.1663 Cl      
  20 C20           -1.5640    -5.1562     1.5454 C.ar    
  21 C21           -2.2779    -5.9872     2.3881 C.ar    
  22 C22           -2.9367    -5.4596     3.4843 C.ar    
  23 C23           -2.8853    -4.0995     3.7330 C.ar    
  24 Cl24          -3.8340    -6.5026     4.5430 Cl      
  25 C25            7.9823    -0.5456    -0.7408 C.3     
  26 F26            8.1797    -1.6714    -1.5476 F       
  27 F27            8.6168     0.5593    -1.3186 F       
  28 F28            8.5207    -0.7815     0.5287 F       
  29 H29           -0.2967     2.1027    -0.5223 H       
  30 H30           -0.6482    -0.4795     0.1334 H       
  31 H31            2.2731     2.4918    -0.8541 H       
  32 H32            5.9349    -1.9174    -1.8425 H       
  33 H33            6.7515     1.4510     0.6510 H       
  34 H34            0.8670    -3.0131     2.2712 H       
  35 H35           -1.1904    -1.9043     0.8664 H       
  36 H36           -0.7354    -3.3072    -0.1302 H       
  37 H37           -2.1312    -2.2079     3.0834 H       
  38 H38           -1.0496    -5.5679     0.6896 H       
  39 H39           -2.3216    -7.0481     2.1907 H       
  40 H40           -3.3991    -3.6872     4.5888 H       
@<TRIPOS>BOND
   1    1    2 1
   2    1    5 2
   3    1   29 1
   4    2    3 2
   5    2   30 1
   6    3    4 1
   7    3   12 1
   8    4    5 1
   9    4    6 1
  10    5   31 1
  11    6    7 ar
  12    6    8 ar
  13    7   19 1
  14    7   11 ar
  15    8    9 ar
  16    9   10 ar
  17    9   32 1
  18   10   11 ar
  19   10   25 1
  20   11   33 1
  21   12   13 2
  22   12   14 2
  23   12   15 am
  24   15   16 1
  25   15   34 1
  26   16   17 1
  27   16   35 1
  28   16   36 1
  29   17   18 ar
  30   17   20 ar
  31   18   23 ar
  32   18   37 1
  33   20   21 ar
  34   20   38 1
  35   21   22 ar
  36   21   39 1
  37   22   23 ar
  38   22   24 1
  39   23   40 1
  40   25   26 1
  41   25   27 1
  42   25   28 1

#	End of record

