#	Name: ASD05313090
#	Creating user name:	WinNT
#	Creation time:	15. 06. 2019 20:58

#	Modifying user name:	WinNT
#	Modification time:	15. 06. 2019 20:58

#	Program:	/corina/corina34_cracker 3.40 0067  02.08.2006

@<TRIPOS>MOLECULE
ASD05313090
  41   44    0    0    0
SMALL
NO_CHARGES


@<TRIPOS>ATOM
   1 C1            -0.0022     1.5187     0.0013 C.2     
   2 C2             0.0031     0.0086    -0.0123 C.3     
   3 N3             1.1235     2.2752     0.0106 N.pl3   
   4 N4             1.3911    -0.4145    -0.2782 N.am    
   5 C5             2.4759     0.2855     0.4264 C.3     
   6 C6             2.4904     1.7571    -0.0038 C.3     
   7 N7            -0.6110     3.5465     0.0284 N.2     
   8 N8            -1.0213     2.3248     0.0117 N.2     
   9 C9             0.7063     3.5712     0.0305 C.2     
  10 C10            1.6574    -1.4143    -1.1419 C.2     
  11 O11            2.8085    -1.6777    -1.4303 O.2     
  12 C12            0.5496    -2.1906    -1.7384 C.ar    
  13 C13            0.6483    -2.6588    -3.0498 C.ar    
  14 C14           -0.3887    -3.3830    -3.6002 C.ar    
  15 C15           -1.5252    -3.6451    -2.8556 C.ar    
  16 C16           -1.6294    -3.1840    -1.5555 C.ar    
  17 C17           -0.5969    -2.4635    -0.9910 C.ar    
  18 C18           -0.2839    -3.8892    -5.0158 C.3     
  19 F19            0.2950    -5.1629    -5.0138 F       
  20 F20           -1.5613    -3.9584    -5.5820 F       
  21 F21            0.5119    -3.0164    -5.7655 F       
  22 C22            1.5661     4.7747     0.0532 C.ar    
  23 C23            0.9829     6.0417     0.0721 C.ar    
  24 C24            1.8006     7.1577     0.0937 C.ar    
  25 C25            3.1761     6.9716     0.0958 C.ar    
  26 C26            3.6872     5.6867     0.0764 C.ar    
  27 N27            2.8872     4.6404     0.0611 N.ar    
  28 H28           -0.3233    -0.3732     0.9550 H       
  29 H29           -0.6551    -0.3586    -0.7997 H       
  30 H30            2.3116     0.2224     1.5021 H       
  31 H31            3.4307    -0.1767     0.1755 H       
  32 H32            2.8999     1.8379    -1.0107 H       
  33 H33            3.1054     2.3330     0.6878 H       
  34 H34            1.5345    -2.4543    -3.6322 H       
  35 H35           -2.3346    -4.2120    -3.2915 H       
  36 H36           -2.5191    -3.3921    -0.9797 H       
  37 H37           -0.6778    -2.1076     0.0255 H       
  38 H38           -0.0917     6.1501     0.0695 H       
  39 H39            1.3781     8.1515     0.1083 H       
  40 H40            3.8411     7.8224     0.1121 H       
  41 H41            4.7570     5.5391     0.0776 H       
@<TRIPOS>BOND
   1    1    2 1
   2    1    3 1
   3    1    8 2
   4    2    4 1
   5    2   28 1
   6    2   29 1
   7    3    6 1
   8    3    9 1
   9    4    5 1
  10    4   10 am
  11    5    6 1
  12    5   30 1
  13    5   31 1
  14    6   32 1
  15    6   33 1
  16    7    8 1
  17    7    9 2
  18    9   22 1
  19   10   11 2
  20   10   12 1
  21   12   13 ar
  22   12   17 ar
  23   13   14 ar
  24   13   34 1
  25   14   15 ar
  26   14   18 1
  27   15   16 ar
  28   15   35 1
  29   16   17 ar
  30   16   36 1
  31   17   37 1
  32   18   19 1
  33   18   20 1
  34   18   21 1
  35   22   23 ar
  36   22   27 ar
  37   23   24 ar
  38   23   38 1
  39   24   25 ar
  40   24   39 1
  41   25   26 ar
  42   25   40 1
  43   26   27 ar
  44   26   41 1

#	End of record

