#	Name: ASD06170398
#	Creating user name:	WinNT
#	Creation time:	15. 06. 2019 21:05

#	Modifying user name:	WinNT
#	Modification time:	15. 06. 2019 21:05

#	Program:	/corina/corina34_cracker 3.40 0067  02.08.2006

@<TRIPOS>MOLECULE
ASD06170398
  74   78    0    0    0
SMALL
NO_CHARGES


@<TRIPOS>ATOM
   1 N1            -0.6491     4.1960     0.3701 N.am    
   2 N2            -0.2157     5.2023    -0.4983 N.pl3   
   3 C3             1.0990     5.0559    -0.7504 C.2     
   4 C4             1.5585     3.9539    -0.0561 C.2     
   5 C5             0.4022     3.4052     0.6700 C.2     
   6 C6             2.9306     3.4324    -0.0448 C.2     
   7 O7             3.7973     3.9862    -0.6951 O.2     
   8 N8             3.2305     2.3404     0.6860 N.am    
   9 C9             4.5206     1.7979     0.6372 C.ar    
  10 C10            5.6213     2.6346     0.5103 C.ar    
  11 C11            7.0717     0.7224     0.5420 C.ar    
  12 C12            5.9719    -0.1120     0.6741 C.ar    
  13 C13            4.6997     0.4234     0.7216 C.ar    
  14 O14            8.3241     0.1941     0.4953 O.3     
  15 N15            8.6830    -3.8842     0.3588 N.ar    
  16 C16            9.0945    -3.2389     1.4400 C.ar    
  17 C17            8.9896    -1.8577     1.5228 C.ar    
  18 C18            8.4446    -1.1571     0.4526 C.ar    
  19 C19            8.0245    -1.8766    -0.6655 C.ar    
  20 C20            8.1617    -3.2485    -0.6740 C.ar    
  21 O21            0.3954     2.4301     1.3979 O.2     
  22 C22           -1.9527     4.0388     0.8519 C.ar    
  23 C23           -2.4870     2.7668     1.0115 C.ar    
  24 C24           -3.7746     2.6150     1.4875 C.ar    
  25 C25            6.8947     2.0981     0.4628 C.ar    
  26 C26            1.9291     5.9448    -1.6402 C.3     
  27 C27           -1.0659     6.2591    -1.0521 C.3     
  28 C28           -4.5318     3.7278     1.8046 C.ar    
  29 C29           -4.0028     4.9957     1.6467 C.ar    
  30 C30           -2.7137     5.1542     1.1771 C.ar    
  31 N31            9.6385    -3.9547     2.5056 N.am    
  32 C32            9.8452    -5.2815     2.3905 C.2     
  33 N33           10.2667    -5.9927     3.4549 N.am    
  34 O34            9.6515    -5.8368     1.3264 O.2     
  35 F35            7.9665     2.9112     0.3389 F       
  36 C36           10.5370    -7.4419     3.4675 C.3     
  37 C37           10.5393    -5.4507     4.7941 C.3     
  38 C38           11.0222    -6.6233     5.6734 C.3     
  39 C39           11.5382    -7.6485     4.6314 C.3     
  40 N40           11.4581    -9.0183     5.1560 N.3     
  41 C41           11.9471    -9.9897     4.1685 C.3     
  42 C42           12.1919    -9.1406     6.4227 C.3     
  43 H43            2.5527     1.9302     1.2456 H       
  44 H44            5.4829     3.7039     0.4484 H       
  45 H45            6.1103    -1.1811     0.7394 H       
  46 H46            3.8438    -0.2271     0.8248 H       
  47 H47            9.3254    -1.3347     2.4060 H       
  48 H48            7.5965    -1.3652    -1.5150 H       
  49 H49            7.8379    -3.8108    -1.5374 H       
  50 H50           -1.8964     1.8973     0.7634 H       
  51 H51           -4.1907     1.6262     1.6119 H       
  52 H52            2.3503     6.7585    -1.0498 H       
  53 H53            2.7363     5.3624    -2.0843 H       
  54 H54            1.3010     6.3565    -2.4302 H       
  55 H55           -1.1267     7.0851    -0.3436 H       
  56 H56           -0.6386     6.6151    -1.9895 H       
  57 H57           -2.0648     5.8632    -1.2353 H       
  58 H58           -5.5387     3.6065     2.1759 H       
  59 H59           -4.5968     5.8628     1.8953 H       
  60 H60           -2.3011     6.1446     1.0541 H       
  61 H61            9.8681    -3.4978     3.3299 H       
  62 H62            9.6181    -7.9976     3.6544 H       
  63 H63           10.9838    -7.7527     2.5231 H       
  64 H64           11.3157    -4.6879     4.7343 H       
  65 H65            9.6284    -5.0234     5.2135 H       
  66 H66           11.8311    -6.3047     6.3309 H       
  67 H67           10.1958    -7.0386     6.2503 H       
  68 H68           12.5549    -7.4102     4.3192 H       
  69 H69           12.9864    -9.7687     3.9253 H       
  70 H70           11.8768   -10.9955     4.5826 H       
  71 H71           11.3410    -9.9256     3.2648 H       
  72 H72           11.7638    -8.4591     7.1579 H       
  73 H73           12.1164   -10.1644     6.7890 H       
  74 H74           13.2401    -8.8889     6.2612 H       
@<TRIPOS>BOND
   1    1    2 1
   2    1    5 am
   3    1   22 1
   4    2    3 1
   5    2   27 1
   6    3    4 2
   7    3   26 1
   8    4    5 1
   9    4    6 1
  10    5   21 2
  11    6    7 2
  12    6    8 am
  13    8    9 1
  14    8   43 1
  15    9   10 ar
  16    9   13 ar
  17   10   25 ar
  18   10   44 1
  19   11   12 ar
  20   11   14 1
  21   11   25 ar
  22   12   13 ar
  23   12   45 1
  24   13   46 1
  25   14   18 1
  26   15   16 ar
  27   15   20 ar
  28   16   17 ar
  29   16   31 1
  30   17   18 ar
  31   17   47 1
  32   18   19 ar
  33   19   20 ar
  34   19   48 1
  35   20   49 1
  36   22   23 ar
  37   22   30 ar
  38   23   24 ar
  39   23   50 1
  40   24   28 ar
  41   24   51 1
  42   25   35 1
  43   26   52 1
  44   26   53 1
  45   26   54 1
  46   27   55 1
  47   27   56 1
  48   27   57 1
  49   28   29 ar
  50   28   58 1
  51   29   30 ar
  52   29   59 1
  53   30   60 1
  54   31   32 am
  55   31   61 1
  56   32   33 am
  57   32   34 2
  58   33   37 1
  59   33   36 1
  60   36   39 1
  61   36   62 1
  62   36   63 1
  63   37   38 1
  64   37   64 1
  65   37   65 1
  66   38   39 1
  67   38   66 1
  68   38   67 1
  69   39   40 1
  70   39   68 1
  71   40   41 1
  72   40   42 1
  73   41   69 1
  74   41   70 1
  75   41   71 1
  76   42   72 1
  77   42   73 1
  78   42   74 1

#	End of record

