#	Name: ASD01914914
#	Creating user name:	WinNT
#	Creation time:	15. 06. 2019 20:04

#	Modifying user name:	WinNT
#	Modification time:	15. 06. 2019 20:04

#	Program:	/corina/corina34_cracker 3.40 0067  02.08.2006

@<TRIPOS>MOLECULE
ASD01914914
  60   64    0    0    0
SMALL
NO_CHARGES


@<TRIPOS>ATOM
   1 C1            -0.0038     1.3302    -0.0206 C.2     
   2 N2             0.0146     0.0581     0.3183 N.2     
   3 C3             1.3071     1.7204    -0.3419 C.2     
   4 C4             2.1159     0.6335    -0.1832 C.2     
   5 N5             1.3329    -0.4056     0.2254 N.pl3   
   6 C6            -1.2050     2.2014    -0.0623 C.ar    
   7 C7            -2.4542     1.6863     0.2768 C.ar    
   8 C8            -3.5678     2.5007     0.2363 C.ar    
   9 C9            -3.4452     3.8259    -0.1406 C.ar    
  10 C10           -2.2073     4.3424    -0.4783 C.ar    
  11 C11           -1.0862     3.5384    -0.4352 C.ar    
  12 C12            3.5773     0.5898    -0.4127 C.ar    
  13 C13            4.1821     1.5228    -1.2551 C.ar    
  14 C14            5.5451     1.4768    -1.4651 C.ar    
  15 C15            6.3115     0.5081    -0.8422 C.ar    
  16 C16            5.7175    -0.4202    -0.0060 C.ar    
  17 C17            4.3564    -0.3809     0.2169 C.ar    
  18 C18            1.7902    -1.7667     0.5162 C.3     
  19 C19            2.0687    -1.8985     1.9914 C.2     
  20 N20            2.5034    -3.0715     2.4929 N.am    
  21 O21            1.9018    -0.9490     2.7273 O.2     
  22 C22            2.6925    -4.1915     1.5761 C.3     
  23 C23            4.1776    -4.5654     1.5149 C.3     
  24 C24            4.5102    -5.4246     2.7145 C.ar    
  25 C25            4.5474    -4.8734     3.9715 C.ar    
  26 C26            4.2572    -3.4022     4.1684 C.3     
  27 C27            2.7680    -3.1591     3.9257 C.3     
  28 C28            4.7778    -6.7710     2.5335 C.ar    
  29 C29            5.0825    -7.5635     3.6233 C.ar    
  30 C30            5.1195    -7.0091     4.8947 C.ar    
  31 C31            4.8511    -5.6590     5.0688 C.ar    
  32 O32            5.4188    -7.7873     5.9679 O.3     
  33 C33            5.6845    -9.1682     5.7140 C.3     
  34 H34            1.6187     2.7049    -0.6583 H       
  35 H35           -2.5512     0.6515     0.5705 H       
  36 H36           -4.5368     2.1025     0.4990 H       
  37 H37           -4.3193     4.4595    -0.1716 H       
  38 H38           -2.1171     5.3778    -0.7718 H       
  39 H39           -0.1201     3.9428    -0.6987 H       
  40 H40            3.5848     2.2793    -1.7423 H       
  41 H41            6.0145     2.1984    -2.1174 H       
  42 H42            7.3780     0.4762    -1.0097 H       
  43 H43            6.3211    -1.1745     0.4769 H       
  44 H44            3.8939    -1.1060     0.8702 H       
  45 H45            1.0175    -2.4791     0.2273 H       
  46 H46            2.7016    -1.9715    -0.0454 H       
  47 H47            2.1171    -5.0482     1.9269 H       
  48 H48            2.3488    -3.9078     0.5814 H       
  49 H49            4.3770    -5.1225     0.5994 H       
  50 H50            4.7839    -3.6598     1.5342 H       
  51 H51            4.5147    -3.1117     5.1870 H       
  52 H52            4.8420    -2.8160     3.4595 H       
  53 H53            2.4696    -2.2277     4.4068 H       
  54 H54            2.1928    -3.9840     4.3460 H       
  55 H55            4.7480    -7.2005     1.5430 H       
  56 H56            5.2913    -8.6141     3.4857 H       
  57 H57            4.8789    -5.2235     6.0567 H       
  58 H58            5.9086    -9.6738     6.6533 H       
  59 H59            4.8099    -9.6279     5.2537 H       
  60 H60            6.5376    -9.2564     5.0413 H       
@<TRIPOS>BOND
   1    1    2 2
   2    1    3 1
   3    1    6 1
   4    2    5 1
   5    3    4 2
   6    3   34 1
   7    4    5 1
   8    4   12 1
   9    5   18 1
  10    6    7 ar
  11    6   11 ar
  12    7    8 ar
  13    7   35 1
  14    8    9 ar
  15    8   36 1
  16    9   10 ar
  17    9   37 1
  18   10   11 ar
  19   10   38 1
  20   11   39 1
  21   12   13 ar
  22   12   17 ar
  23   13   14 ar
  24   13   40 1
  25   14   15 ar
  26   14   41 1
  27   15   16 ar
  28   15   42 1
  29   16   17 ar
  30   16   43 1
  31   17   44 1
  32   18   19 1
  33   18   45 1
  34   18   46 1
  35   19   20 am
  36   19   21 2
  37   20   22 1
  38   20   27 1
  39   22   23 1
  40   22   47 1
  41   22   48 1
  42   23   24 1
  43   23   49 1
  44   23   50 1
  45   24   25 ar
  46   24   28 ar
  47   25   26 1
  48   25   31 ar
  49   26   27 1
  50   26   51 1
  51   26   52 1
  52   27   53 1
  53   27   54 1
  54   28   29 ar
  55   28   55 1
  56   29   30 ar
  57   29   56 1
  58   30   31 ar
  59   30   32 1
  60   31   57 1
  61   32   33 1
  62   33   58 1
  63   33   59 1
  64   33   60 1

#	End of record

