#	Name: ASD04910335
#	Creating user name:	WinNT
#	Creation time:	15. 06. 2019 20:55

#	Modifying user name:	WinNT
#	Modification time:	15. 06. 2019 20:55

#	Program:	/corina/corina34_cracker 3.40 0067  02.08.2006

@<TRIPOS>MOLECULE
ASD04910335
  64   66    0    0    0
SMALL
NO_CHARGES


@<TRIPOS>ATOM
   1 C1            -2.2150    -1.0428    -4.1942 C.2     
   2 C2            -1.6432    -1.8024    -3.0660 C.ar    
   3 C3            -0.6972    -2.8135    -3.2952 C.ar    
   4 C4            -0.1934    -3.4924    -2.2191 C.ar    
   5 C5            -0.6306    -3.1631    -0.9370 C.ar    
   6 N6            -1.5260    -2.2035    -0.7479 N.ar    
   7 C7            -2.0310    -1.5219    -1.7550 C.ar    
   8 O8            -1.8672    -1.2910    -5.3326 O.2     
   9 N9            -3.1269    -0.0776    -3.9635 N.am    
  10 N10           -0.1231    -3.8478     0.1541 N.pl3   
  11 C11            0.9508    -4.8271    -0.0304 C.3     
  12 C12            1.7174    -4.9969     1.2828 C.3     
  13 C13            2.3799    -3.6708     1.6617 C.3     
  14 C14            3.0292    -3.8009     3.0410 C.3     
  15 C15            0.3586    -6.1506    -0.4411 C.ar    
  16 C16            0.9872    -6.9187    -1.4039 C.ar    
  17 C17            0.4469    -8.1322    -1.7824 C.ar    
  18 C18           -0.7283    -8.5807    -1.1948 C.ar    
  19 C19           -1.3569    -7.8075    -0.2281 C.ar    
  20 C20           -0.8091    -6.5971     0.1497 C.ar    
  21 N21           -1.2794    -9.8117    -1.5772 N.pl3   
  22 N22           -0.7532   -10.6888    -2.5344 N.2     
  23 C23           -1.5437   -11.7288    -2.6147 C.2     
  24 C24           -2.5978   -11.5485    -1.7125 C.2     
  25 C25           -2.4098   -10.3654    -1.0831 C.2     
  26 C26           -3.7381   -12.5057    -1.4786 C.3     
  27 F27           -3.5878   -13.6217    -2.3087 F       
  28 F28           -3.7359   -12.9156    -0.1410 F       
  29 F29           -4.9491   -11.8682    -1.7690 F       
  30 C30            3.4497    -3.3208     0.6254 C.3     
  31 C31           -3.6947     0.6766    -5.0838 C.3     
  32 C32           -4.6966     1.7032    -4.5518 C.3     
  33 C33           -5.2806     2.4791    -5.7042 C.2     
  34 O34           -6.1889     3.4403    -5.4744 O.3     
  35 O35           -4.9313     2.2358    -6.8350 O.2     
  36 C36           -6.7084     4.1466    -6.6318 C.3     
  37 H37           -0.3744    -3.0506    -4.2982 H       
  38 H38            0.5357    -4.2762    -2.3618 H       
  39 H39           -2.7546    -0.7429    -1.5654 H       
  40 H40           -3.4074     0.1176    -3.0557 H       
  41 H41           -0.4786    -3.6792     1.0407 H       
  42 H42            1.6320    -4.4774    -0.8061 H       
  43 H43            1.0263    -5.2960     2.0709 H       
  44 H44            2.4826    -5.7634     1.1604 H       
  45 H45            1.6272    -2.8829     1.6873 H       
  46 H46            3.7819    -4.5889     3.0154 H       
  47 H47            3.5012    -2.8562     3.3109 H       
  48 H48            2.2671    -4.0503     3.7793 H       
  49 H49            1.9014    -6.5693    -1.8606 H       
  50 H50            0.9379    -8.7314    -2.5349 H       
  51 H51           -2.2712    -8.1538     0.2308 H       
  52 H52           -1.2956    -5.9969     0.9044 H       
  53 H53           -1.4063   -12.5794    -3.2657 H       
  54 H54           -3.0490    -9.9389    -0.3242 H       
  55 H55            2.9808    -3.1852    -0.3492 H       
  56 H56            3.9516    -2.3987     0.9186 H       
  57 H57            4.1787    -4.1291     0.5685 H       
  58 H58           -2.8956     1.1914    -5.6173 H       
  59 H59           -4.2023    -0.0084    -5.7629 H       
  60 H60           -5.4957     1.1884    -4.0183 H       
  61 H61           -4.1890     2.3883    -3.8728 H       
  62 H62           -5.8886     4.6376    -7.1561 H       
  63 H63           -7.1953     3.4377    -7.3016 H       
  64 H64           -7.4315     4.8946    -6.3066 H       
@<TRIPOS>BOND
   1    1    2 1
   2    1    8 2
   3    1    9 am
   4    2    3 ar
   5    2    7 ar
   6    3    4 ar
   7    3   37 1
   8    4    5 ar
   9    4   38 1
  10    5    6 ar
  11    5   10 1
  12    6    7 ar
  13    7   39 1
  14    9   31 1
  15    9   40 1
  16   10   11 1
  17   10   41 1
  18   11   12 1
  19   11   15 1
  20   11   42 1
  21   12   13 1
  22   12   43 1
  23   12   44 1
  24   13   14 1
  25   13   30 1
  26   13   45 1
  27   14   46 1
  28   14   47 1
  29   14   48 1
  30   15   16 ar
  31   15   20 ar
  32   16   17 ar
  33   16   49 1
  34   17   18 ar
  35   17   50 1
  36   18   19 ar
  37   18   21 1
  38   19   20 ar
  39   19   51 1
  40   20   52 1
  41   21   22 1
  42   21   25 1
  43   22   23 2
  44   23   24 1
  45   23   53 1
  46   24   25 2
  47   24   26 1
  48   25   54 1
  49   26   27 1
  50   26   28 1
  51   26   29 1
  52   30   55 1
  53   30   56 1
  54   30   57 1
  55   31   32 1
  56   31   58 1
  57   31   59 1
  58   32   33 1
  59   32   60 1
  60   32   61 1
  61   33   34 1
  62   33   35 2
  63   34   36 1
  64   36   62 1
  65   36   63 1
  66   36   64 1

#	End of record

