#	Name: ASD01885444
#	Creating user name:	WinNT
#	Creation time:	15. 06. 2019 19:49

#	Modifying user name:	WinNT
#	Modification time:	15. 06. 2019 19:49

#	Program:	/corina/corina34_cracker 3.40 0067  02.08.2006

@<TRIPOS>MOLECULE
ASD01885444
  33   35    0    0    0
SMALL
NO_CHARGES


@<TRIPOS>ATOM
   1 C1            -0.0169     1.3920     0.0097 C.ar    
   2 C2             0.0021    -0.0041     0.0020 C.ar    
   3 N3            -1.1140    -0.7730     0.0202 N.2     
   4 C4            -2.1908    -0.5678    -0.6467 C.2     
   5 C5            -2.3523     0.6326    -1.5420 C.3     
   6 C6            -2.2799     1.8711    -0.6849 C.2     
   7 N7            -1.1827     2.1468     0.0191 N.am    
   8 C8             1.1872     2.0916     0.0020 C.ar    
   9 C9             2.4015     1.4087    -0.0183 C.ar    
  10 C10            2.4113     0.0099    -0.0315 C.ar    
  11 C11            1.2376    -0.6790    -0.0216 C.ar    
  12 C12           -3.2991    -1.5326    -0.5340 C.ar    
  13 O13           -3.2292     2.6245    -0.6376 O.2     
  14 C14           -4.4919    -1.3452    -1.2455 C.ar    
  15 C15           -5.5088    -2.2728    -1.1133 C.ar    
  16 N16           -5.3729    -3.3232    -0.3325 N.ar    
  17 C17           -4.2626    -3.5452     0.3622 C.ar    
  18 C18           -3.1870    -2.6649     0.2827 C.ar    
  19 C19            3.6724     2.1582    -0.0264 C.2     
  20 O20            3.6613     3.3730    -0.0153 O.2     
  21 O21            4.8453     1.4953    -0.0460 O.3     
  22 C22           -4.1691    -4.7048     1.1972 C.1     
  23 N23           -4.0949    -5.6247     1.8596 N.1     
  24 H24           -1.5521     0.6500    -2.2819 H       
  25 H25           -3.3183     0.5892    -2.0449 H       
  26 H26           -1.1997     2.9349     0.5845 H       
  27 H27            1.1797     3.1715     0.0114 H       
  28 H28            3.3503    -0.5233    -0.0498 H       
  29 H29            1.2541    -1.7589    -0.0318 H       
  30 H30           -4.6154    -0.4866    -1.8889 H       
  31 H31           -6.4299    -2.1327    -1.6596 H       
  32 H32           -2.2851    -2.8471     0.8482 H       
  33 H33            5.6514     2.0294    -0.0506 H       
@<TRIPOS>BOND
   1    1    2 ar
   2    1    8 ar
   3    1    7 1
   4    2    3 1
   5    2   11 ar
   6    3    4 2
   7    4    5 1
   8    4   12 1
   9    5    6 1
  10    5   24 1
  11    5   25 1
  12    6    7 am
  13    6   13 2
  14    7   26 1
  15    8    9 ar
  16    8   27 1
  17    9   10 ar
  18    9   19 1
  19   10   11 ar
  20   10   28 1
  21   11   29 1
  22   12   14 ar
  23   12   18 ar
  24   14   15 ar
  25   14   30 1
  26   15   16 ar
  27   15   31 1
  28   16   17 ar
  29   17   18 ar
  30   17   22 1
  31   18   32 1
  32   19   20 2
  33   19   21 1
  34   21   33 1
  35   22   23 3

#	End of record

