#	Name: ASD07300677
#	Creating user name:	WinNT
#	Creation time:	15. 06. 2019 21:10

#	Modifying user name:	WinNT
#	Modification time:	15. 06. 2019 21:10

#	Program:	/corina/corina34_cracker 3.40 0067  02.08.2006

@<TRIPOS>MOLECULE
ASD07300677
  24   24    0    0    0
SMALL
NO_CHARGES


@<TRIPOS>ATOM
   1 C1            -0.1962     1.1943    -0.2861 C.ar    
   2 C2            -0.6116    -0.1088    -0.4869 C.ar    
   3 C3             0.3397    -1.1041    -0.6472 C.ar    
   4 C4             1.6804    -0.7498    -0.5991 C.ar    
   5 C5             2.0200     0.5749    -0.3945 C.ar    
   6 N6             1.0870     1.4950    -0.2461 N.ar    
   7 C7            -1.2222     2.2851    -0.1169 C.3     
   8 C8            -0.9625     3.0307     1.1936 C.3     
   9 C9            -2.0562     4.0787     1.4095 C.3     
  10 O10           -1.1302     3.1993    -1.2114 O.3     
  11 C11           -2.3827     3.4838    -1.8379 C.3     
  12 Br12           3.0258    -2.0618    -0.8102 Br      
  13 H13           -1.6642    -0.3484    -0.5183 H       
  14 H14            0.0444    -2.1308    -0.8052 H       
  15 H15            3.0612     0.8592    -0.3554 H       
  16 H16           -2.2193     1.8455    -0.0935 H       
  17 H17           -0.9693     2.3224     2.0221 H       
  18 H18            0.0085     3.5236     1.1450 H       
  19 H19           -1.8203     4.6735     2.2919 H       
  20 H20           -2.1130     4.7296     0.5370 H       
  21 H21           -3.0144     3.5794     1.5534 H       
  22 H22           -2.8504     2.5517    -2.1549 H       
  23 H23           -3.0350     3.9953    -1.1301 H       
  24 H24           -2.2179     4.1214    -2.7064 H       
@<TRIPOS>BOND
   1    1    2 ar
   2    1    6 ar
   3    1    7 1
   4    2    3 ar
   5    2   13 1
   6    3    4 ar
   7    3   14 1
   8    4    5 ar
   9    4   12 1
  10    5    6 ar
  11    5   15 1
  12    7    8 1
  13    7   10 1
  14    7   16 1
  15    8    9 1
  16    8   17 1
  17    8   18 1
  18    9   19 1
  19    9   20 1
  20    9   21 1
  21   10   11 1
  22   11   22 1
  23   11   23 1
  24   11   24 1

#	End of record

