#	Name: ASD01913475
#	Creating user name:	WinNT
#	Creation time:	15. 06. 2019 20:01

#	Modifying user name:	WinNT
#	Modification time:	15. 06. 2019 20:01

#	Program:	/corina/corina34_cracker 3.40 0067  02.08.2006

@<TRIPOS>MOLECULE
ASD01913475
  34   36    0    0    0
SMALL
NO_CHARGES


@<TRIPOS>ATOM
   1 C1            -0.3709    -0.6921    -2.1186 C.ar    
   2 C2            -0.8241    -0.0301    -0.9820 C.ar    
   3 C3            -0.8064     1.3610    -0.9783 C.ar    
   4 N4            -0.3624     2.0002    -2.0479 N.ar    
   5 C5             0.0589     1.3369    -3.1060 C.ar    
   6 N6             0.0577     0.0196    -3.1479 N.ar    
   7 C7            -1.2500    -2.0818     0.0363 C.ar    
   8 C8            -0.0539    -2.7716     0.1765 C.ar    
   9 N9            -0.0231    -4.0886     0.1247 N.ar    
  10 C10           -1.1149    -4.8030    -0.0607 C.ar    
  11 C11           -2.3513    -4.1868    -0.2098 C.ar    
  12 C12           -2.4251    -2.7981    -0.1610 C.ar    
  13 N13           -3.5056    -4.9518    -0.4067 N.am    
  14 C14           -4.6757    -4.5573     0.1334 C.2     
  15 O15           -1.2730    -0.7244     0.0966 O.3     
  16 C16           -5.8693    -5.4223     0.0236 C.ar    
  17 C17           -7.0825    -5.0167     0.5819 C.ar    
  18 C18           -8.1934    -5.8282     0.4757 C.ar    
  19 C19           -8.1072    -7.0418    -0.1823 C.ar    
  20 C20           -6.9068    -7.4508    -0.7387 C.ar    
  21 C21           -5.7893    -6.6457    -0.6440 C.ar    
  22 O22           -4.7494    -3.4902     0.7110 O.2     
  23 Cl23          -6.8087    -8.9757    -1.5627 Cl      
  24 H24           -0.3649    -1.7713    -2.1582 H       
  25 H25           -1.1505     1.9110    -0.1149 H       
  26 H26            0.4153     1.8886    -3.9633 H       
  27 H27            0.8634    -2.2225     0.3298 H       
  28 H28           -1.0477    -5.8803    -0.0976 H       
  29 H29           -3.3713    -2.2896    -0.2732 H       
  30 H30           -3.4640    -5.7661    -0.9321 H       
  31 H31           -7.1515    -4.0696     1.0963 H       
  32 H32           -9.1324    -5.5151     0.9078 H       
  33 H33           -8.9798    -7.6732    -0.2622 H       
  34 H34           -4.8536    -6.9651    -1.0785 H       
@<TRIPOS>BOND
   1    1    2 ar
   2    1    6 ar
   3    1   24 1
   4    2    3 ar
   5    2   15 1
   6    3    4 ar
   7    3   25 1
   8    4    5 ar
   9    5    6 ar
  10    5   26 1
  11    7    8 ar
  12    7   12 ar
  13    7   15 1
  14    8    9 ar
  15    8   27 1
  16    9   10 ar
  17   10   11 ar
  18   10   28 1
  19   11   12 ar
  20   11   13 1
  21   12   29 1
  22   13   14 am
  23   13   30 1
  24   14   16 1
  25   14   22 2
  26   16   17 ar
  27   16   21 ar
  28   17   18 ar
  29   17   31 1
  30   18   19 ar
  31   18   32 1
  32   19   20 ar
  33   19   33 1
  34   20   21 ar
  35   20   23 1
  36   21   34 1

#	End of record

