#	Name: ASD00170457
#	Creating user name:	WinNT
#	Creation time:	15. 06. 2019 18:32

#	Modifying user name:	WinNT
#	Modification time:	15. 06. 2019 18:32

#	Program:	/corina/corina34_cracker 3.40 0067  02.08.2006

@<TRIPOS>MOLECULE
ASD00170457
  41   43    0    0    0
SMALL
NO_CHARGES


@<TRIPOS>ATOM
   1 I1             0.0000     0.0000     0.0000 I       
   2 H2             0.0000     1.7100     0.0000 H       
   3 C3             5.5272    15.4024     5.8831 C.3     
   4 O4             5.5466    13.9736     5.8752 O.3     
   5 C5             6.1706    13.3590     6.9152 C.ar    
   6 C6             6.7459    14.1174     7.9230 C.ar    
   7 C7             7.3803    13.4974     8.9805 C.ar    
   8 C8             7.4437    12.1063     9.0369 C.ar    
   9 C9             6.8650    11.3425     8.0239 C.ar    
  10 C10            6.2259    11.9682     6.9692 C.ar    
  11 O11            5.6564    11.2259     5.9822 O.3     
  12 C12            5.7510     9.8051     6.1021 C.3     
  13 C13            8.1260    11.4395    10.1721 C.ar    
  14 C14            8.1942    10.0476    10.2253 C.ar    
  15 C15            8.8270     9.4256    11.2791 C.ar    
  16 C16            9.4015    10.1913    12.2956 C.ar    
  17 C17            9.3319    11.5799    12.2388 C.ar    
  18 C18           10.0351    12.1010    13.4661 C.3     
  19 C19           10.5062    10.8748    14.2172 C.2     
  20 S20           11.3700    10.3846    15.6738 S.3     
  21 C21           11.1571     8.6950    15.2333 C.2     
  22 N22           11.6141     7.6131    15.9682 N.pl3   
  23 N23           10.5090     8.6190    14.1205 N.2     
  24 C24           10.1346     9.7766    13.5317 C.2     
  25 C25            8.7057    12.2044    11.1859 C.ar    
  26 H26            6.5498    15.7797     5.8753 H       
  27 H27            5.0000    15.7635     5.0000 H       
  28 H28            5.0170    15.7540     6.7799 H       
  29 H29            6.6978    15.1955     7.8805 H       
  30 H30            7.8280    14.0904     9.7643 H       
  31 H31            6.9128    10.2644     8.0647 H       
  32 H32            5.2673     9.4854     7.0251 H       
  33 H33            5.2575     9.3350     5.2515 H       
  34 H34            6.8005     9.5112     6.1212 H       
  35 H35            7.7496     9.4559     9.4388 H       
  36 H36            8.8783     8.3475    11.3191 H       
  37 H37           10.8871    12.7172    13.1789 H       
  38 H38            9.3432    12.6766    14.0809 H       
  39 H39           12.0945     7.7588    16.7982 H       
  40 H40           11.4536     6.7100    15.6528 H       
  41 H41            8.6586    13.2826    11.1456 H       
@<TRIPOS>BOND
   1    1    2 1
   2    3    4 1
   3    3   26 1
   4    3   27 1
   5    3   28 1
   6    4    5 1
   7    5   10 ar
   8    5    6 ar
   9    6    7 ar
  10    6   29 1
  11    7    8 ar
  12    7   30 1
  13    8    9 ar
  14    8   13 1
  15    9   10 ar
  16    9   31 1
  17   10   11 1
  18   11   12 1
  19   12   32 1
  20   12   33 1
  21   12   34 1
  22   13   25 ar
  23   13   14 ar
  24   14   15 ar
  25   14   35 1
  26   15   16 ar
  27   15   36 1
  28   16   24 1
  29   16   17 ar
  30   17   18 1
  31   17   25 ar
  32   18   19 1
  33   18   37 1
  34   18   38 1
  35   19   24 2
  36   19   20 1
  37   20   21 1
  38   21   22 1
  39   21   23 2
  40   22   39 1
  41   22   40 1
  42   23   24 1
  43   25   41 1

#	End of record

