#	Name: ASD03092470
#	Creating user name:	WinNT
#	Creation time:	15. 06. 2019 20:32

#	Modifying user name:	WinNT
#	Modification time:	15. 06. 2019 20:32

#	Program:	/corina/corina34_cracker 3.40 0067  02.08.2006

@<TRIPOS>MOLECULE
ASD03092470
  57   60    0    0    0
SMALL
NO_CHARGES


@<TRIPOS>ATOM
   1 C1             0.1958     1.4093    -0.7482 C.3     
   2 C2             0.2270    -0.1116    -0.9120 C.3     
   3 C3             1.5278     0.6914    -0.9746 C.3     
   4 C4            -0.3601     2.2208    -1.8899 C.2     
   5 O5            -0.3390     1.7749    -3.0176 O.2     
   6 N6            -0.8807     3.4421    -1.6578 N.am    
   7 O7            -0.0609     1.9271     0.5587 O.3     
   8 C8            -1.4211     4.2310    -2.7676 C.3     
   9 S9            -3.3990     7.4098    -1.3601 S.3     
  10 C10           -1.7273     7.6718    -1.6028 C.2     
  11 N11           -1.1637     6.5938    -2.0591 N.2     
  12 C12           -1.9376     5.5465    -2.2442 C.2     
  13 C13           -3.2331     5.7496    -1.9257 C.2     
  14 C14           -6.5235     4.1236    -2.7217 C.ar    
  15 C15           -5.5371     5.0827    -2.6436 C.ar    
  16 C16           -4.3193     4.7560    -2.0320 C.ar    
  17 C17           -4.1616     3.4593    -1.5245 C.ar    
  18 C18           -5.2019     2.5637    -1.6459 C.ar    
  19 N19           -6.3330     2.9132    -2.2302 N.ar    
  20 C20           -5.0460     1.1660    -1.1047 C.3     
  21 C21           -7.8403     4.4632    -3.3712 C.3     
  22 N22           -1.0689     8.8614    -1.3499 N.3     
  23 C23           -1.9985     9.8802    -0.8408 C.3     
  24 C24           -1.2419    11.1947    -0.6315 C.3     
  25 O25           -0.1443    10.9708     0.2575 O.3     
  26 C26            0.7814     9.9847    -0.2076 C.3     
  27 C27            0.0453     8.6580    -0.4125 C.3     
  28 C28            1.8921     9.7980     0.8279 C.3     
  29 C29           -2.1852    12.2363    -0.0264 C.3     
  30 H30            0.0517    -0.7172    -0.0228 H       
  31 H31           -0.1546    -0.5252    -1.8455 H       
  32 H32            2.0021     0.8061    -1.9493 H       
  33 H33            2.2084     0.6140    -0.1267 H       
  34 H34           -0.8976     3.7987    -0.7559 H       
  35 H35           -0.0692     2.8930     0.6045 H       
  36 H36           -0.6346     4.4148    -3.4996 H       
  37 H37           -2.2362     3.6828    -3.2401 H       
  38 H38           -5.6997     6.0708    -3.0481 H       
  39 H39           -3.2389     3.1663    -1.0460 H       
  40 H40           -5.3807     1.1384    -0.0677 H       
  41 H41           -5.6467     0.4772    -1.6987 H       
  42 H42           -3.9979     0.8712    -1.1562 H       
  43 H43           -7.7883     4.2391    -4.4367 H       
  44 H44           -8.6340     3.8723    -2.9140 H       
  45 H45           -8.0509     5.5236    -3.2327 H       
  46 H46           -2.8014    10.0332    -1.5620 H       
  47 H47           -2.4192     9.5474     0.1081 H       
  48 H48           -0.8669    11.5552    -1.5893 H       
  49 H49            1.2153    10.3101    -1.1531 H       
  50 H50           -0.3428     8.3057     0.5431 H       
  51 H51            0.7343     7.9189    -0.8211 H       
  52 H52            1.4572     9.4709     1.7723 H       
  53 H53            2.5972     9.0465     0.4729 H       
  54 H54            2.4133    10.7438     0.9763 H       
  55 H55           -2.5581    11.8755     0.9322 H       
  56 H56           -1.6460    13.1718     0.1224 H       
  57 H57           -3.0235    12.4037    -0.7026 H       
@<TRIPOS>BOND
   1    1    2 1
   2    1    3 1
   3    1    4 1
   4    1    7 1
   5    2    3 1
   6    2   30 1
   7    2   31 1
   8    3   32 1
   9    3   33 1
  10    4    5 2
  11    4    6 am
  12    6    8 1
  13    6   34 1
  14    7   35 1
  15    8   12 1
  16    8   36 1
  17    8   37 1
  18    9   10 1
  19    9   13 1
  20   10   11 2
  21   10   22 1
  22   11   12 1
  23   12   13 2
  24   13   16 1
  25   14   15 ar
  26   14   19 ar
  27   14   21 1
  28   15   16 ar
  29   15   38 1
  30   16   17 ar
  31   17   18 ar
  32   17   39 1
  33   18   19 ar
  34   18   20 1
  35   20   40 1
  36   20   41 1
  37   20   42 1
  38   21   43 1
  39   21   44 1
  40   21   45 1
  41   22   23 1
  42   22   27 1
  43   23   24 1
  44   23   46 1
  45   23   47 1
  46   24   25 1
  47   24   29 1
  48   24   48 1
  49   25   26 1
  50   26   27 1
  51   26   28 1
  52   26   49 1
  53   27   50 1
  54   27   51 1
  55   28   52 1
  56   28   53 1
  57   28   54 1
  58   29   55 1
  59   29   56 1
  60   29   57 1

#	End of record

