#	Name: ASD01810543
#	Creating user name:	WinNT
#	Creation time:	15. 06. 2019 19:24

#	Modifying user name:	WinNT
#	Modification time:	15. 06. 2019 19:24

#	Program:	/corina/corina34_cracker 3.40 0067  02.08.2006

@<TRIPOS>MOLECULE
ASD01810543
  53   57    0    0    0
SMALL
NO_CHARGES


@<TRIPOS>ATOM
   1 C1            -0.0166     1.3753     0.0096 C.ar    
   2 C2             0.0021    -0.0041     0.0020 C.ar    
   3 C3             1.2091    -0.6848    -0.0131 C.ar    
   4 C4             2.4041     0.0035    -0.0208 C.ar    
   5 C5             2.4071     1.3943    -0.0134 C.ar    
   6 C6             1.1822     2.0811     0.0019 C.ar    
   7 N7             3.6032     2.0911    -0.0216 N.pl3   
   8 C8             3.6682     3.4322    -0.0147 C.2     
   9 C9             2.5370     4.2098     0.0011 C.2     
  10 C10            1.2082     3.5566     0.0096 C.2     
  11 C11            2.2570     5.6421     0.0120 C.2     
  12 N12            0.9118     5.7622     0.0259 N.am    
  13 N13            0.3123     4.5002     0.0239 N.2     
  14 C14            0.1851     7.0341     0.0405 C.3     
  15 C15           -0.0780     7.4787    -1.3752 C.ar    
  16 O16            3.0739     6.5488     0.0097 O.2     
  17 C17            4.8552     1.3305    -0.0379 C.3     
  18 C18            5.2704     1.0772    -1.4643 C.ar    
  19 C19            6.0824     1.9842    -2.1192 C.ar    
  20 C20            6.4633     1.7519    -3.4276 C.ar    
  21 C21            6.0326     0.6124    -4.0809 C.ar    
  22 C22            5.2213    -0.2951    -3.4257 C.ar    
  23 C23            4.8440    -0.0649    -2.1159 C.ar    
  24 C24           -1.1259     6.9279    -2.0893 C.ar    
  25 C25           -1.3671     7.3356    -3.3877 C.ar    
  26 C26           -0.5608     8.2946    -3.9722 C.ar    
  27 C27            0.4862     8.8459    -3.2580 C.ar    
  28 C28            0.7248     8.4412    -1.9577 C.ar    
  29 C29           -2.0047     5.8825    -1.4521 C.3     
  30 C30            1.3653     9.8909    -3.8954 C.3     
  31 H31           -0.9578     1.9050     0.0170 H       
  32 H32           -0.9267    -0.5551     0.0083 H       
  33 H33            1.2140    -1.7648    -0.0186 H       
  34 H34            3.3385    -0.5379    -0.0323 H       
  35 H35            4.6359     3.9117    -0.0215 H       
  36 H36           -0.7628     6.9050     0.5629 H       
  37 H37            0.7826     7.7881     0.5530 H       
  38 H38            5.6328     1.8998     0.4712 H       
  39 H39            4.7087     0.3785     0.4723 H       
  40 H40            6.4190     2.8745    -1.6088 H       
  41 H41            7.0971     2.4609    -3.9395 H       
  42 H42            6.3296     0.4312    -5.1033 H       
  43 H43            4.8845    -1.1852    -3.9362 H       
  44 H44            4.2102    -0.7739    -1.6040 H       
  45 H45           -2.1853     6.9047    -3.9458 H       
  46 H46           -0.7489     8.6127    -4.9870 H       
  47 H47            1.5430     8.8721    -1.3996 H       
  48 H48           -2.8416     6.3682    -0.9504 H       
  49 H49           -2.3833     5.2086    -2.2206 H       
  50 H50           -1.4248     5.3147    -0.7245 H       
  51 H51            0.9519    10.8807    -3.7018 H       
  52 H52            2.3687     9.8276    -3.4743 H       
  53 H53            1.4112     9.7203    -4.9709 H       
@<TRIPOS>BOND
   1    1    2 ar
   2    1    6 ar
   3    1   31 1
   4    2    3 ar
   5    2   32 1
   6    3    4 ar
   7    3   33 1
   8    4    5 ar
   9    4   34 1
  10    5    6 ar
  11    5    7 1
  12    6   10 1
  13    7    8 1
  14    7   17 1
  15    8    9 2
  16    8   35 1
  17    9   10 1
  18    9   11 1
  19   10   13 2
  20   11   12 am
  21   11   16 2
  22   12   13 1
  23   12   14 1
  24   14   15 1
  25   14   36 1
  26   14   37 1
  27   15   24 ar
  28   15   28 ar
  29   17   18 1
  30   17   38 1
  31   17   39 1
  32   18   19 ar
  33   18   23 ar
  34   19   20 ar
  35   19   40 1
  36   20   21 ar
  37   20   41 1
  38   21   22 ar
  39   21   42 1
  40   22   23 ar
  41   22   43 1
  42   23   44 1
  43   24   25 ar
  44   24   29 1
  45   25   26 ar
  46   25   45 1
  47   26   27 ar
  48   26   46 1
  49   27   28 ar
  50   27   30 1
  51   28   47 1
  52   29   48 1
  53   29   49 1
  54   29   50 1
  55   30   51 1
  56   30   52 1
  57   30   53 1

#	End of record

