#	Name: ASD01420049
#	Creating user name:	WinNT
#	Creation time:	15. 06. 2019 19:20

#	Modifying user name:	WinNT
#	Modification time:	15. 06. 2019 19:20

#	Program:	/corina/corina34_cracker 3.40 0067  02.08.2006

@<TRIPOS>MOLECULE
ASD01420049
  80   85    0    0    0
SMALL
NO_CHARGES


@<TRIPOS>ATOM
   1 C1            -0.0144     1.2120     0.0087 C.2     
   2 O2             0.2385     0.1773     0.5956 O.2     
   3 C3             0.7516     2.9862    -1.5994 C.3     
   4 N4             0.9292     1.8046    -0.7495 N.am    
   5 C5             2.3297     1.3911    -0.8822 C.3     
   6 C6             3.0024     2.3485    -1.8333 C.ar    
   7 C7             4.3045     2.4066    -2.2965 C.ar    
   8 C8             4.6826     3.4047    -3.1841 C.ar    
   9 C9             3.7495     4.3439    -3.6052 C.ar    
  10 C10            2.4519     4.2808    -3.1397 C.ar    
  11 C11            2.0771     3.2839    -2.2540 C.ar    
  12 N12            5.9972     3.4647    -3.6521 N.3     
  13 C13            6.1763     4.5937    -4.5765 C.3     
  14 C14            7.6411     4.6578    -5.0174 C.3     
  15 O15            8.0106     3.4095    -5.6094 O.3     
  16 C16            7.8492     2.2882    -4.7365 C.3     
  17 C17            6.3866     2.2001    -4.2928 C.3     
  18 C18           -1.3539     1.8143     0.1217 C.ar    
  19 C19           -2.4985     1.0057     0.0480 C.ar    
  20 C20           -3.7533     1.5797     0.1556 C.ar    
  21 C21           -3.8769     2.9498     0.3350 C.ar    
  22 C22           -2.7430     3.7528     0.4082 C.ar    
  23 C23           -1.4900     3.1933     0.3084 C.ar    
  24 C24           -2.8877     5.2401     0.6033 C.3     
  25 C25           -2.1861     5.6553     1.8980 C.3     
  26 C26           -2.2518     5.9738    -0.5792 C.3     
  27 O27           -5.1090     3.5092     0.4392 O.3     
  28 C28           -6.2308     2.6279     0.3552 C.3     
  29 C29           -7.5045     3.4219     0.4906 C.ar    
  30 C30           -8.1198     3.9387    -0.6343 C.ar    
  31 C31           -9.2881     4.6670    -0.5101 C.ar    
  32 C32           -9.8415     4.8781     0.7389 C.ar    
  33 C33           -9.2268     4.3605     1.8637 C.ar    
  34 C34           -8.0607     3.6286     1.7391 C.ar    
  35 O35           -2.3755    -0.3337    -0.1284 O.3     
  36 C36           -3.5842    -1.0932    -0.1939 C.3     
  37 C37           -3.2522    -2.5498    -0.3911 C.ar    
  38 C38           -3.0679    -3.3713     0.7054 C.ar    
  39 C39           -2.7633    -4.7075     0.5245 C.ar    
  40 C40           -2.6435    -5.2223    -0.7528 C.ar    
  41 C41           -2.8286    -4.4011    -1.8492 C.ar    
  42 C42           -3.1375    -3.0659    -1.6683 C.ar    
  43 H43            0.0002     2.7828    -2.3624 H       
  44 H44            0.4410     3.8356    -0.9910 H       
  45 H45            2.8203     1.4307     0.0903 H       
  46 H46            2.3795     0.3779    -1.2811 H       
  47 H47            5.0276     1.6752    -1.9670 H       
  48 H48            4.0393     5.1224    -4.2955 H       
  49 H49            1.7266     5.0111    -3.4667 H       
  50 H50            5.5392     4.4538    -5.4497 H       
  51 H51            5.9067     5.5223    -4.0734 H       
  52 H52            7.7669     5.4580    -5.7467 H       
  53 H53            8.2738     4.8513    -4.1511 H       
  54 H54            8.1256     1.3746    -5.2627 H       
  55 H55            8.4880     2.4128    -3.8621 H       
  56 H56            6.2704     1.3814    -3.5826 H       
  57 H57            5.7528     2.0219    -5.1615 H       
  58 H58           -4.6365     0.9608     0.0994 H       
  59 H59           -0.6122     3.8194     0.3702 H       
  60 H60           -3.9451     5.4974     0.6644 H       
  61 H61           -2.2907     6.7310     2.0391 H       
  62 H62           -2.6391     5.1326     2.7404 H       
  63 H63           -1.1287     5.3980     1.8369 H       
  64 H64           -2.7516     5.6780    -1.5016 H       
  65 H65           -2.3564     7.0496    -0.4381 H       
  66 H66           -1.1944     5.7165    -0.6404 H       
  67 H67           -6.2211     2.1182    -0.6083 H       
  68 H68           -6.1750     1.8912     1.1566 H       
  69 H69           -7.6874     3.7737    -1.6102 H       
  70 H70           -9.7684     5.0713    -1.3889 H       
  71 H71          -10.7539     5.4477     0.8360 H       
  72 H72           -9.6589     4.5258     2.8396 H       
  73 H73           -7.5825     3.2211     2.6175 H       
  74 H74           -4.1415    -0.9700     0.7348 H       
  75 H75           -4.1891    -0.7420    -1.0299 H       
  76 H76           -3.1616    -2.9691     1.7033 H       
  77 H77           -2.6186    -5.3491     1.3811 H       
  78 H78           -2.4048    -6.2661    -0.8941 H       
  79 H79           -2.7347    -4.8032    -2.8471 H       
  80 H80           -3.2858    -2.4251    -2.5250 H       
@<TRIPOS>BOND
   1    1    2 2
   2    1    4 am
   3    1   18 1
   4    3    4 1
   5    3   11 1
   6    3   43 1
   7    3   44 1
   8    4    5 1
   9    5    6 1
  10    5   45 1
  11    5   46 1
  12    6    7 ar
  13    6   11 ar
  14    7    8 ar
  15    7   47 1
  16    8    9 ar
  17    8   12 1
  18    9   10 ar
  19    9   48 1
  20   10   11 ar
  21   10   49 1
  22   12   13 1
  23   12   17 1
  24   13   14 1
  25   13   50 1
  26   13   51 1
  27   14   15 1
  28   14   52 1
  29   14   53 1
  30   15   16 1
  31   16   17 1
  32   16   54 1
  33   16   55 1
  34   17   56 1
  35   17   57 1
  36   18   19 ar
  37   18   23 ar
  38   19   20 ar
  39   19   35 1
  40   20   21 ar
  41   20   58 1
  42   21   22 ar
  43   21   27 1
  44   22   23 ar
  45   22   24 1
  46   23   59 1
  47   24   25 1
  48   24   26 1
  49   24   60 1
  50   25   61 1
  51   25   62 1
  52   25   63 1
  53   26   64 1
  54   26   65 1
  55   26   66 1
  56   27   28 1
  57   28   29 1
  58   28   67 1
  59   28   68 1
  60   29   30 ar
  61   29   34 ar
  62   30   31 ar
  63   30   69 1
  64   31   32 ar
  65   31   70 1
  66   32   33 ar
  67   32   71 1
  68   33   34 ar
  69   33   72 1
  70   34   73 1
  71   35   36 1
  72   36   37 1
  73   36   74 1
  74   36   75 1
  75   37   38 ar
  76   37   42 ar
  77   38   39 ar
  78   38   76 1
  79   39   40 ar
  80   39   77 1
  81   40   41 ar
  82   40   78 1
  83   41   42 ar
  84   41   79 1
  85   42   80 1

#	End of record

