#	Name: ASD01882222
#	Creating user name:	WinNT
#	Creation time:	15. 06. 2019 19:44

#	Modifying user name:	WinNT
#	Modification time:	15. 06. 2019 19:44

#	Program:	/corina/corina34_cracker 3.40 0067  02.08.2006

@<TRIPOS>MOLECULE
ASD01882222
  28   29    0    0    0
SMALL
NO_CHARGES


@<TRIPOS>ATOM
   1 C1            -0.0168     1.3853     0.0097 C.ar    
   2 C2             0.0021    -0.0041     0.0020 C.ar    
   3 C3             1.2100    -0.6771    -0.0131 C.ar    
   4 C4             2.3974     0.0319    -0.0207 C.ar    
   5 C5             2.3801     1.4140    -0.0126 C.ar    
   6 C6             1.1757     2.0920     0.0021 C.ar    
   7 O7            -1.2025     2.0503     0.0189 O.3     
   8 N8             2.6102     6.0954     0.0129 N.3     
   9 C9             1.9194     5.6421     1.2269 C.3     
  10 C10            1.8865     4.1123     1.2555 C.3     
  11 C11            1.1590     3.5989     0.0098 C.3     
  12 C12            1.8700     4.1250    -1.2400 C.3     
  13 C13            1.9034     5.6544    -1.1963 C.3     
  14 F14           -1.1580    -0.6964     0.0098 F       
  15 H15            1.2262    -1.7570    -0.0187 H       
  16 H16            3.3399    -0.4952    -0.0325 H       
  17 H17            3.3090     1.9649    -0.0178 H       
  18 H18           -1.5414     2.2379     0.9049 H       
  19 H19            2.7288     7.0974     0.0172 H       
  20 H20            2.4492     6.0105     2.1053 H       
  21 H21            0.8998     6.0274     1.2298 H       
  22 H22            2.9059     3.7266     1.2665 H       
  23 H23            1.3600     3.7763     2.1488 H       
  24 H24            0.1277     3.9517     0.0190 H       
  25 H25            2.8892     3.7394    -1.2684 H       
  26 H26            1.3318     3.7980    -2.1297 H       
  27 H27            0.8839     6.0396    -1.1820 H       
  28 H28            2.4217     6.0317    -2.0779 H       
@<TRIPOS>BOND
   1    1    2 ar
   2    1    6 ar
   3    1    7 1
   4    2    3 ar
   5    2   14 1
   6    3    4 ar
   7    3   15 1
   8    4    5 ar
   9    4   16 1
  10    5    6 ar
  11    5   17 1
  12    6   11 1
  13    7   18 1
  14    8    9 1
  15    8   13 1
  16    8   19 1
  17    9   10 1
  18    9   20 1
  19    9   21 1
  20   10   11 1
  21   10   22 1
  22   10   23 1
  23   11   12 1
  24   11   24 1
  25   12   13 1
  26   12   25 1
  27   12   26 1
  28   13   27 1
  29   13   28 1

#	End of record

