#	Name: ASD06020049
#	Creating user name:	WinNT
#	Creation time:	15. 06. 2019 21:04

#	Modifying user name:	WinNT
#	Modification time:	15. 06. 2019 21:04

#	Program:	/corina/corina34_cracker 3.40 0067  02.08.2006

@<TRIPOS>MOLECULE
ASD06020049
  31   33    0    0    0
SMALL
NO_CHARGES


@<TRIPOS>ATOM
   1 C1            -0.0162     1.3436     0.0094 C.2     
   2 N2             0.0021    -0.0041     0.0020 N.am    
   3 O3             1.0277     1.9654     0.0028 O.2     
   4 O4            -1.1913     2.0009     0.0186 O.3     
   5 C5             1.2198    -0.6853    -0.0133 C.ar    
   6 C6             1.2339    -2.0835    -0.0209 C.ar    
   7 C7             2.4581    -2.7618    -0.0362 C.ar    
   8 C8             3.6350    -1.9689    -0.0432 C.ar    
   9 C9             3.5291    -0.6119    -0.0349 C.ar    
  10 N10            2.3521    -0.0054    -0.0259 N.ar    
  11 S11           -0.0602    -3.2766    -0.0155 S.3     
  12 C12            1.1248    -4.5763    -0.0340 C.2     
  13 N13            2.3223    -4.0889    -0.0425 N.2     
  14 F14            4.8514    -2.5565    -0.0575 F       
  15 C15            0.7987    -6.0181    -0.0387 C.ar    
  16 C16            1.8216    -6.9688    -0.0537 C.ar    
  17 C17            1.5094    -8.3141    -0.0575 C.ar    
  18 C18            0.1873    -8.7207    -0.0470 C.ar    
  19 C19           -0.8311    -7.7846    -0.0325 C.ar    
  20 C20           -0.5338    -6.4360    -0.0223 C.ar    
  21 Cl21          -1.8134    -5.2631     0.0037 Cl      
  22 Cl22           3.4815    -6.4608    -0.0682 Cl      
  23 C23           -1.1350     3.4517     0.0262 C.3     
  24 H24           -0.8313    -0.5005     0.0073 H       
  25 H25            4.4286    -0.0143    -0.0403 H       
  26 H26            2.2994    -9.0504    -0.0692 H       
  27 H27           -0.0511    -9.7740    -0.0504 H       
  28 H28           -1.8612    -8.1093    -0.0250 H       
  29 H29           -0.6032     3.7900     0.9155 H       
  30 H30           -0.6116     3.7997    -0.8644 H       
  31 H31           -2.1477     3.8546     0.0332 H       
@<TRIPOS>BOND
   1    1    2 am
   2    1    3 2
   3    1    4 1
   4    2    5 1
   5    2   24 1
   6    4   23 1
   7    5    6 ar
   8    5   10 ar
   9    6    7 ar
  10    6   11 1
  11    7    8 ar
  12    7   13 1
  13    8    9 ar
  14    8   14 1
  15    9   10 ar
  16    9   25 1
  17   11   12 1
  18   12   13 2
  19   12   15 1
  20   15   16 ar
  21   15   20 ar
  22   16   17 ar
  23   16   22 1
  24   17   18 ar
  25   17   26 1
  26   18   19 ar
  27   18   27 1
  28   19   20 ar
  29   19   28 1
  30   20   21 1
  31   23   29 1
  32   23   30 1
  33   23   31 1

#	End of record

