#	Name: ASD00460037
#	Creating user name:	WinNT
#	Creation time:	15. 06. 2019 18:36

#	Modifying user name:	WinNT
#	Modification time:	15. 06. 2019 18:36

#	Program:	/corina/corina34_cracker 3.40 0067  02.08.2006

@<TRIPOS>MOLECULE
ASD00460037
  50   52    0    0    0
SMALL
NO_CHARGES


@<TRIPOS>ATOM
   1 C1            -0.0167     1.3779     0.0096 C.ar    
   2 C2             0.0021    -0.0041     0.0020 C.ar    
   3 C3             1.2086    -0.6790    -0.0132 C.ar    
   4 C4             2.3961     0.0283    -0.0208 C.ar    
   5 C5             2.3773     1.4107    -0.0136 C.ar    
   6 C6             1.1711     2.0854     0.0021 C.ar    
   7 C7             3.6720     2.1819    -0.0219 C.3     
   8 C8             4.0966     2.4502    -1.4671 C.3     
   9 C9             5.4111     3.2331    -1.4755 C.3     
  10 N10            5.8188     3.4907    -2.8631 N.3     
  11 C11            7.0800     4.2424    -2.9103 C.3     
  12 C12            7.7769     3.9724    -4.2190 C.ar    
  13 C13            9.1710     4.1153    -4.3192 C.ar    
  14 C14            9.8087     3.8569    -5.5585 C.ar    
  15 C15            9.0345     3.4622    -6.6625 C.ar    
  16 C16            7.6860     3.3333    -6.5278 C.ar    
  17 C17            7.0597     3.5835    -5.3086 C.ar    
  18 C18            6.7866     5.7390    -2.7880 C.3     
  19 C19            9.9457     4.5098    -3.2148 C.ar    
  20 C20           11.2938     4.6381    -3.3494 C.ar    
  21 C21           11.9208     4.3845    -4.5681 C.ar    
  22 C22           11.2033     4.0002    -5.6588 C.ar    
  23 C23            1.2455    -3.3987    -0.0272 C.3     
  24 F24            1.2271    -2.0388    -0.0202 F       
  25 F25            2.5706    -3.8470    -0.0424 F       
  26 F26            0.6036    -3.8797     1.1190 F       
  27 H27           -0.9592     1.9051     0.0170 H       
  28 H28           -0.9258    -0.5567     0.0083 H       
  29 H29            3.3386    -0.4989    -0.0319 H       
  30 H30            1.1565     3.1653     0.0073 H       
  31 H31            3.5336     3.1299     0.4981 H       
  32 H32            4.4444     1.6006     0.4818 H       
  33 H33            4.2350     1.5022    -1.9870 H       
  34 H34            3.3243     3.0314    -1.9708 H       
  35 H35            5.2727     4.1811    -0.9556 H       
  36 H36            6.1834     2.6519    -0.9718 H       
  37 H37            5.8911     2.6298    -3.3844 H       
  38 H38            7.7207     3.9291    -2.0861 H       
  39 H39            9.5067     3.2624    -7.6130 H       
  40 H40            7.0932     3.0301    -7.3781 H       
  41 H41            5.9883     3.4736    -5.2286 H       
  42 H42            6.2826     5.9342    -1.8415 H       
  43 H43            7.7225     6.2967    -2.8230 H       
  44 H44            6.1459     6.0522    -3.6122 H       
  45 H45            9.4736     4.7104    -2.2644 H       
  46 H46           11.8868     4.9414    -2.4992 H       
  47 H47           12.9922     4.4945    -4.6481 H       
  48 H48           11.7028     3.8068    -6.5966 H       
  49 H49            0.7280    -3.7645    -0.9140 H       
  50 H50            0.2672    -2.0519    -0.0109 H       
@<TRIPOS>BOND
   1    1    2 ar
   2    1    6 ar
   3    1   27 1
   4    2    3 ar
   5    2   28 1
   6    3   24 1
   7    3    4 ar
   8    4    5 ar
   9    4   29 1
  10    5    6 ar
  11    5    7 1
  12    6   30 1
  13    7    8 1
  14    7   31 1
  15    7   32 1
  16    8    9 1
  17    8   33 1
  18    8   34 1
  19    9   10 1
  20    9   35 1
  21    9   36 1
  22   10   11 1
  23   10   37 1
  24   11   12 1
  25   11   18 1
  26   11   38 1
  27   12   13 ar
  28   12   17 ar
  29   13   14 ar
  30   13   19 ar
  31   14   15 ar
  32   14   22 ar
  33   15   16 ar
  34   15   39 1
  35   16   17 ar
  36   16   40 1
  37   17   41 1
  38   18   42 1
  39   18   43 1
  40   18   44 1
  41   19   20 ar
  42   19   45 1
  43   20   21 ar
  44   20   46 1
  45   21   22 ar
  46   21   47 1
  47   22   48 1
  48   23   24 1
  49   23   25 1
  50   23   26 1
  51   23   49 1
  52   24   50 1

#	End of record

