#	Name: ASD01900004
#	Creating user name:	WinNT
#	Creation time:	15. 06. 2019 19:51

#	Modifying user name:	WinNT
#	Modification time:	15. 06. 2019 19:51

#	Program:	/corina/corina34_cracker 3.40 0067  02.08.2006

@<TRIPOS>MOLECULE
ASD01900004
  48   51    0    0    0
SMALL
NO_CHARGES


@<TRIPOS>ATOM
   1 N1             0.4913     1.7482    -0.5651 N.ar    
   2 C2             0.3669     0.4414    -0.4132 C.ar    
   3 N3             1.4024    -0.3653    -0.3347 N.ar    
   4 C4             2.6433     0.1125    -0.4071 C.ar    
   5 C5             2.8290     1.4992    -0.5695 C.ar    
   6 C6             1.6874     2.3204    -0.6477 C.ar    
   7 N7             1.8085     3.6870    -0.8063 N.3     
   8 N8             3.8900    -0.4438    -0.3612 N.pl3   
   9 N9             4.8328     0.5836    -0.4932 N.2     
  10 C10            4.2215     1.7276    -0.6160 C.2     
  11 C11            4.1761    -1.8062    -0.2078 C.ar    
  12 C12            3.5068    -2.7486    -0.9771 C.ar    
  13 C13            3.7912    -4.0915    -0.8234 C.ar    
  14 C14            4.7409    -4.4978     0.0957 C.ar    
  15 C15            5.4090    -3.5616     0.8638 C.ar    
  16 C16            5.1340    -2.2171     0.7102 C.ar    
  17 C17            5.8624    -1.1977     1.5476 C.3     
  18 C18            5.0483    -5.9638     0.2611 C.3     
  19 C19            0.4876     4.3300    -0.8615 C.3     
  20 C20            0.6683     5.8458    -0.9774 C.3     
  21 O21            1.4621     6.1395    -2.1303 O.3     
  22 C22            2.7555     5.5296    -2.1093 C.3     
  23 C23            2.5958     4.0105    -2.0049 C.3     
  24 C24           -0.7008     6.5145    -1.1159 C.3     
  25 C25            3.5051     5.8772    -3.3970 C.3     
  26 H26           -0.6251     0.0190    -0.3507 H       
  27 H27            4.6996     2.6889    -0.7339 H       
  28 H28            2.7643    -2.4319    -1.6947 H       
  29 H29            3.2709    -4.8250    -1.4215 H       
  30 H30            6.1500    -3.8821     1.5812 H       
  31 H31            6.7164    -0.8129     0.9902 H       
  32 H32            5.1871    -0.3771     1.7899 H       
  33 H33            6.2105    -1.6657     2.4684 H       
  34 H34            5.8510    -6.2458    -0.4202 H       
  35 H35            5.3590    -6.1562     1.2880 H       
  36 H36            4.1573    -6.5496     0.0353 H       
  37 H37           -0.0607     3.9615    -1.7285 H       
  38 H38           -0.0684     4.0981     0.0470 H       
  39 H39            1.1692     6.2219    -0.0853 H       
  40 H40            3.3170     5.8964    -1.2501 H       
  41 H41            3.5789     3.5455    -1.9311 H       
  42 H42            2.0813     3.6369    -2.8902 H       
  43 H43           -1.3066     6.2872    -0.2388 H       
  44 H44           -0.5714     7.5937    -1.1984 H       
  45 H45           -1.1998     6.1391    -2.0093 H       
  46 H46            3.6151     6.9590    -3.4726 H       
  47 H47            4.4908     5.4121    -3.3804 H       
  48 H48            2.9436     5.5081    -4.2552 H       
@<TRIPOS>BOND
   1    1    2 ar
   2    1    6 ar
   3    2    3 ar
   4    2   26 1
   5    3    4 ar
   6    4    5 ar
   7    4    8 1
   8    5    6 ar
   9    5   10 1
  10    6    7 1
  11    7   19 1
  12    7   23 1
  13    8    9 1
  14    8   11 1
  15    9   10 2
  16   10   27 1
  17   11   12 ar
  18   11   16 ar
  19   12   13 ar
  20   12   28 1
  21   13   14 ar
  22   13   29 1
  23   14   15 ar
  24   14   18 1
  25   15   16 ar
  26   15   30 1
  27   16   17 1
  28   17   31 1
  29   17   32 1
  30   17   33 1
  31   18   34 1
  32   18   35 1
  33   18   36 1
  34   19   20 1
  35   19   37 1
  36   19   38 1
  37   20   21 1
  38   20   24 1
  39   20   39 1
  40   21   22 1
  41   22   23 1
  42   22   25 1
  43   22   40 1
  44   23   41 1
  45   23   42 1
  46   24   43 1
  47   24   44 1
  48   24   45 1
  49   25   46 1
  50   25   47 1
  51   25   48 1

#	End of record

