#	Name: ASD01941075
#	Creating user name:	WinNT
#	Creation time:	15. 06. 2019 20:13

#	Modifying user name:	WinNT
#	Modification time:	15. 06. 2019 20:13

#	Program:	/corina/corina34_cracker 3.40 0067  02.08.2006

@<TRIPOS>MOLECULE
ASD01941075
  51   54    0    0    0
SMALL
NO_CHARGES


@<TRIPOS>ATOM
   1 C1             0.0566     0.8923    -0.2031 C.ar    
   2 C2            -0.9786     0.1741    -0.7895 C.ar    
   3 C3            -2.2320     0.1617    -0.2024 C.ar    
   4 C4            -2.4633     0.8644     0.9727 C.ar    
   5 C5            -1.4483     1.5808     1.5660 C.ar    
   6 C6            -0.1754     1.5983     0.9883 C.ar    
   7 F7            -3.2358    -0.5374    -0.7758 F       
   8 F8            -0.7616    -0.5118    -1.9331 F       
   9 C9             0.9139     2.3631     1.6199 C.2     
  10 O10            2.0454     2.2852     1.1811 O.2     
  11 N11            0.6564     3.1491     2.6841 N.am    
  12 C12            1.4506     3.9661     3.6140 C.3     
  13 C13            0.2104     4.8485     3.8126 C.3     
  14 C14           -0.5430     3.5724     3.4224 C.3     
  15 C15           -0.0156     5.2968     5.2578 C.3     
  16 O16            0.0881     5.9095     2.8632 O.3     
  17 C17           -1.2733     6.1656     5.3315 C.3     
  18 C18           -1.4842     6.6284     6.7757 C.3     
  19 C19           -0.2426     7.3916     7.2453 C.3     
  20 C20            0.9853     6.4873     7.1162 C.3     
  21 N21            1.1441     6.0723     5.7166 N.3     
  22 N22            1.3171     0.9071    -0.7901 N.pl3   
  23 C23            2.1921    -0.1667    -0.5952 C.ar    
  24 C24            3.4782    -0.1227    -1.1231 C.ar    
  25 C25            4.3399    -1.1864    -0.9282 C.ar    
  26 C26            3.9233    -2.2926    -0.2096 C.ar    
  27 C27            2.6445    -2.3385     0.3160 C.ar    
  28 C28            1.7806    -1.2766     0.1307 C.ar    
  29 F29            3.8845     0.9573    -1.8257 F       
  30 I30            5.2318    -3.9024     0.0829 I       
  31 H31           -3.4447     0.8492     1.4234 H       
  32 H32           -1.6343     2.1254     2.4799 H       
  33 H33            1.7510     3.4305     4.5145 H       
  34 H34            2.2807     4.4855     3.1352 H       
  35 H35           -1.4063     3.7564     2.7830 H       
  36 H36           -0.7757     2.9291     4.2710 H       
  37 H37           -0.1414     4.4210     5.8944 H       
  38 H38            0.1758     5.6258     1.9429 H       
  39 H39           -1.1536     7.0347     4.6846 H       
  40 H40           -2.1363     5.5849     5.0057 H       
  41 H41           -2.3544     7.2829     6.8251 H       
  42 H42           -1.6427     5.7612     7.4167 H       
  43 H43           -0.1067     8.2801     6.6285 H       
  44 H44           -0.3692     7.6869     8.2869 H       
  45 H45            1.8732     7.0326     7.4363 H       
  46 H46            0.8547     5.6058     7.7438 H       
  47 H47            1.9998     5.5533     5.5882 H       
  48 H48            1.5897     1.6621    -1.3347 H       
  49 H49            5.3388    -1.1537    -1.3375 H       
  50 H50            2.3226    -3.2040     0.8761 H       
  51 H51            0.7826    -1.3138     0.5418 H       
@<TRIPOS>BOND
   1    1    2 ar
   2    1   22 1
   3    1    6 ar
   4    2    3 ar
   5    2    8 1
   6    3    4 ar
   7    3    7 1
   8    4    5 ar
   9    4   31 1
  10    5    6 ar
  11    5   32 1
  12    6    9 1
  13    9   10 2
  14    9   11 am
  15   11   12 1
  16   11   14 1
  17   12   13 1
  18   12   33 1
  19   12   34 1
  20   13   14 1
  21   13   16 1
  22   13   15 1
  23   14   35 1
  24   14   36 1
  25   15   17 1
  26   15   21 1
  27   15   37 1
  28   16   38 1
  29   17   18 1
  30   17   39 1
  31   17   40 1
  32   18   19 1
  33   18   41 1
  34   18   42 1
  35   19   20 1
  36   19   43 1
  37   19   44 1
  38   20   21 1
  39   20   45 1
  40   20   46 1
  41   21   47 1
  42   22   23 1
  43   22   48 1
  44   23   24 ar
  45   23   28 ar
  46   24   25 ar
  47   24   29 1
  48   25   26 ar
  49   25   49 1
  50   26   27 ar
  51   26   30 1
  52   27   28 ar
  53   27   50 1
  54   28   51 1

#	End of record

