#	Name: ASD01915829
#	Creating user name:	WinNT
#	Creation time:	15. 06. 2019 20:06

#	Modifying user name:	WinNT
#	Modification time:	15. 06. 2019 20:06

#	Program:	/corina/corina34_cracker 3.40 0067  02.08.2006

@<TRIPOS>MOLECULE
ASD01915829
  34   36    0    0    0
SMALL
NO_CHARGES


@<TRIPOS>ATOM
   1 C1            -0.0166     1.3736     0.0096 C.2     
   2 N2             0.0021    -0.0041     0.0020 N.pl3   
   3 C3            -1.2451    -0.7770     0.0110 C.3     
   4 C4            -2.3226     0.0138     0.7509 C.3     
   5 N5            -2.3981     1.4042     0.3186 N.am    
   6 C6            -1.2846     2.1200     0.0203 C.2     
   7 C7             1.2836     1.7913    -0.0006 C.2     
   8 C8             2.0431     0.6135    -0.0147 C.2     
   9 N9             1.2130    -0.4035    -0.0125 N.2     
  10 C10            3.5477     0.5294    -0.0304 C.3     
  11 O11            4.0985     1.8479    -0.0286 O.3     
  12 C12            5.4540     1.9505    -0.0417 C.ar    
  13 O13           -1.3315     3.3121    -0.2164 O.2     
  14 C14            6.0556     3.2004    -0.0409 C.ar    
  15 C15            6.2368     0.8055    -0.0502 C.ar    
  16 C16            7.6142     0.9112    -0.0636 C.ar    
  17 C17            8.2133     2.1594    -0.0680 C.ar    
  18 C18            7.4332     3.3032    -0.0542 C.ar    
  19 H19           -3.2670     1.8279     0.2388 H       
  20 F20            9.5604     2.2614    -0.0802 F       
  21 C21           -1.6974    -1.0338    -1.4279 C.3     
  22 H22           -1.0801    -1.7283     0.5167 H       
  23 H23           -3.2884    -0.4612     0.5784 H       
  24 H24           -2.1064    -0.0112     1.8189 H       
  25 H25            1.6474     2.8081     0.0018 H       
  26 H26            3.8907    -0.0089     0.8532 H       
  27 H27            3.8728     0.0010    -0.9266 H       
  28 H28            5.4474     4.0927    -0.0301 H       
  29 H29            5.7698    -0.1683    -0.0460 H       
  30 H30            8.2239     0.0198    -0.0702 H       
  31 H31            7.9019     4.2762    -0.0578 H       
  32 H32           -0.9265    -1.5947    -1.9563 H       
  33 H33           -2.6238    -1.6080    -1.4205 H       
  34 H34           -1.8639    -0.0818    -1.9318 H       
@<TRIPOS>BOND
   1    1    2 1
   2    1    7 2
   3    1    6 1
   4    2    3 1
   5    2    9 1
   6    3    4 1
   7    3   21 1
   8    3   22 1
   9    4    5 1
  10    4   23 1
  11    4   24 1
  12    5    6 am
  13    5   19 1
  14    6   13 2
  15    7    8 1
  16    7   25 1
  17    8    9 2
  18    8   10 1
  19   10   11 1
  20   10   26 1
  21   10   27 1
  22   11   12 1
  23   12   14 ar
  24   12   15 ar
  25   14   18 ar
  26   14   28 1
  27   15   16 ar
  28   15   29 1
  29   16   17 ar
  30   16   30 1
  31   17   18 ar
  32   17   20 1
  33   18   31 1
  34   21   32 1
  35   21   33 1
  36   21   34 1

#	End of record

