#	Name: ASD01900377
#	Creating user name:	WinNT
#	Creation time:	15. 06. 2019 19:51

#	Modifying user name:	WinNT
#	Modification time:	15. 06. 2019 19:51

#	Program:	/corina/corina34_cracker 3.40 0067  02.08.2006

@<TRIPOS>MOLECULE
ASD01900377
  34   36    0    0    0
SMALL
NO_CHARGES


@<TRIPOS>ATOM
   1 C1            -0.0731     1.1713     0.8838 C.ar    
   2 C2            -0.0233    -0.1017     0.3309 C.ar    
   3 N3             1.1181    -0.7296     0.1621 N.ar    
   4 C4             2.2752    -0.1734     0.5128 C.ar    
   5 C5             2.3002     1.1155     1.0791 C.ar    
   6 C6             1.0977     1.7962     1.2659 C.ar    
   7 C7             3.6702    -0.6158     0.4487 C.2     
   8 N8             4.4141     0.3412     0.9365 N.2     
   9 N9             3.6123     1.4167     1.3326 N.pl3   
  10 N10            4.1242    -1.8423    -0.0458 N.pl3   
  11 C11            5.4973    -2.0885    -0.1525 C.ar    
  12 C12            5.9797    -3.3869    -0.0543 C.ar    
  13 C13            6.3776    -1.0348    -0.3624 C.ar    
  14 C14            7.7340    -1.2765    -0.4690 C.ar    
  15 C15            8.2188    -2.5703    -0.3662 C.ar    
  16 C16            7.3393    -3.6288    -0.1607 C.ar    
  17 O17            7.8146    -4.8988    -0.0593 O.3     
  18 C18            6.8544    -5.9360     0.1514 C.3     
  19 F19            6.1637    -5.6968     1.3442 F       
  20 F20            5.9495    -5.9574    -0.9153 F       
  21 O21            9.5549    -2.8065    -0.4713 O.3     
  22 C22           10.3990    -1.6738    -0.6873 C.3     
  23 H23           -1.0218     1.6717     1.0102 H       
  24 H24           -0.9420    -0.5855     0.0339 H       
  25 H25            1.0823     2.7861     1.6976 H       
  26 H26            3.9340     2.2438     1.7241 H       
  27 H27            3.4872    -2.5225    -0.3149 H       
  28 H28            5.2955    -4.2071     0.1051 H       
  29 H29            6.0015    -0.0255    -0.4428 H       
  30 H30            8.4168    -0.4560    -0.6329 H       
  31 H31            7.3653    -6.8969     0.2137 H       
  32 H32           10.1147    -1.1808    -1.6169 H       
  33 H33           10.2894    -0.9756     0.1425 H       
  34 H34           11.4367    -2.0011    -0.7522 H       
@<TRIPOS>BOND
   1    1    2 ar
   2    1    6 ar
   3    1   23 1
   4    2    3 ar
   5    2   24 1
   6    3    4 ar
   7    4    5 ar
   8    4    7 1
   9    5    6 ar
  10    5    9 1
  11    6   25 1
  12    7    8 2
  13    7   10 1
  14    8    9 1
  15    9   26 1
  16   10   11 1
  17   10   27 1
  18   11   12 ar
  19   11   13 ar
  20   12   16 ar
  21   12   28 1
  22   13   14 ar
  23   13   29 1
  24   14   15 ar
  25   14   30 1
  26   15   16 ar
  27   15   21 1
  28   16   17 1
  29   17   18 1
  30   18   19 1
  31   18   20 1
  32   18   31 1
  33   21   22 1
  34   22   32 1
  35   22   33 1
  36   22   34 1

#	End of record

