#	Name: ASD03090959
#	Creating user name:	WinNT
#	Creation time:	15. 06. 2019 20:29

#	Modifying user name:	WinNT
#	Modification time:	15. 06. 2019 20:29

#	Program:	/corina/corina34_cracker 3.40 0067  02.08.2006

@<TRIPOS>MOLECULE
ASD03090959
  50   52    0    0    0
SMALL
NO_CHARGES


@<TRIPOS>ATOM
   1 N1            -0.0398     1.2521     0.9356 N.am    
   2 C2            -0.0152    -0.0710     0.6806 C.2     
   3 O3             1.0494    -0.6625     0.6310 O.2     
   4 N4            -1.1578    -0.7344     0.4820 N.2     
   5 C5             1.2131     1.9796     1.1533 C.3     
   6 C6             1.7160     2.4869    -0.1337 C.1     
   7 C7             2.1170     2.8915    -1.1602 C.1     
   8 S8             0.2562    -3.0522     0.1197 S.3     
   9 C9            -1.1335    -2.0411     0.2301 C.2     
  10 N10           -2.1987    -2.8518     0.0077 N.pl3   
  11 C11           -1.9336    -4.1660    -0.2304 C.2     
  12 C12           -0.6584    -4.5308    -0.2227 C.2     
  13 O13           -7.3741    -0.8848     0.0781 O.3     
  14 C14           -8.4123    -1.7492    -0.3960 C.3     
  15 C15           -8.2087    -3.1342     0.2329 C.3     
  16 O16           -6.9212    -3.6205    -0.1616 O.3     
  17 C17           -5.8806    -2.7488    -0.0610 C.ar    
  18 C18           -6.1064    -1.3819     0.0568 C.ar    
  19 C19           -4.5831    -3.2357    -0.0763 C.ar    
  20 C20           -3.5113    -2.3592     0.0230 C.ar    
  21 C21           -3.7397    -0.9950     0.1377 C.ar    
  22 C22           -5.0330    -0.5092     0.1545 C.ar    
  23 F23           -8.2679    -3.0328     1.6270 F       
  24 F24           -9.2025    -4.0087    -0.2198 F       
  25 F25           -9.6595    -1.2390    -0.0199 F       
  26 F26           -8.3434    -1.8491    -1.7897 F       
  27 C27           -0.1039    -5.9125    -0.4557 C.3     
  28 C28           -1.3190     1.9642     0.9892 C.3     
  29 C29           -1.8577     1.9379     2.4209 C.3     
  30 C30           -3.1286     2.7859     2.5033 C.3     
  31 C31           -2.1802     0.4960     2.8182 C.3     
  32 H32            1.0348     2.8161     1.8290 H       
  33 H33            1.9512     1.3085     1.5927 H       
  34 H34            2.4757     3.2534    -2.0783 H       
  35 H35           -2.7243    -4.8777    -0.4167 H       
  36 H36           -4.4058    -4.2972    -0.1662 H       
  37 H37           -2.9060    -0.3127     0.2139 H       
  38 H38           -5.2085     0.5527     0.2435 H       
  39 H39            0.9833    -5.8847    -0.3828 H       
  40 H40           -0.5011    -6.5949     0.2957 H       
  41 H41           -0.3927    -6.2573    -1.4486 H       
  42 H42           -1.1730     2.9976     0.6748 H       
  43 H43           -2.0329     1.4792     0.3234 H       
  44 H44           -1.1065     2.3423     3.0993 H       
  45 H45           -3.8798     2.3815     1.8249 H       
  46 H46           -3.5124     2.7672     3.5233 H       
  47 H47           -2.8989     3.8132     2.2203 H       
  48 H48           -2.5640     0.4773     3.8382 H       
  49 H49           -2.9314     0.0916     2.1398 H       
  50 H50           -1.2748    -0.1082     2.7595 H       
@<TRIPOS>BOND
   1    1    2 am
   2    1    5 1
   3    1   28 1
   4    2    3 2
   5    2    4 1
   6    4    9 2
   7    5    6 1
   8    5   32 1
   9    5   33 1
  10    6    7 3
  11    7   34 1
  12    8    9 1
  13    8   12 1
  14    9   10 1
  15   10   11 1
  16   10   20 1
  17   11   12 2
  18   11   35 1
  19   12   27 1
  20   13   14 1
  21   13   18 1
  22   14   15 1
  23   14   25 1
  24   14   26 1
  25   15   16 1
  26   15   23 1
  27   15   24 1
  28   16   17 1
  29   17   18 ar
  30   17   19 ar
  31   18   22 ar
  32   19   20 ar
  33   19   36 1
  34   20   21 ar
  35   21   22 ar
  36   21   37 1
  37   22   38 1
  38   27   39 1
  39   27   40 1
  40   27   41 1
  41   28   29 1
  42   28   42 1
  43   28   43 1
  44   29   30 1
  45   29   31 1
  46   29   44 1
  47   30   45 1
  48   30   46 1
  49   30   47 1
  50   31   48 1
  51   31   49 1
  52   31   50 1

#	End of record

