#	Name: ASD05430687
#	Creating user name:	WinNT
#	Creation time:	15. 06. 2019 21:00

#	Modifying user name:	WinNT
#	Modification time:	15. 06. 2019 21:00

#	Program:	/corina/corina34_cracker 3.40 0067  02.08.2006

@<TRIPOS>MOLECULE
ASD05430687
  24   24    0    0    0
SMALL
NO_CHARGES


@<TRIPOS>ATOM
   1 C1            -0.0167     1.3779     0.0096 C.ar    
   2 C2             0.0021    -0.0041     0.0020 C.ar    
   3 C3            -1.1873    -0.7132     0.0096 C.ar    
   4 C4            -2.4126     1.3465     0.0439 C.ar    
   5 C5            -1.2221     2.0536     0.0305 C.ar    
   6 C6             1.2784     2.1485     0.0014 C.3     
   7 C7            -2.3952    -0.0375     0.0252 C.ar    
   8 C8             2.0735     1.7962    -1.2574 C.3     
   9 C9             0.9791     3.6489     0.0123 C.3     
  10 C10            2.0973     1.7828     1.2409 C.3     
  11 F11           -1.1687    -2.0641     0.0012 F       
  12 F12           -3.5909     2.0072     0.0648 F       
  13 H13            0.9447    -0.5311    -0.0102 H       
  14 H14           -1.2354     3.1334     0.0451 H       
  15 H15           -3.3233    -0.5898     0.0356 H       
  16 H16            1.4900     2.0567    -2.1405 H       
  17 H17            3.0102     2.3535    -1.2634 H       
  18 H18            2.2867     0.7273    -1.2652 H       
  19 H19            0.4127     3.8999     0.9091 H       
  20 H20            1.9158     4.2063     0.0064 H       
  21 H21            0.3957     3.9094    -0.8708 H       
  22 H22            2.3106     0.7138     1.2331 H       
  23 H23            3.0340     2.3401     1.2350 H       
  24 H24            1.5309     2.0337     2.1377 H       
@<TRIPOS>BOND
   1    1    2 ar
   2    1    6 1
   3    1    5 ar
   4    2    3 ar
   5    2   13 1
   6    3   11 1
   7    3    7 ar
   8    4    5 ar
   9    4   12 1
  10    4    7 ar
  11    5   14 1
  12    6    8 1
  13    6    9 1
  14    6   10 1
  15    7   15 1
  16    8   16 1
  17    8   17 1
  18    8   18 1
  19    9   19 1
  20    9   20 1
  21    9   21 1
  22   10   22 1
  23   10   23 1
  24   10   24 1

#	End of record

