#	Name: ASD01812857
#	Creating user name:	WinNT
#	Creation time:	15. 06. 2019 19:29

#	Modifying user name:	WinNT
#	Modification time:	15. 06. 2019 19:29

#	Program:	/corina/corina34_cracker 3.40 0067  02.08.2006

@<TRIPOS>MOLECULE
ASD01812857
  56   60    0    0    0
SMALL
NO_CHARGES


@<TRIPOS>ATOM
   1 N1             0.0027     1.3184    -0.2224 N.ar    
   2 C2             0.0319     0.0058    -0.3460 C.ar    
   3 C3             1.2340    -0.6843    -0.3682 C.ar    
   4 C4             2.4113     0.0205    -0.2593 C.ar    
   5 C5             2.3614     1.4132    -0.1292 C.ar    
   6 C6             1.1073     2.0395    -0.1145 C.ar    
   7 C7             3.8682    -0.3581    -0.2428 C.3     
   8 N8             4.6151     0.8975    -0.0972 N.am    
   9 C9             3.7395     1.9163    -0.0322 C.2     
  10 C10            6.0736     1.0204    -0.0337 C.3     
  11 C11            6.6239     1.1966    -1.4255 C.ar    
  12 C12            6.5792     2.4406    -2.0332 C.ar    
  13 C13            7.0836     2.6063    -3.3100 C.ar    
  14 C14            7.6364     1.5201    -3.9834 C.ar    
  15 C15            7.6783     0.2716    -3.3664 C.ar    
  16 C16            7.1772     0.1171    -2.0898 C.ar    
  17 O17            1.0259     3.3855     0.0100 O.3     
  18 O18            4.0442     3.0870     0.0899 O.2     
  19 C19           -0.2021     3.9617    -0.0802 C.ar    
  20 C20           -1.0087     4.0614     1.0465 C.ar    
  21 C21           -2.2577     4.6483     0.9509 C.ar    
  22 C22           -2.7025     5.1344    -0.2646 C.ar    
  23 C23           -1.9011     5.0354    -1.3870 C.ar    
  24 C24           -0.6499     4.4562    -1.2961 C.ar    
  25 C25           -4.0638     5.7728    -0.3664 C.3     
  26 F26           -0.5740     3.5855     2.2339 F       
  27 F27           -4.5804     5.5674    -1.6502 F       
  28 F28           -4.9204     5.1979     0.5785 F       
  29 C29            7.5426     2.2857    -6.4052 C.2     
  30 C30            8.1792     1.6918    -5.3547 C.2     
  31 C31            9.4451     1.2719    -5.8074 C.2     
  32 N32            9.5553     1.6008    -7.0672 N.2     
  33 N33            8.3741     2.2383    -7.4655 N.pl3   
  34 C34            8.0902     2.7628    -8.8036 C.3     
  35 C35           10.4905     0.5666    -4.9824 C.3     
  36 F36            6.0420     3.4928    -1.3780 F       
  37 H37           -0.8959    -0.5406    -0.4310 H       
  38 H38            1.2466    -1.7595    -0.4692 H       
  39 H39            4.0747    -1.0171     0.6004 H       
  40 H40            4.1385    -0.8488    -1.1778 H       
  41 H41            6.3392     1.8853     0.5742 H       
  42 H42            6.4951     0.1196     0.4123 H       
  43 H43            7.0485     3.5761    -3.7841 H       
  44 H44            8.1059    -0.5737    -3.8852 H       
  45 H45            7.2137    -0.8498    -1.6099 H       
  46 H46           -2.8858     4.7265     1.8260 H       
  47 H47           -2.2518     5.4154    -2.3351 H       
  48 H48           -0.0231     4.3839    -2.1726 H       
  49 H49           -3.9784     6.8427    -0.1761 H       
  50 H50            6.5505     2.7122    -6.3912 H       
  51 H51            8.4176     3.8007    -8.8641 H       
  52 H52            8.6232     2.1698    -9.5469 H       
  53 H53            7.0186     2.7080    -8.9956 H       
  54 H54           10.3445    -0.5111    -5.0549 H       
  55 H55           11.4820     0.8247    -5.3545 H       
  56 H56           10.4013     0.8761    -3.9411 H       
@<TRIPOS>BOND
   1    1    2 ar
   2    1    6 ar
   3    2    3 ar
   4    2   37 1
   5    3    4 ar
   6    3   38 1
   7    4    7 1
   8    4    5 ar
   9    5    6 ar
  10    5    9 1
  11    6   17 1
  12    7    8 1
  13    7   39 1
  14    7   40 1
  15    8    9 am
  16    8   10 1
  17    9   18 2
  18   10   11 1
  19   10   41 1
  20   10   42 1
  21   11   12 ar
  22   11   16 ar
  23   12   13 ar
  24   12   36 1
  25   13   14 ar
  26   13   43 1
  27   14   15 ar
  28   14   30 1
  29   15   16 ar
  30   15   44 1
  31   16   45 1
  32   17   19 1
  33   19   20 ar
  34   19   24 ar
  35   20   21 ar
  36   20   26 1
  37   21   22 ar
  38   21   46 1
  39   22   23 ar
  40   22   25 1
  41   23   24 ar
  42   23   47 1
  43   24   48 1
  44   25   27 1
  45   25   28 1
  46   25   49 1
  47   29   30 2
  48   29   33 1
  49   29   50 1
  50   30   31 1
  51   31   35 1
  52   31   32 2
  53   32   33 1
  54   33   34 1
  55   34   51 1
  56   34   52 1
  57   34   53 1
  58   35   54 1
  59   35   55 1
  60   35   56 1

#	End of record

