#	Name: ASD01884917
#	Creating user name:	WinNT
#	Creation time:	15. 06. 2019 19:49

#	Modifying user name:	WinNT
#	Modification time:	15. 06. 2019 19:49

#	Program:	/corina/corina34_cracker 3.40 0067  02.08.2006

@<TRIPOS>MOLECULE
ASD01884917
  47   51    0    0    0
SMALL
NO_CHARGES


@<TRIPOS>ATOM
   1 C1             0.0395     1.4368    -0.2847 C.ar    
   2 C2             0.1460     0.1523    -0.7781 C.ar    
   3 C3            -0.9330    -0.4278    -1.4460 C.ar    
   4 C4            -2.1154     0.2926    -1.6126 C.ar    
   5 C5            -2.2158     1.5759    -1.1173 C.ar    
   6 C6            -1.1436     2.1497    -0.4485 C.ar    
   7 C7            -0.8226    -1.8063    -1.9775 C.2     
   8 C8            -1.6129    -2.8176    -1.4644 C.2     
   9 C9             0.0897    -2.0996    -3.0204 C.2     
  10 C10            0.1882    -3.3527    -3.5022 C.2     
  11 N11           -0.5845    -4.3588    -2.9975 N.pl3   
  12 C12           -1.4854    -4.1149    -1.9891 C.2     
  13 C13           -0.6952    -5.6860    -3.2816 C.2     
  14 N14           -1.6023    -6.1856    -2.4826 N.2     
  15 N15           -2.0765    -5.2678    -1.7155 N.2     
  16 C16            0.0846    -6.4413    -4.3268 C.3     
  17 O17           -1.2462     3.4144     0.0381 O.3     
  18 C18           -2.4480     4.0379    -0.0563 C.ar    
  19 C19           -3.4001     3.9102     0.9521 C.ar    
  20 C20           -4.6099     4.5604     0.8188 C.ar    
  21 N21           -4.8691     5.2945    -0.2465 N.ar    
  22 C22           -3.9929     5.4397    -1.2228 C.ar    
  23 C23           -2.7586     4.8267    -1.1618 C.ar    
  24 C24           -4.3432     6.2901    -2.4165 C.3     
  25 F25            1.0830     2.0000     0.3627 F       
  26 C26            0.9569    -7.6055    -3.8531 C.3     
  27 C27           -0.3381    -7.8824    -4.6193 C.3     
  28 C28           -2.5964    -2.5332    -0.3585 C.3     
  29 F29           -3.8583    -2.2851    -0.9090 F       
  30 F30           -2.6695    -3.6384     0.4962 F       
  31 F31           -2.1742    -1.4121     0.3641 F       
  32 H32            1.0631    -0.4028    -0.6477 H       
  33 H33           -2.9519    -0.1540    -2.1295 H       
  34 H34           -3.1316     2.1336    -1.2465 H       
  35 H35            0.7083    -1.3151    -3.4307 H       
  36 H36            0.8868    -3.5647    -4.2980 H       
  37 H37            0.4515    -5.8447    -5.1619 H       
  38 H38           -3.1945     3.3102     1.8263 H       
  39 H39           -5.3540     4.4669     1.5960 H       
  40 H40           -2.0461     4.9499    -1.9640 H       
  41 H41           -4.0374     7.3198    -2.2314 H       
  42 H42           -3.8260     5.9102    -3.2976 H       
  43 H43           -5.4197     6.2554    -2.5841 H       
  44 H44            1.8977    -7.7751    -4.3769 H       
  45 H45            0.9669    -7.8252    -2.7855 H       
  46 H46           -1.1802    -8.2841    -4.0558 H       
  47 H47           -0.2494    -8.2341    -5.6472 H       
@<TRIPOS>BOND
   1    1    2 ar
   2    1   25 1
   3    1    6 ar
   4    2    3 ar
   5    2   32 1
   6    3    4 ar
   7    3    7 1
   8    4    5 ar
   9    4   33 1
  10    5    6 ar
  11    5   34 1
  12    6   17 1
  13    7    8 2
  14    7    9 1
  15    8   28 1
  16    8   12 1
  17    9   10 2
  18    9   35 1
  19   10   11 1
  20   10   36 1
  21   11   12 1
  22   11   13 1
  23   12   15 2
  24   13   14 2
  25   13   16 1
  26   14   15 1
  27   16   26 1
  28   16   27 1
  29   16   37 1
  30   17   18 1
  31   18   19 ar
  32   18   23 ar
  33   19   20 ar
  34   19   38 1
  35   20   21 ar
  36   20   39 1
  37   21   22 ar
  38   22   23 ar
  39   22   24 1
  40   23   40 1
  41   24   41 1
  42   24   42 1
  43   24   43 1
  44   26   27 1
  45   26   44 1
  46   26   45 1
  47   27   46 1
  48   27   47 1
  49   28   29 1
  50   28   30 1
  51   28   31 1

#	End of record

