#	Name: ASD03331589
#	Creating user name:	WinNT
#	Creation time:	15. 06. 2019 20:39

#	Modifying user name:	WinNT
#	Modification time:	15. 06. 2019 20:39

#	Program:	/corina/corina34_cracker 3.40 0067  02.08.2006

@<TRIPOS>MOLECULE
ASD03331589
  65   67    0    0    0
SMALL
NO_CHARGES


@<TRIPOS>ATOM
   1 C1            -0.0121     0.8215     1.4890 C.ar    
   2 C2            -0.0057    -0.5912     1.0504 C.2     
   3 N3            -1.0558    -1.4583     1.1428 N.pl3   
   4 C4            -0.6364    -2.6565     0.6557 C.2     
   5 C5             0.6527    -2.4964     0.2485 C.2     
   6 N6             1.0088    -1.2180     0.5026 N.2     
   7 C7             1.5050    -3.5303    -0.3645 C.2     
   8 O8             1.0667    -4.6499    -0.5474 O.2     
   9 N9             2.7704    -3.2352    -0.7227 N.am    
  10 C10            3.6178    -4.2631    -1.3322 C.3     
  11 C11            5.0668    -3.9326    -1.0824 C.2     
  12 C12           -2.3988    -1.1605     1.6503 C.3     
  13 C13           -3.0271    -2.4450     2.1979 C.3     
  14 C14           -3.7033    -3.2138     1.0648 C.3     
  15 O15           -2.7545    -3.6066     0.0802 O.3     
  16 C16           -1.4600    -3.9167     0.6077 C.3     
  17 C17            3.3580    -4.3105    -2.8392 C.3     
  18 C18            3.6287    -2.9328    -3.4470 C.3     
  19 C19            4.2843    -5.3434    -3.4842 C.3     
  20 C20            1.9011    -4.7028    -3.0935 C.3     
  21 C21            1.1914     1.4849     1.7296 C.ar    
  22 N22            6.0079    -4.8888    -1.2109 N.am    
  23 O23            5.3860    -2.8062    -0.7658 O.2     
  24 C24            7.4024    -4.5942    -0.8723 C.3     
  25 C25            1.1795     2.8041     2.1390 C.ar    
  26 C26           -0.0270     3.4679     2.3110 C.ar    
  27 C27           -1.2237     2.8117     2.0732 C.ar    
  28 C28           -1.2217     1.4965     1.6577 C.ar    
  29 F29           -0.0346     4.7581     2.7119 F       
  30 F30            2.3436     3.4487     2.3727 F       
  31 C31            7.4938    -4.1807     0.5980 C.3     
  32 C32            8.2582    -5.8408    -1.1057 C.3     
  33 C33            7.9116    -3.4534    -1.7555 C.3     
  34 H34            3.1200    -2.3422    -0.5768 H       
  35 H35            3.3854    -5.2331    -0.8927 H       
  36 H36           -2.3309    -0.4199     2.4473 H       
  37 H37           -3.0155    -0.7698     0.8409 H       
  38 H38           -2.2508    -3.0662     2.6445 H       
  39 H39           -3.7678    -2.1913     2.9562 H       
  40 H40           -4.1851    -4.1024     1.4725 H       
  41 H41           -4.4582    -2.5786     0.6015 H       
  42 H42           -0.9701    -4.6485    -0.0346 H       
  43 H43           -1.5638    -4.3233     1.6137 H       
  44 H44            4.6665    -2.6533    -3.2659 H       
  45 H45            3.4436    -2.9666    -4.5207 H       
  46 H46            2.9687    -2.1969    -2.9875 H       
  47 H47            4.0933    -6.3245    -3.0493 H       
  48 H48            4.0974    -5.3791    -4.5575 H       
  49 H49            5.3222    -5.0625    -3.3053 H       
  50 H50            1.2412    -3.9670    -2.6340 H       
  51 H51            1.7160    -4.7366    -4.1671 H       
  52 H52            1.7083    -5.6844    -2.6605 H       
  53 H53            2.1303     0.9681     1.5965 H       
  54 H54            5.7618    -5.7720    -1.5275 H       
  55 H55           -2.1601     3.3325     2.2088 H       
  56 H56           -2.1556     0.9866     1.4728 H       
  57 H57            7.1311    -4.9935     1.2272 H       
  58 H58            8.5314    -3.9616     0.8499 H       
  59 H59            6.8842    -3.2926     0.7642 H       
  60 H60            8.1931    -6.1354    -2.1531 H       
  61 H61            9.2958    -5.6216    -0.8537 H       
  62 H62            7.8954    -6.6536    -0.4764 H       
  63 H63            7.3020    -2.5652    -1.5892 H       
  64 H64            8.9492    -3.2342    -1.5036 H       
  65 H65            7.8465    -3.7479    -2.8029 H       
@<TRIPOS>BOND
   1    1    2 1
   2    1   21 ar
   3    1   28 ar
   4    2    3 1
   5    2    6 2
   6    3    4 1
   7    3   12 1
   8    4    5 2
   9    4   16 1
  10    5    6 1
  11    5    7 1
  12    7    8 2
  13    7    9 am
  14    9   10 1
  15    9   34 1
  16   10   11 1
  17   10   17 1
  18   10   35 1
  19   11   22 am
  20   11   23 2
  21   12   13 1
  22   12   36 1
  23   12   37 1
  24   13   14 1
  25   13   38 1
  26   13   39 1
  27   14   15 1
  28   14   40 1
  29   14   41 1
  30   15   16 1
  31   16   42 1
  32   16   43 1
  33   17   18 1
  34   17   19 1
  35   17   20 1
  36   18   44 1
  37   18   45 1
  38   18   46 1
  39   19   47 1
  40   19   48 1
  41   19   49 1
  42   20   50 1
  43   20   51 1
  44   20   52 1
  45   21   25 ar
  46   21   53 1
  47   22   24 1
  48   22   54 1
  49   24   31 1
  50   24   32 1
  51   24   33 1
  52   25   26 ar
  53   25   30 1
  54   26   27 ar
  55   26   29 1
  56   27   28 ar
  57   27   55 1
  58   28   56 1
  59   31   57 1
  60   31   58 1
  61   31   59 1
  62   32   60 1
  63   32   61 1
  64   32   62 1
  65   33   63 1
  66   33   64 1
  67   33   65 1

#	End of record

