#	Name: ASD01883099
#	Creating user name:	WinNT
#	Creation time:	15. 06. 2019 19:45

#	Modifying user name:	WinNT
#	Modification time:	15. 06. 2019 19:45

#	Program:	/corina/corina34_cracker 3.40 0067  02.08.2006

@<TRIPOS>MOLECULE
ASD01883099
  42   44    0    0    0
SMALL
NO_CHARGES


@<TRIPOS>ATOM
   1 N1            -0.0162     1.3417     0.0094 N.am    
   2 C2             0.0021    -0.0041     0.0020 C.2     
   3 C3            -1.2166    -0.7275     0.0102 C.2     
   4 C4            -2.4257    -0.0118     0.0261 C.2     
   5 C5            -2.3786     1.3954     0.0332 C.2     
   6 C6            -1.1848     2.0319     0.0299 C.2     
   7 O7             1.0656    -0.6000    -0.0121 O.2     
   8 C8            -1.2158    -2.1595     0.0021 C.1     
   9 N9            -1.2152    -3.2954    -0.0044 N.1     
  10 C10            1.2511     2.0766     0.0013 C.3     
  11 C11           -3.7229    -0.7230     0.0347 C.ar    
  12 C12            1.6785     2.3402    -1.4440 C.3     
  13 C13            3.0021     3.1077    -1.4525 C.3     
  14 C14            3.4231     3.3673    -2.8760 C.ar    
  15 C15            3.0157     4.5220    -3.5176 C.ar    
  16 C16            3.4018     4.7601    -4.8234 C.ar    
  17 C17            4.1957     3.8438    -5.4875 C.ar    
  18 C18            4.6038     2.6895    -4.8456 C.ar    
  19 C19            4.2213     2.4535    -3.5383 C.ar    
  20 C20           -4.5720    -0.6188     1.1376 C.ar    
  21 C21           -5.7803    -1.2846     1.1392 C.ar    
  22 C22           -6.1508    -2.0546     0.0510 C.ar    
  23 C23           -5.3137    -2.1620    -1.0455 C.ar    
  24 C24           -4.1055    -1.4964    -1.0624 C.ar    
  25 H25           -3.2952     1.9665     0.0453 H       
  26 H26           -1.1612     3.1116     0.0354 H       
  27 H27            1.1240     3.0260     0.5214 H       
  28 H28            2.0167     1.4862     0.5046 H       
  29 H29            1.8057     1.3908    -1.9642 H       
  30 H30            0.9129     2.9306    -1.9474 H       
  31 H31            2.8749     4.0571    -0.9323 H       
  32 H32            3.7677     2.5173    -0.9491 H       
  33 H33            2.3954     5.2379    -2.9988 H       
  34 H34            3.0829     5.6619    -5.3249 H       
  35 H35            4.4968     4.0295    -6.5079 H       
  36 H36            5.2238     1.9735    -5.3645 H       
  37 H37            4.5402     1.5517    -3.0368 H       
  38 H38           -4.2836    -0.0187     1.9879 H       
  39 H39           -6.4382    -1.2049     1.9920 H       
  40 H40           -7.0975    -2.5744     0.0576 H       
  41 H41           -5.6088    -2.7647    -1.8917 H       
  42 H42           -3.4531    -1.5807    -1.9190 H       
@<TRIPOS>BOND
   1    1    2 am
   2    1   10 1
   3    1    6 1
   4    2    3 1
   5    2    7 2
   6    3    4 2
   7    3    8 1
   8    4    5 1
   9    4   11 1
  10    5    6 2
  11    5   25 1
  12    6   26 1
  13    8    9 3
  14   10   12 1
  15   10   27 1
  16   10   28 1
  17   11   20 ar
  18   11   24 ar
  19   12   13 1
  20   12   29 1
  21   12   30 1
  22   13   14 1
  23   13   31 1
  24   13   32 1
  25   14   15 ar
  26   14   19 ar
  27   15   16 ar
  28   15   33 1
  29   16   17 ar
  30   16   34 1
  31   17   18 ar
  32   17   35 1
  33   18   19 ar
  34   18   36 1
  35   19   37 1
  36   20   21 ar
  37   20   38 1
  38   21   22 ar
  39   21   39 1
  40   22   23 ar
  41   22   40 1
  42   23   24 ar
  43   23   41 1
  44   24   42 1

#	End of record

