#	Name: ASD01100036
#	Creating user name:	WinNT
#	Creation time:	15. 06. 2019 18:58

#	Modifying user name:	WinNT
#	Modification time:	15. 06. 2019 18:58

#	Program:	/corina/corina34_cracker 3.40 0067  02.08.2006

@<TRIPOS>MOLECULE
ASD01100036
  35   36    0    0    0
SMALL
NO_CHARGES


@<TRIPOS>ATOM
   1 C1             0.1642     1.2858    -0.9197 C.ar    
   2 C2             0.2452    -0.0935    -0.9918 C.ar    
   3 C3             1.4480    -0.7293    -0.7408 C.ar    
   4 C4             2.5680     0.0136    -0.4181 C.ar    
   5 C5             2.4865     1.3917    -0.3462 C.ar    
   6 C6             1.2849     2.0276    -0.5969 C.ar    
   7 C7             3.7078     2.2011     0.0062 C.3     
   8 C8             3.4388     3.0010     1.2824 C.3     
   9 C9             3.2250     2.0382     2.4521 C.3     
  10 C10            4.6363     3.9059     1.5791 C.3     
  11 Cl11          -1.1620    -1.0259    -1.3966 Cl      
  12 C12            4.0258     3.1479    -1.1223 C.2     
  13 N13            5.1773     3.8482    -1.1103 N.am    
  14 O14            3.2458     3.2796    -2.0411 O.2     
  15 C15            5.4318     4.7670    -2.0969 C.2     
  16 N16            4.6371     5.0516    -3.0989 N.2     
  17 C17            4.9501     5.9435    -4.0033 C.2     
  18 C18            6.3020     6.5793    -3.7480 C.3     
  19 S19            6.8455     5.7428    -2.2197 S.3     
  20 O20            4.2361     6.2301    -4.9442 O.2     
  21 H21           -0.7734     1.7830    -1.1200 H       
  22 H22            1.5117    -1.8060    -0.7966 H       
  23 H23            3.5069    -0.4827    -0.2217 H       
  24 H24            1.2218     3.1043    -0.5406 H       
  25 H25            4.5529     1.5320     0.1681 H       
  26 H26            2.5464     3.6120     1.1470 H       
  27 H27            4.1174     1.4271     2.5876 H       
  28 H28            3.0334     2.6080     3.3614 H       
  29 H29            2.3719     1.3935     2.2408 H       
  30 H30            4.8518     4.5214     0.7057 H       
  31 H31            4.4045     4.5486     2.4284 H       
  32 H32            5.5059     3.2923     1.8146 H       
  33 H33            5.8261     3.7026    -0.4040 H       
  34 H34            6.9877     6.3752    -4.5703 H       
  35 H35            6.2008     7.6520    -3.5835 H       
@<TRIPOS>BOND
   1    1    2 ar
   2    1    6 ar
   3    1   21 1
   4    2    3 ar
   5    2   11 1
   6    3    4 ar
   7    3   22 1
   8    4    5 ar
   9    4   23 1
  10    5    6 ar
  11    5    7 1
  12    6   24 1
  13    7    8 1
  14    7   12 1
  15    7   25 1
  16    8    9 1
  17    8   10 1
  18    8   26 1
  19    9   27 1
  20    9   28 1
  21    9   29 1
  22   10   30 1
  23   10   31 1
  24   10   32 1
  25   12   13 am
  26   12   14 2
  27   13   15 1
  28   13   33 1
  29   15   16 2
  30   15   19 1
  31   16   17 1
  32   17   18 1
  33   17   20 2
  34   18   19 1
  35   18   34 1
  36   18   35 1

#	End of record

