#	Name: ASD01200222
#	Creating user name:	WinNT
#	Creation time:	15. 06. 2019 19:08

#	Modifying user name:	WinNT
#	Modification time:	15. 06. 2019 19:08

#	Program:	/corina/corina34_cracker 3.40 0067  02.08.2006

@<TRIPOS>MOLECULE
ASD01200222
  46   47    0    0    0
SMALL
NO_CHARGES


@<TRIPOS>ATOM
   1 C1            -0.4881     1.0719     0.0092 C.ar    
   2 C2            -0.2888    -0.2943    -0.0042 C.ar    
   3 C3             0.9954    -0.8075    -0.0117 C.ar    
   4 C4             2.0844     0.0450    -0.0059 C.ar    
   5 C5             1.8928     1.4124     0.0075 C.ar    
   6 C6             0.6037     1.9317     0.0146 C.ar    
   7 C7             1.2088    -2.2993    -0.0257 C.3     
   8 C8             1.9922    -2.6906    -1.2803 C.3     
   9 C9             1.9858    -2.7071     1.1994 C.2     
  10 N10            2.1954    -4.0126     1.4608 N.am    
  11 O11            2.4225    -1.8610     1.9498 O.2     
  12 C12            1.1437    -2.4052    -2.5211 C.3     
  13 C13            2.8046    -4.3814     2.6050 C.2     
  14 N14            3.0141    -5.6869     2.8664 N.am    
  15 O15            3.1651    -3.5368     3.4011 O.2     
  16 C16            1.9679    -2.6646    -3.7943 C.3     
  17 C17            1.2364    -3.7768    -4.5739 C.3     
  18 C18           -0.2281    -3.6882    -4.0776 C.3     
  19 C19           -0.0599    -3.3688    -2.5713 C.3     
  20 C20            3.6764    -6.0878     4.1102 C.3     
  21 S21            0.3543     3.6759     0.0316 S.3     
  22 C22           -1.4532     3.8296     0.0361 C.3     
  23 F23           -1.9718     3.2011     1.1734 F       
  24 F24           -1.8060     5.1833     0.0496 F       
  25 F25           -1.9756     3.2229    -1.1111 F       
  26 H26           -1.4913     1.4720     0.0109 H       
  27 H27           -1.1369    -0.9631    -0.0084 H       
  28 H28            3.0859    -0.3592    -0.0114 H       
  29 H29            2.7437     2.0776     0.0127 H       
  30 H30            0.2429    -2.8044    -0.0282 H       
  31 H31            2.9137    -2.1105    -1.3290 H       
  32 H32            2.2332    -3.7529    -1.2415 H       
  33 H33            1.9077    -4.6867     0.8254 H       
  34 H34            0.7957    -1.3724    -2.5056 H       
  35 H35            2.7264    -6.3610     2.2310 H       
  36 H36            2.0192    -1.7579    -4.3972 H       
  37 H37            2.9724    -2.9939    -3.5283 H       
  38 H38            1.2879    -3.5882    -5.6462 H       
  39 H39            1.6614    -4.7520    -4.3362 H       
  40 H40           -0.7603    -2.8842    -4.5859 H       
  41 H41           -0.7410    -4.6401    -4.2157 H       
  42 H42            0.1557    -4.2781    -2.0103 H       
  43 H43           -0.9544    -2.8825    -2.1823 H       
  44 H44            4.6730    -5.6482     4.1492 H       
  45 H45            3.0919    -5.7392     4.9617 H       
  46 H46            3.7569    -7.1742     4.1451 H       
@<TRIPOS>BOND
   1    1    2 ar
   2    1    6 ar
   3    1   26 1
   4    2    3 ar
   5    2   27 1
   6    3    4 ar
   7    3    7 1
   8    4    5 ar
   9    4   28 1
  10    5    6 ar
  11    5   29 1
  12    6   21 1
  13    7    8 1
  14    7    9 1
  15    7   30 1
  16    8   12 1
  17    8   31 1
  18    8   32 1
  19    9   10 am
  20    9   11 2
  21   10   13 am
  22   10   33 1
  23   12   16 1
  24   12   19 1
  25   12   34 1
  26   13   14 am
  27   13   15 2
  28   14   20 1
  29   14   35 1
  30   16   17 1
  31   16   36 1
  32   16   37 1
  33   17   18 1
  34   17   38 1
  35   17   39 1
  36   18   19 1
  37   18   40 1
  38   18   41 1
  39   19   42 1
  40   19   43 1
  41   20   44 1
  42   20   45 1
  43   20   46 1
  44   21   22 1
  45   22   23 1
  46   22   24 1
  47   22   25 1

#	End of record

