#	Name: ASD03150001
#	Creating user name:	WinNT
#	Creation time:	15. 06. 2019 20:33

#	Modifying user name:	WinNT
#	Modification time:	15. 06. 2019 20:33

#	Program:	/corina/corina34_cracker 3.40 0067  02.08.2006

@<TRIPOS>MOLECULE
ASD03150001
  17   17    0    0    0
SMALL
NO_CHARGES


@<TRIPOS>ATOM
   1 C1            -0.0143     1.2041     0.0087 C.2     
   2 N2            -2.4282     1.0431    -0.4236 N.3     
   3 C3            -1.3295     1.9397     0.0189 C.3     
   4 C4            -1.7111     2.3405     1.4601 C.3     
   5 C5            -3.2416     2.1625     1.5338 C.3     
   6 C6            -3.6560     1.6692     0.1308 C.3     
   7 O7             0.0021    -0.0041     0.0020 O.2     
   8 O8             1.1389     1.8910     0.0013 O.3     
   9 H9            -2.4708     0.9931    -1.4305 H       
  10 H10           -1.2765     2.8205    -0.6211 H       
  11 H11           -1.2187     1.6848     2.1783 H       
  12 H12           -1.4413     3.3797     1.6481 H       
  13 H13           -3.5004     1.4195     2.2881 H       
  14 H14           -3.7231     3.1144     1.7579 H       
  15 H15           -3.9685     2.5086    -0.4903 H       
  16 H16           -4.4565     0.9334     0.2077 H       
  17 H17            1.9569     1.3754    -0.0092 H       
@<TRIPOS>BOND
   1    1    7 2
   2    1    8 1
   3    1    3 1
   4    2    3 1
   5    2    6 1
   6    2    9 1
   7    3    4 1
   8    3   10 1
   9    4    5 1
  10    4   11 1
  11    4   12 1
  12    5    6 1
  13    5   13 1
  14    5   14 1
  15    6   15 1
  16    6   16 1
  17    8   17 1

#	End of record

