#	Name: ASD01900842
#	Creating user name:	WinNT
#	Creation time:	15. 06. 2019 19:52

#	Modifying user name:	WinNT
#	Modification time:	15. 06. 2019 19:52

#	Program:	/corina/corina34_cracker 3.40 0067  02.08.2006

@<TRIPOS>MOLECULE
ASD01900842
  28   30    0    0    0
SMALL
NO_CHARGES


@<TRIPOS>ATOM
   1 C1            -0.0178     1.3875    -0.0007 C.ar    
   2 N2             0.0021    -0.0041     0.0020 N.pl3   
   3 C3            -1.1819    -0.7131     0.1140 C.2     
   4 N4            -1.3435    -2.0152     0.0328 N.2     
   5 C5            -2.5739    -2.4718     0.1721 C.2     
   6 N6            -3.5243    -1.5956     0.3782 N.2     
   7 S7            -2.7583    -0.0790     0.3972 S.3     
   8 C8            -2.8691    -3.9245     0.0974 C.2     
   9 C9            -4.1366    -4.5244     0.2305 C.2     
  10 N10           -3.9892    -5.8167     0.1055 N.2     
  11 N11           -2.6333    -6.0910    -0.1106 N.pl3   
  12 C12           -1.9627    -4.9215    -0.1185 C.2     
  13 N13           -1.1776     2.0270    -0.0006 N.ar    
  14 C14           -1.2404     3.3466    -0.0027 C.ar    
  15 C15           -0.0865     4.1108    -0.0052 C.ar    
  16 C16            1.1477     3.4768    -0.0055 C.ar    
  17 C17            1.1802     2.0933     0.0021 C.ar    
  18 F18           -2.4454     3.9575    -0.0029 F       
  19 C19           -5.4363    -3.8017     0.4746 C.3     
  20 H20            0.8454    -0.4772    -0.0745 H       
  21 H21           -2.2442    -6.9704    -0.2370 H       
  22 H22           -0.8996    -4.7969    -0.2621 H       
  23 H23           -0.1461     5.1891    -0.0073 H       
  24 H24            2.0628     4.0504    -0.0078 H       
  25 H25            2.1241     1.5685     0.0025 H       
  26 H26           -5.8947    -3.5458    -0.4806 H       
  27 H27           -6.1097    -4.4460     1.0398 H       
  28 H28           -5.2445    -2.8905     1.0412 H       
@<TRIPOS>BOND
   1    1    2 1
   2    1   13 ar
   3    1   17 ar
   4    2    3 1
   5    2   20 1
   6    3    4 2
   7    3    7 1
   8    4    5 1
   9    5    6 2
  10    5    8 1
  11    6    7 1
  12    8    9 1
  13    8   12 2
  14    9   10 2
  15    9   19 1
  16   10   11 1
  17   11   12 1
  18   11   21 1
  19   12   22 1
  20   13   14 ar
  21   14   15 ar
  22   14   18 1
  23   15   16 ar
  24   15   23 1
  25   16   17 ar
  26   16   24 1
  27   17   25 1
  28   19   26 1
  29   19   27 1
  30   19   28 1

#	End of record

