#	Name: ASD01870534
#	Creating user name:	WinNT
#	Creation time:	15. 06. 2019 19:39

#	Modifying user name:	WinNT
#	Modification time:	15. 06. 2019 19:39

#	Program:	/corina/corina34_cracker 3.40 0067  02.08.2006

@<TRIPOS>MOLECULE
ASD01870534
  36   38    0    0    0
SMALL
NO_CHARGES


@<TRIPOS>ATOM
   1 C1            -0.0084     1.4068     0.0706 C.ar    
   2 C2            -0.0171     0.0081    -0.1541 C.ar    
   3 N3             1.1152    -0.5737    -0.5257 N.ar    
   4 C4             2.2298     0.1224    -0.6858 C.ar    
   5 N5             2.2967     1.4177    -0.4917 N.ar    
   6 C6             1.2087     2.1067    -0.1140 C.ar    
   7 C7             1.2476     3.4911     0.1014 C.ar    
   8 C8             0.1181     4.1486     0.4852 C.ar    
   9 C9            -1.0853     3.4635     0.6689 C.ar    
  10 C10           -1.1551     2.1014     0.4701 C.ar    
  11 N11           -1.1720    -0.7288     0.0097 N.pl3   
  12 O12           -2.1966     4.1458     1.0522 O.3     
  13 C13           -2.0580     5.5546     1.2471 C.3     
  14 C14           -1.1343    -2.1236    -0.1038 C.ar    
  15 C15           -2.1936    -4.1853    -0.7195 C.ar    
  16 C16           -1.0598    -4.8823    -0.3284 C.ar    
  17 C17            0.0346    -4.1984     0.1805 C.ar    
  18 C18           -0.0018    -2.8226     0.2929 C.ar    
  19 C19           -2.2316    -2.8095    -0.6079 C.ar    
  20 O20           -1.0232    -6.2371    -0.4388 O.3     
  21 C21            0.1760    -6.8902    -0.0174 C.3     
  22 H22            3.1248    -0.4002    -0.9897 H       
  23 H23            2.1705     4.0349    -0.0361 H       
  24 H24            0.1535     5.2153     0.6502 H       
  25 H25           -2.0870     1.5759     0.6180 H       
  26 H26           -2.0100    -0.2804     0.2036 H       
  27 H27           -1.3164     5.7427     2.0236 H       
  28 H28           -1.7351     6.0202     0.3159 H       
  29 H29           -3.0165     5.9755     1.5505 H       
  30 H30           -3.0452    -4.7185    -1.1157 H       
  31 H31            0.9169    -4.7418     0.4848 H       
  32 H32            0.8505    -2.2903     0.6888 H       
  33 H33           -3.1146    -2.2670    -0.9121 H       
  34 H34            1.0155    -6.5254    -0.6091 H       
  35 H35            0.3545    -6.6772     1.0366 H       
  36 H36            0.0725    -7.9661    -0.1582 H       
@<TRIPOS>BOND
   1    1    2 ar
   2    1    6 ar
   3    1   10 ar
   4    2    3 ar
   5    2   11 1
   6    3    4 ar
   7    4    5 ar
   8    4   22 1
   9    5    6 ar
  10    6    7 ar
  11    7    8 ar
  12    7   23 1
  13    8    9 ar
  14    8   24 1
  15    9   10 ar
  16    9   12 1
  17   10   25 1
  18   11   14 1
  19   11   26 1
  20   12   13 1
  21   13   27 1
  22   13   28 1
  23   13   29 1
  24   14   19 ar
  25   14   18 ar
  26   15   16 ar
  27   15   19 ar
  28   15   30 1
  29   16   17 ar
  30   16   20 1
  31   17   18 ar
  32   17   31 1
  33   18   32 1
  34   19   33 1
  35   20   21 1
  36   21   34 1
  37   21   35 1
  38   21   36 1

#	End of record

