#	Name: ASD04570044
#	Creating user name:	WinNT
#	Creation time:	15. 06. 2019 20:49

#	Modifying user name:	WinNT
#	Modification time:	15. 06. 2019 20:49

#	Program:	/corina/corina34_cracker 3.40 0067  02.08.2006

@<TRIPOS>MOLECULE
ASD04570044
 331  332    0    0    0
SMALL
NO_CHARGES


@<TRIPOS>ATOM
   1 C1            -0.0187     1.5258     0.0104 C.3     
   2 C2             0.0021    -0.0041     0.0020 C.3     
   3 C3            -1.4333    -0.5336     0.0129 C.3     
   4 C4            -1.4126    -2.0635     0.0045 C.3     
   5 C5            -2.8479    -2.5931     0.0153 C.3     
   6 C6            -2.8272    -4.1229     0.0069 C.3     
   7 C7            -4.2626    -4.6525     0.0178 C.3     
   8 C8            -4.2418    -6.1823     0.0094 C.3     
   9 C9            -5.6772    -6.7119     0.0202 C.3     
  10 C10           -5.6565    -8.2417     0.0118 C.3     
  11 C11           -7.0918    -8.7713     0.0227 C.3     
  12 C12           -7.0711   -10.3012     0.0143 C.3     
  13 C13           -8.5065   -10.8307     0.0251 C.3     
  14 C14           -8.4857   -12.3606     0.0167 C.3     
  15 C15           -9.8995   -12.8822     0.0274 C.2     
  16 N16          -10.1278   -14.2105     0.0224 N.am    
  17 O17          -10.8319   -12.1067     0.0405 O.2     
  18 C18          -11.5022   -14.7176     0.0328 C.3     
  19 C19          -11.4818   -16.2244     0.0246 C.2     
  20 N20          -12.6397   -16.9141     0.0319 N.am    
  21 O21          -10.4234   -16.8164     0.0113 O.2     
  22 C22          -12.6198   -18.3789     0.0239 C.3     
  23 C23          -14.0336   -18.9006     0.0345 C.2     
  24 N24          -14.2619   -20.2288     0.0296 N.am    
  25 O25          -14.9660   -18.1251     0.0476 O.2     
  26 C26          -15.6363   -20.7359     0.0400 C.3     
  27 C27          -15.6677   -22.1146    -0.5676 C.2     
  28 O28          -14.6429   -22.6236    -0.9697 O.2     
  29 N29          -16.8345   -22.7821    -0.6641 N.am    
  30 C30          -16.1445   -20.8022     1.4816 C.3     
  31 C31          -16.2295   -19.4087     2.0489 C.ar    
  32 C32          -17.3963   -18.6790     1.9152 C.ar    
  33 C33          -16.8650   -24.1224    -1.2548 C.3     
  34 C34          -16.5289   -25.1603    -0.1821 C.3     
  35 C35          -18.2404   -24.3973    -1.8061 C.2     
  36 O36          -19.1095   -23.5563    -1.7147 O.2     
  37 N37          -18.5045   -25.5775    -2.4008 N.am    
  38 C38          -15.0873   -24.9583     0.2890 C.3     
  39 C39          -14.7562   -25.9805     1.3456 C.2     
  40 N40          -13.5323   -25.9942     1.9100 N.am    
  41 C41          -19.8415   -25.8447    -2.9368 C.3     
  42 C42          -19.9467   -25.2745    -4.3527 C.3     
  43 C43          -20.0793   -27.3323    -2.9754 C.2     
  44 O44          -19.2168   -28.0943    -2.5928 O.2     
  45 N45          -21.2503   -27.8159    -3.4350 N.am    
  46 C46          -21.4814   -29.2621    -3.4724 C.3     
  47 C47          -22.9850   -29.5399    -3.4170 C.3     
  48 C48          -20.9038   -29.8375    -4.7671 C.3     
  49 C49          -23.5399   -29.0761    -2.0688 C.3     
  50 C50          -25.0435   -29.3539    -2.0134 C.3     
  51 C51          -17.4766   -17.4013     2.4344 C.ar    
  52 C52          -16.3853   -16.8505     3.0903 C.ar    
  53 C53          -15.2157   -17.5846     3.2231 C.ar    
  54 C54          -15.1423   -18.8640     2.7071 C.ar    
  55 O55          -16.4617   -15.5936     3.6015 O.3     
  56 O56          -15.5910   -26.7909     1.6881 O.2     
  57 C57          -25.5985   -28.8901    -0.6651 C.3     
  58 N58          -27.0421   -29.1568    -0.6119 N.3     
  59 C59            1.4167     2.0553    -0.0004 C.3     
  60 H60           -9.3821   -14.8307     0.0120 H       
  61 C61          -19.8295   -23.7500    -4.2987 C.3     
  62 C62          -19.9346   -23.1799    -5.7146 C.3     
  63 C63          -19.8174   -21.6553    -5.6605 C.3     
  64 N64          -19.9183   -21.1079    -7.0200 N.3     
  65 H65           -0.5459     1.8868    -0.8726 H       
  66 H66           -0.5289     1.8773     0.9072 H       
  67 H67            0.5123    -0.3556    -0.8948 H       
  68 H68            0.5293    -0.3651     0.8851 H       
  69 H69           -1.9435    -0.1821     0.9097 H       
  70 H70           -1.9605    -0.1726    -0.8702 H       
  71 H71           -0.9024    -2.4150    -0.8923 H       
  72 H72           -0.8854    -2.4246     0.8875 H       
  73 H73           -3.3581    -2.2415     0.9121 H       
  74 H74           -3.3751    -2.2320    -0.8677 H       
  75 H75           -2.3170    -4.4744    -0.8899 H       
  76 H76           -2.3000    -4.4840     0.8900 H       
  77 H77           -4.7728    -4.3010     0.9146 H       
  78 H78           -4.7898    -4.2914    -0.8653 H       
  79 H79           -3.7316    -6.5338    -0.8874 H       
  80 H80           -3.7146    -6.5434     0.8924 H       
  81 H81           -6.1874    -6.3604     0.9170 H       
  82 H82           -6.2044    -6.3508    -0.8628 H       
  83 H83           -5.1463    -8.5933    -0.8850 H       
  84 H84           -5.1293    -8.6028     0.8949 H       
  85 H85           -7.6020    -8.4198     0.9195 H       
  86 H86           -7.6190    -8.4102    -0.8604 H       
  87 H87           -6.5609   -10.6527    -0.8825 H       
  88 H88           -6.5439   -10.6622     0.8973 H       
  89 H89           -9.0167   -10.4792     0.9219 H       
  90 H90           -9.0337   -10.4697    -0.8579 H       
  91 H91           -7.9755   -12.7121    -0.8801 H       
  92 H92           -7.9586   -12.7217     0.8998 H       
  93 H93          -12.0124   -14.3660     0.9296 H       
  94 H94          -12.0294   -14.3565    -0.8502 H       
  95 H95          -13.4862   -16.4406     0.0425 H       
  96 H96          -12.1096   -18.7305    -0.8729 H       
  97 H97          -12.0926   -18.7400     0.9069 H       
  98 H98          -13.5162   -20.8491     0.0191 H       
  99 H99          -16.2741   -20.0688    -0.5398 H       
 100 H100         -17.6542   -22.3751    -0.3425 H       
 101 H101         -17.1328   -21.2619     1.4977 H       
 102 H102         -15.4570   -21.3977     2.0822 H       
 103 H103         -18.2455   -19.1081     1.4042 H       
 104 H104         -16.1324   -24.1815    -2.0597 H       
 105 H105         -17.2072   -25.0422     0.6630 H       
 106 H106         -16.6381   -26.1617    -0.5985 H       
 107 H107         -17.8094   -26.2501    -2.4740 H       
 108 H108         -14.4090   -25.0764    -0.5560 H       
 109 H109         -14.9781   -23.9569     0.7054 H       
 110 H110         -12.8646   -25.3461     1.6360 H       
 111 H111         -13.3192   -26.6522     2.5901 H       
 112 H112         -20.5895   -25.3736    -2.2990 H       
 113 H113         -19.1430   -25.6791    -4.9679 H       
 114 H114         -20.9088   -25.5499    -4.7848 H       
 115 H115         -21.9401   -27.2064    -3.7409 H       
 116 H116         -20.9937   -29.7302    -2.6174 H       
 117 H117         -23.4842   -28.9990    -4.2209 H       
 118 H118         -23.1614   -30.6091    -3.5342 H       
 119 H119         -19.8327   -29.6396    -4.8066 H       
 120 H120         -21.0758   -30.9135    -4.7950 H       
 121 H121         -21.3916   -29.3693    -5.6221 H       
 122 H122         -23.0407   -29.6170    -1.2649 H       
 123 H123         -23.3635   -28.0069    -1.9516 H       
 124 H124         -25.5428   -28.8130    -2.8173 H       
 125 H125         -25.2200   -30.4231    -2.1305 H       
 126 H126         -18.3881   -16.8317     2.3294 H       
 127 H127         -14.3647   -17.1580     3.7332 H       
 128 H128         -14.2321   -19.4361     2.8105 H       
 129 H129         -16.7777   -15.5590     4.5147 H       
 130 H130         -25.0992   -29.4310     0.1388 H       
 131 H131         -25.4220   -27.8209    -0.5480 H       
 132 H132         -27.2361   -30.1322    -0.7824 H       
 133 H133         -27.4325   -28.8592     0.2696 H       
 134 H134           1.4019     3.1452     0.0056 H       
 135 H135           1.9439     1.6943     0.8826 H       
 136 H136           1.9269     1.7038    -0.8972 H       
 137 H137         -20.6332   -23.3454    -3.6835 H       
 138 H138         -18.8674   -23.4746    -3.8666 H       
 139 H139         -19.1309   -23.5845    -6.3298 H       
 140 H140         -20.8967   -23.4552    -6.1466 H       
 141 H141         -20.6211   -21.2507    -5.0453 H       
 142 H142         -18.8553   -21.3800    -5.2285 H       
 143 H143         -19.8438   -20.1017    -7.0111 H       
 144 H144         -19.2236   -21.5167    -7.6269 H       
 145 C145          24.1730    10.0806    27.9418 C.3     
 146 C146          24.7576    11.4847    28.1081 C.3     
 147 C147          23.6802    12.5096    27.8638 C.2     
 148 N148          25.2787    11.6387    29.4686 N.am    
 149 N149          23.0531    12.5571    26.6717 N.am    
 150 O150          23.3774    13.2917    28.7398 O.2     
 151 C151          22.0057    13.5534    26.4342 C.3     
 152 C152          21.0732    13.0557    25.3601 C.2     
 153 N153          19.8704    13.6391    25.1886 N.am    
 154 O154          21.4050    12.1302    24.6501 O.2     
 155 C155          18.9962    13.2074    24.0951 C.3     
 156 C156          18.5030    14.4146    23.3398 C.2     
 157 O157          18.8478    15.5261    23.6813 O.2     
 158 N158          17.6788    14.2591    22.2849 N.am    
 159 C159          17.1994    15.4327    21.5506 C.3     
 160 C160          15.9611    15.9997    22.2478 C.3     
 161 C161          16.8439    15.0331    20.1417 C.2     
 162 O162          16.9778    13.8814    19.7860 O.2     
 163 N163          16.3771    15.9556    19.2771 N.am    
 164 C164          16.0315    15.5671    17.9074 C.3     
 165 C165          17.2884    15.5993    17.0356 C.3     
 166 C166          15.0118    16.5292    17.3546 C.2     
 167 O167          14.6131    17.4488    18.0373 O.2     
 168 N168          14.5430    16.3677    16.1013 N.am    
 169 C169          13.5518    17.3029    15.5638 C.3     
 170 C170          14.2661    18.5245    14.9820 C.3     
 171 C171          12.7556    16.6231    14.4799 C.2     
 172 O172          12.9928    15.4707    14.1853 O.2     
 173 N173          11.7799    17.2956    13.8378 N.am    
 174 C174          14.9727    19.2852    16.1058 C.3     
 175 C175          15.6870    20.5068    15.5240 C.3     
 176 N176          16.3637    21.2352    16.6000 N.pl3   
 177 C177          17.0764    22.3760    16.3155 C.2     
 178 C178          22.6454    14.8687    25.9849 C.3     
 179 C179          21.5525    15.9135    25.7507 C.3     
 180 O180          23.5399    15.3337    26.9976 O.3     
 181 C181          17.8021    12.4418    24.6686 C.3     
 182 C182          18.2809    11.1523    25.2842 C.2     
 183 O183          17.3943    10.2779    25.7852 O.3     
 184 O184          19.4629    10.9054    25.3266 O.2     
 185 C185          16.3492    16.5198    23.6333 C.3     
 186 C186          15.1110    17.0868    24.3305 C.3     
 187 C187          15.4991    17.6069    25.7161 C.3     
 188 N188          14.3101    18.1513    26.3855 N.3     
 189 C189          18.2590    14.5507    17.5145 C.ar    
 190 C190          18.2092    13.2722    16.9911 C.ar    
 191 C191          19.2028    14.8688    18.4732 C.ar    
 192 C192          20.0931    13.9069    18.9125 C.ar    
 193 C193          20.0393    12.6268    18.3935 C.ar    
 194 C194          19.0994    12.3103    17.4305 C.ar    
 195 N195          17.7114    23.0596    17.3252 N.pl3   
 196 N196          17.1500    22.8094    15.0884 N.2     
 197 C197          11.0060    16.6346    12.7841 C.3     
 198 C198          11.7442    16.7441    11.4748 C.2     
 199 C199           9.6385    17.3090    12.6564 C.3     
 200 C200           8.8399    17.0902    13.9430 C.3     
 201 N201          11.2181    16.2045    10.3574 N.am    
 202 O202          12.8117    17.3177    11.4267 O.2     
 203 C203           7.5245    17.8677    13.8652 C.3     
 204 C204           8.5417    15.5989    14.1108 C.3     
 205 C205          26.5269    11.2243    29.7631 C.2     
 206 O206          27.2188    10.7240    28.9018 O.2     
 207 C207          27.0629    11.3828    31.1626 C.3     
 208 N208          28.4354    10.8606    31.2345 N.am    
 209 C209          28.4768     9.7757    32.2318 C.3     
 210 C210          27.0220     9.2486    32.3049 C.3     
 211 C211          26.2074    10.5598    32.1486 C.3     
 212 C212          29.4822    11.3005    30.5084 C.2     
 213 O213          30.5528    10.7356    30.5841 O.2     
 214 C214          29.3224    12.4941    29.6024 C.3     
 215 C215          29.1937    13.7626    30.4481 C.3     
 216 N216          30.4941    12.6054    28.7301 N.am    
 217 C217          30.3922    13.2323    27.5414 C.2     
 218 C218          28.8573    14.9481    29.5412 C.3     
 219 C219          28.7286    16.2167    30.3869 C.3     
 220 N220          28.4066    17.3518    29.5186 N.pl3   
 221 C221          28.2418    18.6053    30.0587 C.2     
 222 N222          27.9552    19.6153    29.2861 N.2     
 223 N223          28.3792    18.7936    31.4136 N.pl3   
 224 O224          29.3304    13.7042    27.1938 O.2     
 225 C225          31.5975    13.3469    26.6441 C.3     
 226 C226          31.7987    12.0310    25.8898 C.3     
 227 N227          31.3899    14.4335    25.6837 N.am    
 228 C228          30.3500    14.3867    24.8277 C.2     
 229 O229          29.5861    13.4450    24.8524 O.2     
 230 C230          30.1364    15.5044    23.8397 C.3     
 231 C231          33.0913    12.1031    25.0744 C.3     
 232 C232          34.2870    12.2130    26.0227 C.3     
 233 C233          33.2292    10.8386    24.2243 C.3     
 234 N234          25.1901     9.0815    28.2961 N.3     
 235 H235          23.3087     9.9670    28.5962 H       
 236 H236          23.8662     9.9351    26.9061 H       
 237 H237          25.5658    11.6290    27.3910 H       
 238 H238          24.7254    12.0389    30.1575 H       
 239 H239          23.2953    11.9315    25.9710 H       
 240 H240          21.4452    13.7178    27.3545 H       
 241 H241          19.5835    14.3447    25.7892 H       
 242 H242          19.5532    12.5585    23.4192 H       
 243 H243          17.4031    13.3702    22.0117 H       
 244 H244          17.9821    16.1910    21.5267 H       
 245 H245          15.5524    16.8174    21.6541 H       
 246 H246          15.2112    15.2154    22.3511 H       
 247 H247          16.2701    16.8767    19.5616 H       
 248 H248          15.6164    14.5592    17.9094 H       
 249 H249          17.0171    15.3971    15.9994 H       
 250 H250          17.7531    16.5829    17.1042 H       
 251 H251          14.8619    15.6321    15.5552 H       
 252 H252          12.8812    17.6203    16.3624 H       
 253 H253          15.0008    18.1992    14.2455 H       
 254 H254          13.5367    19.1781    14.5035 H       
 255 H255          11.5902    18.2172    14.0734 H       
 256 H256          14.2380    19.6106    16.8423 H       
 257 H257          15.7020    18.6316    16.5843 H       
 258 H258          16.4218    20.1815    14.7875 H       
 259 H259          14.9577    21.1604    15.0454 H       
 260 H260          16.3089    20.9127    17.5131 H       
 261 H261          23.1974    14.7066    25.0591 H       
 262 H262          20.9237    15.9866    26.6381 H       
 263 H263          22.0121    16.8813    25.5503 H       
 264 H264          20.9432    15.6169    24.8970 H       
 265 H265          24.2599    14.7202    27.1984 H       
 266 H266          17.3135    13.0488    25.4308 H       
 267 H267          17.0937    12.2222    23.8699 H       
 268 H268          17.7490     9.4646    26.1697 H       
 269 H269          16.7580    15.7022    24.2270 H       
 270 H270          17.0991    17.3041    23.5301 H       
 271 H271          14.7022    17.9045    23.7369 H       
 272 H272          14.3611    16.3025    24.4338 H       
 273 H273          15.9078    16.7893    26.3097 H       
 274 H274          16.2490    18.3912    25.6128 H       
 275 H275          14.5405    18.5016    27.3033 H       
 276 H276          13.8751    18.8678    25.8237 H       
 277 H277          17.4745    13.0248    16.2392 H       
 278 H278          19.2448    15.8689    18.8786 H       
 279 H279          20.8309    14.1556    19.6609 H       
 280 H280          20.7351    11.8754    18.7365 H       
 281 H281          19.0575    11.3102    17.0250 H       
 282 H282          17.6566    22.7371    18.2384 H       
 283 H283          18.2142    23.8645    17.1245 H       
 284 H284          17.6528    23.6143    14.8877 H       
 285 H285          10.8703    15.5833    13.0380 H       
 286 H286           9.7745    18.3777    12.4905 H       
 287 H287           9.0973    16.8766    11.8149 H       
 288 H288           9.4205    17.4428    14.7954 H       
 289 H289          10.3643    15.7458    10.3959 H       
 290 H290          11.6933    16.2749     9.5147 H       
 291 H291           6.9439    17.5151    13.0127 H       
 292 H292           6.9555    17.7118    14.7818 H       
 293 H293           7.7369    18.9301    13.7457 H       
 294 H294           7.9611    15.2464    13.2583 H       
 295 H295           9.4788    15.0450    14.1662 H       
 296 H296           7.9728    15.4431    15.0274 H       
 297 H297          27.0512    12.4350    31.4469 H       
 298 H298          29.1509     8.9844    31.9038 H       
 299 H299          28.7890    10.1635    33.2015 H       
 300 H300          26.8144     8.5597    31.4861 H       
 301 H301          26.8247     8.7785    33.2684 H       
 302 H302          26.1185    11.0749    33.1051 H       
 303 H303          25.2234    10.3545    31.7271 H       
 304 H304          28.4267    12.3708    28.9936 H       
 305 H305          28.3995    13.6304    31.1828 H       
 306 H306          30.1358    13.9539    30.9618 H       
 307 H307          31.3433    12.2280    29.0082 H       
 308 H308          29.6515    15.0803    28.8065 H       
 309 H309          27.9152    14.7568    29.0275 H       
 310 H310          27.9345    16.0845    31.1217 H       
 311 H311          29.6708    16.4080    30.9006 H       
 312 H312          28.3096    17.2190    28.5626 H       
 313 H313          27.8390    20.4997    29.6672 H       
 314 H314          28.5924    18.0420    31.9885 H       
 315 H315          28.2629    19.6780    31.7946 H       
 316 H316          32.4805    13.5587    27.2471 H       
 317 H317          31.8645    11.2096    26.6033 H       
 318 H318          30.9554    11.8637    25.2199 H       
 319 H319          32.0008    15.1867    25.6640 H       
 320 H320          30.9163    16.2552    23.9663 H       
 321 H321          30.1767    15.1060    22.8260 H       
 322 H322          29.1615    15.9606    24.0123 H       
 323 H323          33.0622    12.9770    24.4237 H       
 324 H324          35.2079    12.2643    25.4418 H       
 325 H325          34.1888    13.1139    26.6284 H       
 326 H326          34.3162    11.3390    26.6734 H       
 327 H327          32.3774    10.7603    23.5487 H       
 328 H328          34.1501    10.8899    23.6434 H       
 329 H329          33.2583     9.9646    24.8750 H       
 330 H330          25.5377     9.2353    29.2308 H       
 331 H331          24.8280     8.1452    28.1944 H       
@<TRIPOS>BOND
   1    1    2 1
   2    1   59 1
   3    1   65 1
   4    1   66 1
   5    2    3 1
   6    2   67 1
   7    2   68 1
   8    3    4 1
   9    3   69 1
  10    3   70 1
  11    4    5 1
  12    4   71 1
  13    4   72 1
  14    5    6 1
  15    5   73 1
  16    5   74 1
  17    6    7 1
  18    6   75 1
  19    6   76 1
  20    7    8 1
  21    7   77 1
  22    7   78 1
  23    8    9 1
  24    8   79 1
  25    8   80 1
  26    9   10 1
  27    9   81 1
  28    9   82 1
  29   10   11 1
  30   10   83 1
  31   10   84 1
  32   11   12 1
  33   11   85 1
  34   11   86 1
  35   12   13 1
  36   12   87 1
  37   12   88 1
  38   13   14 1
  39   13   89 1
  40   13   90 1
  41   14   15 1
  42   14   91 1
  43   14   92 1
  44   15   16 am
  45   15   17 2
  46   16   18 1
  47   16   60 1
  48   18   19 1
  49   18   93 1
  50   18   94 1
  51   19   20 am
  52   19   21 2
  53   20   22 1
  54   20   95 1
  55   22   23 1
  56   22   96 1
  57   22   97 1
  58   23   24 am
  59   23   25 2
  60   24   26 1
  61   24   98 1
  62   26   27 1
  63   26   30 1
  64   26   99 1
  65   27   28 2
  66   27   29 am
  67   29   33 1
  68   29  100 1
  69   30   31 1
  70   30  101 1
  71   30  102 1
  72   31   32 ar
  73   31   54 ar
  74   32   51 ar
  75   32  103 1
  76   33   34 1
  77   33   35 1
  78   33  104 1
  79   34   38 1
  80   34  105 1
  81   34  106 1
  82   35   36 2
  83   35   37 am
  84   37   41 1
  85   37  107 1
  86   38   39 1
  87   38  108 1
  88   38  109 1
  89   39   40 am
  90   39   56 2
  91   40  110 1
  92   40  111 1
  93   41   42 1
  94   41   43 1
  95   41  112 1
  96   42   61 1
  97   42  113 1
  98   42  114 1
  99   43   44 2
 100   43   45 am
 101   45   46 1
 102   45  115 1
 103   46   47 1
 104   46   48 1
 105   46  116 1
 106   47   49 1
 107   47  117 1
 108   47  118 1
 109   48  119 1
 110   48  120 1
 111   48  121 1
 112   49   50 1
 113   49  122 1
 114   49  123 1
 115   50   57 1
 116   50  124 1
 117   50  125 1
 118   51   52 ar
 119   51  126 1
 120   52   53 ar
 121   52   55 1
 122   53   54 ar
 123   53  127 1
 124   54  128 1
 125   55  129 1
 126   57   58 1
 127   57  130 1
 128   57  131 1
 129   58  132 1
 130   58  133 1
 131   59  134 1
 132   59  135 1
 133   59  136 1
 134   61   62 1
 135   61  137 1
 136   61  138 1
 137   62   63 1
 138   62  139 1
 139   62  140 1
 140   63   64 1
 141   63  141 1
 142   63  142 1
 143   64  143 1
 144   64  144 1
 145  145  234 1
 146  145  146 1
 147  145  235 1
 148  145  236 1
 149  146  147 1
 150  146  148 1
 151  146  237 1
 152  147  149 am
 153  147  150 2
 154  148  205 am
 155  148  238 1
 156  149  151 1
 157  149  239 1
 158  151  152 1
 159  151  178 1
 160  151  240 1
 161  152  153 am
 162  152  154 2
 163  153  155 1
 164  153  241 1
 165  155  156 1
 166  155  181 1
 167  155  242 1
 168  156  157 2
 169  156  158 am
 170  158  159 1
 171  158  243 1
 172  159  160 1
 173  159  161 1
 174  159  244 1
 175  160  185 1
 176  160  245 1
 177  160  246 1
 178  161  162 2
 179  161  163 am
 180  163  164 1
 181  163  247 1
 182  164  165 1
 183  164  166 1
 184  164  248 1
 185  165  189 1
 186  165  249 1
 187  165  250 1
 188  166  167 2
 189  166  168 am
 190  168  169 1
 191  168  251 1
 192  169  170 1
 193  169  171 1
 194  169  252 1
 195  170  174 1
 196  170  253 1
 197  170  254 1
 198  171  172 2
 199  171  173 am
 200  173  197 1
 201  173  255 1
 202  174  175 1
 203  174  256 1
 204  174  257 1
 205  175  176 1
 206  175  258 1
 207  175  259 1
 208  176  177 1
 209  176  260 1
 210  177  195 1
 211  177  196 2
 212  178  179 1
 213  178  180 1
 214  178  261 1
 215  179  262 1
 216  179  263 1
 217  179  264 1
 218  180  265 1
 219  181  182 1
 220  181  266 1
 221  181  267 1
 222  182  183 1
 223  182  184 2
 224  183  268 1
 225  185  186 1
 226  185  269 1
 227  185  270 1
 228  186  187 1
 229  186  271 1
 230  186  272 1
 231  187  188 1
 232  187  273 1
 233  187  274 1
 234  188  275 1
 235  188  276 1
 236  189  190 ar
 237  189  191 ar
 238  190  194 ar
 239  190  277 1
 240  191  192 ar
 241  191  278 1
 242  192  193 ar
 243  192  279 1
 244  193  194 ar
 245  193  280 1
 246  194  281 1
 247  195  282 1
 248  195  283 1
 249  196  284 1
 250  197  198 1
 251  197  199 1
 252  197  285 1
 253  198  201 am
 254  198  202 2
 255  199  200 1
 256  199  286 1
 257  199  287 1
 258  200  203 1
 259  200  204 1
 260  200  288 1
 261  201  289 1
 262  201  290 1
 263  203  291 1
 264  203  292 1
 265  203  293 1
 266  204  294 1
 267  204  295 1
 268  204  296 1
 269  205  206 2
 270  205  207 1
 271  207  208 1
 272  207  211 1
 273  207  297 1
 274  208  209 1
 275  208  212 am
 276  209  210 1
 277  209  298 1
 278  209  299 1
 279  210  211 1
 280  210  300 1
 281  210  301 1
 282  211  302 1
 283  211  303 1
 284  212  213 2
 285  212  214 1
 286  214  215 1
 287  214  216 1
 288  214  304 1
 289  215  218 1
 290  215  305 1
 291  215  306 1
 292  216  217 am
 293  216  307 1
 294  217  224 2
 295  217  225 1
 296  218  219 1
 297  218  308 1
 298  218  309 1
 299  219  220 1
 300  219  310 1
 301  219  311 1
 302  220  221 1
 303  220  312 1
 304  221  222 2
 305  221  223 1
 306  222  313 1
 307  223  314 1
 308  223  315 1
 309  225  226 1
 310  225  227 1
 311  225  316 1
 312  226  231 1
 313  226  317 1
 314  226  318 1
 315  227  228 am
 316  227  319 1
 317  228  229 2
 318  228  230 1
 319  230  320 1
 320  230  321 1
 321  230  322 1
 322  231  232 1
 323  231  233 1
 324  231  323 1
 325  232  324 1
 326  232  325 1
 327  232  326 1
 328  233  327 1
 329  233  328 1
 330  233  329 1
 331  234  330 1
 332  234  331 1

#	End of record

