#	Name: ASD01022005
#	Creating user name:	WinNT
#	Creation time:	15. 06. 2019 18:56

#	Modifying user name:	WinNT
#	Modification time:	15. 06. 2019 18:56

#	Program:	/corina/corina34_cracker 3.40 0067  02.08.2006

@<TRIPOS>MOLECULE
ASD01022005
  68   72    0    0    0
SMALL
NO_CHARGES


@<TRIPOS>ATOM
   1 C1            -0.0167     1.3831     0.0096 C.ar    
   2 C2             0.0021    -0.0041     0.0020 C.ar    
   3 C3             1.2141    -0.6789    -0.0132 C.ar    
   4 C4             2.3989     0.0314    -0.0207 C.ar    
   5 C5             2.3774     1.4139    -0.0126 C.ar    
   6 C6             1.1708     2.0889     0.0021 C.ar    
   7 O7            -1.1648    -0.7006     0.0099 O.3     
   8 C8             3.6714     2.1863    -0.0198 C.3     
   9 C9             4.0963     2.4560    -1.4647 C.3     
  10 O10            5.3233     3.1884    -1.4715 O.3     
  11 C11            5.8425     3.5118    -2.6860 C.ar    
  12 C12            5.1787     3.1284    -3.8482 C.ar    
  13 C13            5.6905     3.4476    -5.0863 C.ar    
  14 C14            6.8809     4.1598    -5.1838 C.ar    
  15 C15            7.5538     4.5490    -4.0116 C.ar    
  16 C16            7.0231     4.2240    -2.7616 C.ar    
  17 N17            7.6265     4.6163    -6.2504 N.pl3   
  18 C18            8.7360     5.2738    -5.7940 C.2     
  19 C19            8.7515     5.2687    -4.4517 C.2     
  20 C20            3.6668     8.5850    -9.3348 C.ar    
  21 C21            2.2905     8.4044    -9.2166 C.ar    
  22 C22            1.4286     9.4049    -9.6186 C.ar    
  23 C23            1.9291    10.5850   -10.1378 C.ar    
  24 C24            3.2950    10.7697   -10.2574 C.ar    
  25 C25            4.1658     9.7782    -9.8537 C.ar    
  26 C26           10.8308     4.8228    -3.1762 C.3     
  27 C27            9.8021     5.8864    -3.5652 C.3     
  28 C28            7.2819     4.4256    -7.6614 C.3     
  29 C29            6.3360     5.5140    -8.0990 C.ar    
  30 C30            6.8366     6.6939    -8.6192 C.ar    
  31 C31            5.9748     7.6939    -9.0220 C.ar    
  32 C32            4.5983     7.5132    -8.9038 C.ar    
  33 C33            4.0995     6.3227    -8.3791 C.ar    
  34 C34            4.9703     5.3272    -7.9844 C.ar    
  35 N35           11.8549     5.4250    -2.3122 N.3     
  36 Cl36          13.0272     4.2677    -1.8532 Cl      
  37 C37           -0.0605     9.2108    -9.4919 C.3     
  38 F38           -0.4856     9.6686    -8.2401 F       
  39 F39           -0.7120     9.9320   -10.4981 F       
  40 F40           -0.3661     7.8516    -9.6198 F       
  41 H41           -0.9590     1.9108     0.0170 H       
  42 H42            1.2314    -1.7588    -0.0188 H       
  43 H43            3.3426    -0.4935    -0.0325 H       
  44 H44            1.1567     3.1688     0.0084 H       
  45 H45           -1.5113    -0.8975    -0.8712 H       
  46 H46            3.5318     3.1338     0.5007 H       
  47 H47            4.4441     1.6055     0.4838 H       
  48 H48            4.2359     1.5085    -1.9852 H       
  49 H49            3.3236     3.0369    -1.9683 H       
  50 H50            4.2538     2.5752    -3.7781 H       
  51 H51            5.1676     3.1446    -5.9813 H       
  52 H52            7.5370     4.5212    -1.8594 H       
  53 H53            9.4882     5.7295    -6.4209 H       
  54 H54            1.8986     7.4831    -8.8116 H       
  55 H55            1.2512    11.3651   -10.4514 H       
  56 H56            3.6805    11.6932   -10.6635 H       
  57 H57            5.2319     9.9236    -9.9472 H       
  58 H58           10.3330     4.0145    -2.6406 H       
  59 H59           11.3017     4.4266    -4.0759 H       
  60 H60           10.2999     6.6947    -4.1009 H       
  61 H61            9.3312     6.2827    -2.6656 H       
  62 H62            8.1882     4.4672    -8.2656 H       
  63 H63            6.8034     3.4548    -7.7906 H       
  64 H64            7.9037     6.8330    -8.7100 H       
  65 H65            6.3667     8.6149    -9.4277 H       
  66 H66            3.0334     6.1774    -8.2854 H       
  67 H67            4.5848     4.4040    -7.5775 H       
  68 H68           12.2867     6.2183    -2.7620 H       
@<TRIPOS>BOND
   1    1    2 ar
   2    1    6 ar
   3    1   41 1
   4    2    3 ar
   5    2    7 1
   6    3    4 ar
   7    3   42 1
   8    4    5 ar
   9    4   43 1
  10    5    6 ar
  11    5    8 1
  12    6   44 1
  13    7   45 1
  14    8    9 1
  15    8   46 1
  16    8   47 1
  17    9   10 1
  18    9   48 1
  19    9   49 1
  20   10   11 1
  21   11   12 ar
  22   11   16 ar
  23   12   13 ar
  24   12   50 1
  25   13   14 ar
  26   13   51 1
  27   14   15 ar
  28   14   17 1
  29   15   16 ar
  30   15   19 1
  31   16   52 1
  32   17   18 1
  33   17   28 1
  34   18   19 2
  35   18   53 1
  36   19   27 1
  37   20   21 ar
  38   20   32 1
  39   20   25 ar
  40   21   22 ar
  41   21   54 1
  42   22   23 ar
  43   22   37 1
  44   23   24 ar
  45   23   55 1
  46   24   25 ar
  47   24   56 1
  48   25   57 1
  49   26   27 1
  50   26   35 1
  51   26   58 1
  52   26   59 1
  53   27   60 1
  54   27   61 1
  55   28   29 1
  56   28   62 1
  57   28   63 1
  58   29   30 ar
  59   29   34 ar
  60   30   31 ar
  61   30   64 1
  62   31   32 ar
  63   31   65 1
  64   32   33 ar
  65   33   34 ar
  66   33   66 1
  67   34   67 1
  68   35   36 1
  69   35   68 1
  70   37   38 1
  71   37   39 1
  72   37   40 1

#	End of record

