#	Name: ASD01918207
#	Creating user name:	WinNT
#	Creation time:	15. 06. 2019 20:11

#	Modifying user name:	WinNT
#	Modification time:	15. 06. 2019 20:11

#	Program:	/corina/corina34_cracker 3.40 0067  02.08.2006

@<TRIPOS>MOLECULE
ASD01918207
  40   43    0    0    0
SMALL
NO_CHARGES


@<TRIPOS>ATOM
   1 C1             0.0468     1.3139    -0.0373 C.ar    
   2 C2             0.1987    -0.0752    -0.2767 C.ar    
   3 C3             1.4828    -0.6567    -0.1401 C.ar    
   4 N4             2.5266     0.1027     0.2099 N.ar    
   5 C5             2.4005     1.3888     0.4349 C.ar    
   6 C6             1.1766     2.0372     0.3219 C.ar    
   7 C7            -1.2724     1.9732    -0.1720 C.ar    
   8 C8            -2.2617     1.7623     0.7885 C.ar    
   9 C9            -3.4888     2.3789     0.6580 C.ar    
  10 C10           -3.7392     3.2061    -0.4239 C.ar    
  11 C11           -2.7609     3.4187    -1.3806 C.ar    
  12 C12           -1.5282     2.8121    -1.2569 C.ar    
  13 C13           -0.8917    -0.8752    -0.6426 C.ar    
  14 C14           -0.7069    -2.2067    -0.8640 C.ar    
  15 C15            0.5558    -2.7842    -0.7308 C.ar    
  16 C16            1.6374    -2.0330    -0.3765 C.ar    
  17 S17            1.0588     3.7674     0.6334 S.o2    
  18 C18            0.0648     3.9716     2.0739 C.ar    
  19 O19            2.3658     4.2022     0.9828 O.2     
  20 O20            0.3186     4.3200    -0.4465 O.2     
  21 C21           -1.2814     4.2598     1.9489 C.ar    
  22 C22            0.6307     3.8379     3.3281 C.ar    
  23 C23           -0.1480     3.9973     4.4586 C.ar    
  24 C24           -1.4953     4.2916     4.3348 C.ar    
  25 C25           -2.0620     4.4201     3.0780 C.ar    
  26 F26           -2.2576     4.4472     5.4392 F       
  27 Cl27          -5.2857     3.9790    -0.5819 Cl      
  28 F28            0.7097    -4.1073    -0.9567 F       
  29 H29            3.2730     1.9603     0.7152 H       
  30 H30           -2.0675     1.1171     1.6325 H       
  31 H31           -4.2556     2.2160     1.4009 H       
  32 H32           -2.9617     4.0646    -2.2226 H       
  33 H33           -0.7642     2.9824    -2.0010 H       
  34 H34           -1.8738    -0.4386    -0.7482 H       
  35 H35           -1.5483    -2.8225    -1.1457 H       
  36 H36            2.6089    -2.4943    -0.2777 H       
  37 H37           -1.7233     4.3600     0.9686 H       
  38 H38            1.6816     3.6083     3.4245 H       
  39 H39            0.2941     3.8921     5.4384 H       
  40 H40           -3.1137     4.6456     2.9802 H       
@<TRIPOS>BOND
   1    1    2 ar
   2    1    6 ar
   3    1    7 1
   4    2    3 ar
   5    2   13 ar
   6    3    4 ar
   7    3   16 ar
   8    4    5 ar
   9    5    6 ar
  10    5   29 1
  11    6   17 1
  12    7    8 ar
  13    7   12 ar
  14    8    9 ar
  15    8   30 1
  16    9   10 ar
  17    9   31 1
  18   10   11 ar
  19   10   27 1
  20   11   12 ar
  21   11   32 1
  22   12   33 1
  23   13   14 ar
  24   13   34 1
  25   14   15 ar
  26   14   35 1
  27   15   16 ar
  28   15   28 1
  29   16   36 1
  30   17   18 1
  31   17   19 2
  32   17   20 2
  33   18   22 ar
  34   18   21 ar
  35   21   25 ar
  36   21   37 1
  37   22   23 ar
  38   22   38 1
  39   23   24 ar
  40   23   39 1
  41   24   25 ar
  42   24   26 1
  43   25   40 1

#	End of record

