#	Name: ASD08150528
#	Creating user name:	WinNT
#	Creation time:	15. 06. 2019 21:16

#	Modifying user name:	WinNT
#	Modification time:	15. 06. 2019 21:16

#	Program:	/corina/corina34_cracker 3.40 0067  02.08.2006

@<TRIPOS>MOLECULE
ASD08150528
  30   31    0    0    0
SMALL
NO_CHARGES


@<TRIPOS>ATOM
   1 C1             0.1597     1.6090     0.0281 C.2     
   2 C2            -0.1301     0.1638     0.0388 C.ar    
   3 C3             0.9134    -0.7669    -0.0870 C.ar    
   4 C4             0.6271    -2.1261    -0.0754 C.ar    
   5 C5            -0.6771    -2.5568     0.0591 C.ar    
   6 C6            -1.7094    -1.6407     0.1830 C.ar    
   7 C7            -1.4444    -0.2885     0.1800 C.ar    
   8 O8             1.3117     1.9980     0.0031 O.2     
   9 N9            -0.8520     2.4994     0.0403 N.am    
  10 N10           -0.9753    -4.0066     0.0707 N.pl3   
  11 O11           -0.0710    -4.8152    -0.0384 O.2     
  12 O12           -2.1250    -4.3910     0.1892 O.2     
  13 C13           -0.5788     3.8673     0.1470 C.ar    
  14 C14           -1.4909     4.7996    -0.3341 C.ar    
  15 C15           -1.2174     6.1498    -0.2269 C.ar    
  16 C16           -0.0380     6.5735     0.3582 C.ar    
  17 C17            0.8708     5.6484     0.8375 C.ar    
  18 C18            0.6013     4.2970     0.7388 C.ar    
  19 Cl19          -2.9711     4.2681    -1.0691 Cl      
  20 N20            2.2251    -0.3310    -0.2227 N.pl3   
  21 H21            1.4258    -2.8466    -0.1722 H       
  22 H22           -2.7265    -1.9885     0.2875 H       
  23 H23           -2.2522     0.4210     0.2822 H       
  24 H24           -1.7696     2.1917    -0.0248 H       
  25 H25           -1.9252     6.8749    -0.6007 H       
  26 H26            0.1736     7.6293     0.4405 H       
  27 H27            1.7908     5.9829     1.2938 H       
  28 H28            1.3099     3.5754     1.1176 H       
  29 H29            2.4149     0.6165    -0.3075 H       
  30 H30            2.9513    -0.9739    -0.2327 H       
@<TRIPOS>BOND
   1    1    2 1
   2    1    8 2
   3    1    9 am
   4    2    3 ar
   5    2    7 ar
   6    3    4 ar
   7    3   20 1
   8    4    5 ar
   9    4   21 1
  10    5    6 ar
  11    5   10 1
  12    6    7 ar
  13    6   22 1
  14    7   23 1
  15    9   13 1
  16    9   24 1
  17   10   11 2
  18   10   12 2
  19   13   14 ar
  20   13   18 ar
  21   14   15 ar
  22   14   19 1
  23   15   16 ar
  24   15   25 1
  25   16   17 ar
  26   16   26 1
  27   17   18 ar
  28   17   27 1
  29   18   28 1
  30   20   29 1
  31   20   30 1

#	End of record

