#	Name: ASD01814579
#	Creating user name:	WinNT
#	Creation time:	15. 06. 2019 19:32

#	Modifying user name:	WinNT
#	Modification time:	15. 06. 2019 19:32

#	Program:	/corina/corina34_cracker 3.40 0067  02.08.2006

@<TRIPOS>MOLECULE
ASD01814579
  52   55    0    0    0
SMALL
NO_CHARGES


@<TRIPOS>ATOM
   1 C1             8.2315    -0.1525     0.9819 C.2     
   2 C2             7.0850     0.2906     0.3087 C.2     
   3 C3             6.0286    -0.5582     0.1515 C.2     
   4 C4             6.1080    -1.8624     0.6673 C.2     
   5 N5             7.2398    -2.2685     1.3207 N.am    
   6 C6             8.2894    -1.4116     1.4715 C.2     
   7 C7             5.0237    -2.7366     0.5071 C.2     
   8 C8             5.0903    -4.0056     1.0047 C.2     
   9 C9             6.2559    -4.4199     1.6756 C.2     
  10 C10            7.3293    -3.5174     1.8209 C.2     
  11 O11            8.3432    -3.8681     2.4005 O.2     
  12 C12            6.3526    -5.7763     2.2193 C.2     
  13 O13            7.4727    -6.1674     2.8614 O.3     
  14 O14            5.4229    -6.5504     2.0920 O.2     
  15 C15            3.7839    -2.2746    -0.2143 C.3     
  16 N16            3.8338    -2.7252    -1.6116 N.3     
  17 C17            5.0774    -2.2948    -2.2584 C.3     
  18 C18            5.0732    -2.6757    -3.7157 C.ar    
  19 C19            3.9102    -3.0084    -4.3773 C.ar    
  20 C20            2.5758    -3.0158    -3.6765 C.3     
  21 C21            2.6702    -2.2332    -2.3663 C.3     
  22 C22            6.2802    -2.6874    -4.3986 C.ar    
  23 C23            6.3224    -3.0272    -5.7360 C.ar    
  24 C24            5.1558    -3.3579    -6.3994 C.ar    
  25 C25            3.9535    -3.3487    -5.7205 C.ar    
  26 C26            1.3969    -2.4487    -1.5460 C.3     
  27 C27            0.2242    -1.8374    -2.2687 C.2     
  28 O28            0.3976    -1.2406    -3.3049 O.2     
  29 O29           -1.0128    -1.9560    -1.7614 O.3     
  30 C30           -2.1074    -1.4447    -2.5668 C.3     
  31 H31            9.0734     0.5125     1.1061 H       
  32 H32            7.0380     1.2962    -0.0822 H       
  33 H33            5.1386    -0.2300    -0.3648 H       
  34 H34            9.1779    -1.7423     1.9888 H       
  35 H35            4.2583    -4.6837     0.8854 H       
  36 H36            7.4899    -7.0719     3.2030 H       
  37 H37            2.9031    -2.6944     0.2716 H       
  38 H38            3.7309    -1.1863    -0.1852 H       
  39 H39            5.1732    -1.2126    -2.1697 H       
  40 H40            5.9237    -2.7720    -1.7643 H       
  41 H41            1.8265    -2.5550    -4.3202 H       
  42 H42            2.2846    -4.0443    -3.4635 H       
  43 H43            2.7954    -1.1721    -2.5817 H       
  44 H44            7.1923    -2.4289    -3.8812 H       
  45 H45            7.2652    -3.0350    -6.2628 H       
  46 H46            5.1846    -3.6231    -7.4459 H       
  47 H47            3.0419    -3.6069    -6.2389 H       
  48 H48            1.2258    -3.5171    -1.4145 H       
  49 H49            1.5089    -1.9759    -0.5703 H       
  50 H50           -2.0085    -0.3642    -2.6702 H       
  51 H51           -2.0802    -1.9081    -3.5530 H       
  52 H52           -3.0553    -1.6781    -2.0817 H       
@<TRIPOS>BOND
   1    1    2 1
   2    1    6 2
   3    1   31 1
   4    2    3 2
   5    2   32 1
   6    3    4 1
   7    3   33 1
   8    4    5 1
   9    4    7 2
  10    5    6 1
  11    5   10 am
  12    6   34 1
  13    7    8 1
  14    7   15 1
  15    8    9 2
  16    8   35 1
  17    9   10 1
  18    9   12 1
  19   10   11 2
  20   12   13 1
  21   12   14 2
  22   13   36 1
  23   15   16 1
  24   15   37 1
  25   15   38 1
  26   16   17 1
  27   16   21 1
  28   17   18 1
  29   17   39 1
  30   17   40 1
  31   18   19 ar
  32   18   22 ar
  33   19   20 1
  34   19   25 ar
  35   20   21 1
  36   20   41 1
  37   20   42 1
  38   21   26 1
  39   21   43 1
  40   22   23 ar
  41   22   44 1
  42   23   24 ar
  43   23   45 1
  44   24   25 ar
  45   24   46 1
  46   25   47 1
  47   26   27 1
  48   26   48 1
  49   26   49 1
  50   27   28 2
  51   27   29 1
  52   29   30 1
  53   30   50 1
  54   30   51 1
  55   30   52 1

#	End of record

