#	Name: ASD01870353
#	Creating user name:	WinNT
#	Creation time:	15. 06. 2019 19:39

#	Modifying user name:	WinNT
#	Modification time:	15. 06. 2019 19:39

#	Program:	/corina/corina34_cracker 3.40 0067  02.08.2006

@<TRIPOS>MOLECULE
ASD01870353
  48   51    0    0    0
SMALL
NO_CHARGES


@<TRIPOS>ATOM
   1 N1            -0.0179     1.4666     0.0101 N.am    
   2 C2             0.0021    -0.0041     0.0020 C.3     
   3 C3             1.1293     2.1740     0.0030 C.2     
   4 C4             1.0857     3.6803     0.0115 C.3     
   5 O5             2.1967     1.5983    -0.0103 O.2     
   6 C6             2.4763     4.3407     0.0017 C.3     
   7 N7             1.9076     5.2908    -0.9739 N.am    
   8 C8             0.8907     4.3026    -1.3830 C.3     
   9 S9             2.2664     6.8425    -1.4275 S.o2    
  10 C10            3.4250     6.7442    -2.7514 C.ar    
  11 C11            4.7870     6.7210    -2.4918 C.ar    
  12 O12            1.0740     7.3858    -1.9773 O.2     
  13 O13            2.9563     7.4310    -0.3334 O.2     
  14 C14            2.9873     6.6837    -4.0608 C.ar    
  15 N15            3.8479     6.6100    -5.0573 N.ar    
  16 C16            5.1509     6.5911    -4.8486 C.ar    
  17 C17            5.6620     6.6431    -3.5640 C.ar    
  18 C18           -0.8911    -0.5093     1.1401 C.3     
  19 N19           -2.2246     0.0945     1.0166 N.3     
  20 C20           -2.1639     1.5549     1.1634 C.3     
  21 C21           -1.3229     2.1448     0.0200 C.3     
  22 C22           -3.1111    -0.4624     1.9335 C.ar    
  23 C23           -4.4382    -0.0378     1.9944 C.ar    
  24 C24           -2.6971    -1.4639     2.8116 C.ar    
  25 C25           -3.6064    -1.9896     3.7049 C.ar    
  26 N26           -4.8531    -1.5568     3.7352 N.ar    
  27 C27           -5.2847    -0.6150     2.9173 C.ar    
  28 Cl28           6.2355     6.4925    -6.2005 Cl      
  29 H29           -0.3779    -0.3702    -0.9518 H       
  30 H30            1.0222    -0.3573     0.1528 H       
  31 H31            0.4145     4.0817     0.7708 H       
  32 H32            2.7518     4.7987     0.9517 H       
  33 H33            3.2612     3.7060    -0.4094 H       
  34 H34            1.2098     3.6567    -2.2009 H       
  35 H35           -0.0998     4.7302    -1.5387 H       
  36 H36            5.1572     6.7629    -1.4781 H       
  37 H37            1.9279     6.6965    -4.2704 H       
  38 H38            6.7292     6.6278    -3.3989 H       
  39 H39           -0.9763    -1.5943     1.0813 H       
  40 H40           -0.4526    -0.2298     2.0981 H       
  41 H41           -3.1722     1.9669     1.1215 H       
  42 H42           -1.7077     1.8056     2.1210 H       
  43 H43           -1.1778     3.2123     0.1853 H       
  44 H44           -1.8328     1.9844    -0.9299 H       
  45 H45           -4.7978     0.7326     1.3283 H       
  46 H46           -1.6786    -1.8228     2.7918 H       
  47 H47           -3.2948    -2.7657     4.3883 H       
  48 H48           -6.3128    -0.2892     2.9747 H       
@<TRIPOS>BOND
   1    1    2 1
   2    1    3 am
   3    1   21 1
   4    2   18 1
   5    2   29 1
   6    2   30 1
   7    3    4 1
   8    3    5 2
   9    4    6 1
  10    4    8 1
  11    4   31 1
  12    6    7 1
  13    6   32 1
  14    6   33 1
  15    7    8 1
  16    7    9 am
  17    8   34 1
  18    8   35 1
  19    9   10 1
  20    9   12 2
  21    9   13 2
  22   10   14 ar
  23   10   11 ar
  24   11   17 ar
  25   11   36 1
  26   14   15 ar
  27   14   37 1
  28   15   16 ar
  29   16   17 ar
  30   16   28 1
  31   17   38 1
  32   18   19 1
  33   18   39 1
  34   18   40 1
  35   19   20 1
  36   19   22 1
  37   20   21 1
  38   20   41 1
  39   20   42 1
  40   21   43 1
  41   21   44 1
  42   22   23 ar
  43   22   24 ar
  44   23   27 ar
  45   23   45 1
  46   24   25 ar
  47   24   46 1
  48   25   26 ar
  49   25   47 1
  50   26   27 ar
  51   27   48 1

#	End of record

