#	Name: ASD02030474
#	Creating user name:	WinNT
#	Creation time:	15. 06. 2019 20:15

#	Modifying user name:	WinNT
#	Modification time:	15. 06. 2019 20:15

#	Program:	/corina/corina34_cracker 3.40 0067  02.08.2006

@<TRIPOS>MOLECULE
ASD02030474
  26   28    0    0    0
SMALL
NO_CHARGES


@<TRIPOS>ATOM
   1 C1            -0.0178     1.4599     0.0101 C.ar    
   2 C2             0.0021    -0.0041     0.0020 C.ar    
   3 C3             1.2520    -0.6666    -0.0370 C.ar    
   4 C4             2.4393     0.0911    -0.0658 C.ar    
   5 C5             2.4069     1.4476    -0.0441 C.ar    
   6 C6             1.2019     2.1544     0.0022 C.ar    
   7 O7             1.2136     3.5064     0.0665 O.3     
   8 C8             0.1283     4.1438    -0.4259 C.2     
   9 C9            -1.1937     3.5461    -0.1724 C.2     
  10 C10           -1.2359     2.1668     0.0313 C.2     
  11 O11            0.2397     5.1780    -1.0578 O.2     
  12 C12           -2.4132     4.3658    -0.1351 C.2     
  13 O13           -3.4903     3.8436     0.0765 O.2     
  14 O14           -2.3371     5.6968    -0.3357 O.3     
  15 C15            1.2834    -2.0701    -0.0456 C.ar    
  16 C16           -1.1117    -2.1164     0.0190 C.ar    
  17 C17            0.1150    -2.7714    -0.0175 C.ar    
  18 C18           -1.1769    -0.7529     0.0291 C.ar    
  19 H19            3.3919    -0.4163    -0.1056 H       
  20 H20            3.3372     1.9958    -0.0630 H       
  21 H21           -2.1729     1.6568     0.1996 H       
  22 H22           -3.1658     6.1940    -0.3018 H       
  23 H23            2.2287    -2.5916    -0.0747 H       
  24 H24           -2.0241    -2.6939     0.0400 H       
  25 H25            0.1419    -3.8511    -0.0241 H       
  26 H26           -2.1351    -0.2556     0.0571 H       
@<TRIPOS>BOND
   1    1    2 ar
   2    1    6 ar
   3    1   10 1
   4    2   18 ar
   5    2    3 ar
   6    3    4 ar
   7    3   15 ar
   8    4    5 ar
   9    4   19 1
  10    5    6 ar
  11    5   20 1
  12    6    7 1
  13    7    8 1
  14    8    9 1
  15    8   11 2
  16    9   10 2
  17    9   12 1
  18   10   21 1
  19   12   13 2
  20   12   14 1
  21   14   22 1
  22   15   17 ar
  23   15   23 1
  24   16   17 ar
  25   16   18 ar
  26   16   24 1
  27   17   25 1
  28   18   26 1

#	End of record

