#	Name: ASD03330286
#	Creating user name:	WinNT
#	Creation time:	15. 06. 2019 20:36

#	Modifying user name:	WinNT
#	Modification time:	15. 06. 2019 20:36

#	Program:	/corina/corina34_cracker 3.40 0067  02.08.2006

@<TRIPOS>MOLECULE
ASD03330286
  61   64    0    0    0
SMALL
NO_CHARGES


@<TRIPOS>ATOM
   1 C1             0.1335     1.0690     0.4208 C.3     
   2 N2             0.0344    -0.3112    -0.0740 N.3     
   3 C3             0.4392    -0.4008    -1.4887 C.3     
   4 C4             1.7686     0.2933    -1.6365 C.2     
   5 N5             2.2897     1.1381    -0.6975 N.pl3   
   6 C6             1.6085     1.4682     0.5577 C.3     
   7 C7             2.6588     0.2283    -2.6559 C.2     
   8 N8             3.7122     1.0258    -2.3339 N.2     
   9 C9             3.4923     1.5720    -1.1579 C.2     
  10 C10            4.4006     2.5024    -0.4552 C.2     
  11 C11            4.2756     2.7980     0.8523 C.2     
  12 C12            2.5121    -0.5631    -3.8898 C.2     
  13 O13            1.5173    -1.2413    -4.0626 O.2     
  14 C14            3.3343    -1.3228    -6.0540 C.3     
  15 N15            3.4802    -0.5358    -4.8270 N.am    
  16 C16            2.5239    -0.5255    -7.0780 C.3     
  17 C17            3.2719     0.7620    -7.4295 C.3     
  18 C18            2.3322    -1.3655    -8.3423 C.3     
  19 C19            1.1571    -0.1758    -6.4860 C.3     
  20 C20           -1.3207    -0.8441     0.1205 C.3     
  21 C21            4.6972    -1.6282    -6.6199 C.2     
  22 O22            5.6574    -0.9715    -6.2768 O.2     
  23 N23            4.8491    -2.6311    -7.5074 N.am    
  24 C24            6.1885    -3.0045    -7.9687 C.3     
  25 S25            5.4858     3.8999     1.3345 S.3     
  26 C26            6.1635     3.9464    -0.2862 C.2     
  27 C27            5.4663     3.1460    -1.0894 C.2     
  28 C28           -1.4109    -2.2437    -0.4910 C.3     
  29 C29           -2.6959    -3.0384    -0.2499 C.3     
  30 C30           -2.4069    -2.4526    -1.6335 C.3     
  31 H31           -0.3603     1.7416    -0.2804 H       
  32 H32           -0.3529     1.1408     1.3936 H       
  33 H33            0.5353    -1.4470    -1.7790 H       
  34 H34           -0.3045     0.0898    -2.1166 H       
  35 H35            1.6837     2.5391     0.7464 H       
  36 H36            2.0642     0.9163     1.3798 H       
  37 H37            3.5153     2.3945     1.5047 H       
  38 H38            2.8173    -2.2554    -5.8281 H       
  39 H39            4.2736     0.0050    -4.6892 H       
  40 H40            4.2456     0.5129    -7.8513 H       
  41 H41            2.6945     1.3300    -8.1590 H       
  42 H42            3.4084     1.3604    -6.5288 H       
  43 H43            1.7952    -2.2806    -8.0927 H       
  44 H44            1.7589    -0.7957    -9.0736 H       
  45 H45            3.3061    -1.6185    -8.7615 H       
  46 H46            1.2936     0.4225    -5.5852 H       
  47 H47            0.5797     0.3921    -7.2154 H       
  48 H48            0.6242    -1.0931    -6.2355 H       
  49 H49           -1.5400    -0.8987     1.1868 H       
  50 H50           -2.0425    -0.1879    -0.3658 H       
  51 H51            4.0715    -3.1058    -7.8406 H       
  52 H52            6.6567    -2.1490    -8.4555 H       
  53 H53            6.7934    -3.3134    -7.1161 H       
  54 H54            6.1120    -3.8289    -8.6776 H       
  55 H55            7.0195     4.5333    -0.5848 H       
  56 H56            5.6985     3.0120    -2.1356 H       
  57 H57           -0.4747    -2.8005    -0.5309 H       
  58 H58           -2.6051    -4.1182    -0.1316 H       
  59 H59           -3.4770    -2.5642     0.3443 H       
  60 H60           -2.9979    -1.5929    -1.9494 H       
  61 H61           -2.1260    -3.1469    -2.4254 H       
@<TRIPOS>BOND
   1    1    2 1
   2    1    6 1
   3    1   31 1
   4    1   32 1
   5    2    3 1
   6    2   20 1
   7    3    4 1
   8    3   33 1
   9    3   34 1
  10    4    5 1
  11    4    7 2
  12    5    6 1
  13    5    9 1
  14    6   35 1
  15    6   36 1
  16    7    8 1
  17    7   12 1
  18    8    9 2
  19    9   10 1
  20   10   11 2
  21   10   27 1
  22   11   25 1
  23   11   37 1
  24   12   13 2
  25   12   15 am
  26   14   15 1
  27   14   21 1
  28   14   16 1
  29   14   38 1
  30   15   39 1
  31   16   17 1
  32   16   18 1
  33   16   19 1
  34   17   40 1
  35   17   41 1
  36   17   42 1
  37   18   43 1
  38   18   44 1
  39   18   45 1
  40   19   46 1
  41   19   47 1
  42   19   48 1
  43   20   28 1
  44   20   49 1
  45   20   50 1
  46   21   22 2
  47   21   23 am
  48   23   24 1
  49   23   51 1
  50   24   52 1
  51   24   53 1
  52   24   54 1
  53   25   26 1
  54   26   27 2
  55   26   55 1
  56   27   56 1
  57   28   29 1
  58   28   30 1
  59   28   57 1
  60   29   30 1
  61   29   58 1
  62   29   59 1
  63   30   60 1
  64   30   61 1

#	End of record

