#	Name: ASD01812792
#	Creating user name:	WinNT
#	Creation time:	15. 06. 2019 19:29

#	Modifying user name:	WinNT
#	Modification time:	15. 06. 2019 19:29

#	Program:	/corina/corina34_cracker 3.40 0067  02.08.2006

@<TRIPOS>MOLECULE
ASD01812792
  47   50    0    0    0
SMALL
NO_CHARGES


@<TRIPOS>ATOM
   1 N1            -0.0158     1.3147     0.0093 N.ar    
   2 C2             0.0021    -0.0041     0.0020 C.ar    
   3 C3             1.1989    -0.7033    -0.0127 C.ar    
   4 C4             2.3829    -0.0013    -0.0202 C.ar    
   5 C5             2.3448     1.3978    -0.0128 C.ar    
   6 C6             1.0955     2.0332     0.0025 C.ar    
   7 C7             3.8373    -0.3889    -0.0363 C.3     
   8 N8             4.5955     0.8684    -0.0373 N.am    
   9 C9             3.7280     1.8961    -0.0237 C.2     
  10 C10            6.0558     0.9844    -0.0504 C.3     
  11 C11            6.5432     1.0311    -1.4757 C.ar    
  12 C12            6.6722     2.2476    -2.1236 C.ar    
  13 C13            7.1199     2.2905    -3.4328 C.ar    
  14 C14            7.4391     1.1168    -4.0940 C.ar    
  15 C15            7.3109    -0.0996    -3.4458 C.ar    
  16 C16            6.8673    -0.1421    -2.1351 C.ar    
  17 O17            1.0255     3.3856     0.0100 O.3     
  18 O18            4.0429     3.0706    -0.0212 O.2     
  19 F19            7.8751     1.1586    -5.3720 F       
  20 F20            6.7467    -1.3289    -1.5009 F       
  21 F21            6.3608     3.3930    -1.4784 F       
  22 C22           -0.2795     3.9677     0.0251 C.3     
  23 C23           -0.2431     5.3200    -0.6897 C.3     
  24 C24           -1.6403     5.9432    -0.6735 C.3     
  25 C25           -2.0926     6.1436     0.7743 C.3     
  26 C26           -2.1290     4.7913     1.4891 C.3     
  27 C27           -0.7317     4.1681     1.4729 C.3     
  28 O28            0.1794     5.1328    -2.0419 O.3     
  29 H29           -0.9309    -0.5480     0.0080 H       
  30 H30            1.2023    -1.7833    -0.0178 H       
  31 H31            4.0797    -0.9721     0.8522 H       
  32 H32            4.0624    -0.9631    -0.9351 H       
  33 H33            6.3524     1.8979     0.4651 H       
  34 H34            6.4932     0.1235     0.4552 H       
  35 H35            7.2199     3.2395    -3.9386 H       
  36 H36            7.5595    -1.0153    -3.9617 H       
  37 H37           -0.9786     3.3055    -0.4855 H       
  38 H38            0.4561     5.9822    -0.1790 H       
  39 H39           -1.6144     6.9065    -1.1827 H       
  40 H40           -2.3394     5.2810    -1.1842 H       
  41 H41           -1.3934     6.8058     1.2850 H       
  42 H42           -3.0880     6.5876     0.7859 H       
  43 H43           -2.4512     4.9341     2.5206 H       
  44 H44           -2.8281     4.1291     0.9785 H       
  45 H45           -0.7577     3.2048     1.9822 H       
  46 H46           -0.0326     4.8304     1.9836 H       
  47 H47            0.2256     5.9503    -2.5563 H       
@<TRIPOS>BOND
   1    1    2 ar
   2    1    6 ar
   3    2    3 ar
   4    2   29 1
   5    3    4 ar
   6    3   30 1
   7    4    7 1
   8    4    5 ar
   9    5    6 ar
  10    5    9 1
  11    6   17 1
  12    7    8 1
  13    7   31 1
  14    7   32 1
  15    8    9 am
  16    8   10 1
  17    9   18 2
  18   10   11 1
  19   10   33 1
  20   10   34 1
  21   11   12 ar
  22   11   16 ar
  23   12   13 ar
  24   12   21 1
  25   13   14 ar
  26   13   35 1
  27   14   15 ar
  28   14   19 1
  29   15   16 ar
  30   15   36 1
  31   16   20 1
  32   17   22 1
  33   22   23 1
  34   22   27 1
  35   22   37 1
  36   23   28 1
  37   23   24 1
  38   23   38 1
  39   24   25 1
  40   24   39 1
  41   24   40 1
  42   25   26 1
  43   25   41 1
  44   25   42 1
  45   26   27 1
  46   26   43 1
  47   26   44 1
  48   27   45 1
  49   27   46 1
  50   28   47 1

#	End of record

