#	Name: ASD04881336
#	Creating user name:	WinNT
#	Creation time:	15. 06. 2019 20:53

#	Modifying user name:	WinNT
#	Modification time:	15. 06. 2019 20:53

#	Program:	/corina/corina34_cracker 3.40 0067  02.08.2006

@<TRIPOS>MOLECULE
ASD04881336
  75   81    0    0    0
SMALL
NO_CHARGES


@<TRIPOS>ATOM
   1 N1            -0.2320     1.4760    -0.5800 N.2     
   2 C2             0.9760     1.9737    -0.9599 C.2     
   3 C3             1.4632     3.3484    -0.7462 C.2     
   4 O4             2.5697     3.6690    -1.1365 O.2     
   5 C5             1.6501     0.9632    -1.5737 C.2     
   6 O6             0.8466    -0.1123    -1.5532 O.3     
   7 C7            -0.2957     0.2293    -0.9406 C.2     
   8 N8             0.6826     4.2500    -0.1184 N.am    
   9 C9             1.1818     5.5264     0.1731 C.ar    
  10 C10            0.3055     6.6076     0.3014 C.ar    
  11 C11            0.7993     7.8745     0.5910 C.ar    
  12 C12            2.1531     8.0689     0.7521 C.ar    
  13 C13            3.0350     6.9921     0.6252 C.ar    
  14 C14            2.5406     5.7163     0.3396 C.ar    
  15 C15            4.4853     7.2007     0.7973 C.2     
  16 O16            5.2732     6.3849     0.3589 O.2     
  17 N17            4.9369     8.2956     1.4405 N.am    
  18 N18           -1.0641     6.4157     0.1385 N.3     
  19 C19           -1.3850     6.0654    -1.2522 C.3     
  20 C20           -2.8849     5.7856    -1.3719 C.3     
  21 N21           -3.6377     6.9729    -0.9437 N.3     
  22 C22           -3.3168     7.3232     0.4469 C.3     
  23 C23           -1.8169     7.6029     0.5666 C.3     
  24 C24           -5.0115     6.7804    -1.1072 C.ar    
  25 C25           -5.5549     6.6911    -2.3822 C.ar    
  26 C26           -6.9138     6.5003    -2.5403 C.ar    
  27 C27           -7.7328     6.3985    -1.4310 C.ar    
  28 C28           -7.1949     6.4870    -0.1599 C.ar    
  29 C29           -5.8365     6.6720     0.0054 C.ar    
  30 C30           -4.6631     6.8029    -3.5919 C.3     
  31 C31           -1.4684    -0.6878    -0.7067 C.3     
  32 C32           -2.1421    -1.3008    -1.9360 C.3     
  33 C33           -1.2780    -2.1727    -1.0228 C.3     
  34 C34            6.3505     8.6885     1.5795 C.3     
  35 C35            6.3753     9.9619     2.4266 C.3     
  36 C36            7.6171    10.1864     3.2845 C.3     
  37 C37            6.7313    11.2564     1.7011 C.3     
  38 O38            7.4828    11.5708     2.8942 O.3     
  39 C39            4.0977     9.3033     2.1168 C.3     
  40 C40            5.0312     9.9559     3.1742 C.3     
  41 H41            2.6422     1.0164    -1.9972 H       
  42 H42           -0.2247     4.0153     0.1317 H       
  43 H43            0.1197     8.7080     0.6896 H       
  44 H44            2.5337     9.0545     0.9764 H       
  45 H45            3.2192     4.8814     0.2453 H       
  46 H46           -1.1162     6.8941    -1.9073 H       
  47 H47           -0.8250     5.1762    -1.5417 H       
  48 H48           -3.1301     5.5539    -2.4084 H       
  49 H49           -3.1488     4.9394    -0.7375 H       
  50 H50           -3.8768     8.2124     0.7365 H       
  51 H51           -3.5856     6.4945     1.1020 H       
  52 H52           -1.5717     7.8347     1.6031 H       
  53 H53           -1.5530     8.4491    -0.0678 H       
  54 H54           -7.3370     6.4308    -3.5315 H       
  55 H55           -8.7950     6.2500    -1.5574 H       
  56 H56           -7.8375     6.4074     0.7045 H       
  57 H57           -5.4165     6.7365     0.9982 H       
  58 H58           -4.3757     5.8056    -3.9248 H       
  59 H59           -5.1990     7.3128    -4.3925 H       
  60 H60           -3.7696     7.3712    -3.3333 H       
  61 H61           -2.1046    -0.4308     0.1402 H       
  62 H62           -3.2215    -1.4473    -1.8977 H       
  63 H63           -1.7371    -1.0407    -2.9140 H       
  64 H64           -0.3046    -2.4862    -1.3999 H       
  65 H65           -1.7889    -2.8928    -0.3837 H       
  66 H66            6.9096     7.8975     2.0795 H       
  67 H67            6.7807     8.8857     0.5976 H       
  68 H68            7.4580    10.0092     4.3481 H       
  69 H69            8.5147     9.7031     2.8984 H       
  70 H70            7.3489    11.1112     0.8148 H       
  71 H71            5.8802    11.9149     1.5280 H       
  72 H72            3.7512    10.0493     1.4016 H       
  73 H73            3.2497     8.8235     2.6056 H       
  74 H74            5.0890     9.3496     4.0782 H       
  75 H75            4.7076    10.9707     3.4056 H       
@<TRIPOS>BOND
   1    1    7 2
   2    1    2 1
   3    2    3 1
   4    2    5 2
   5    3    4 2
   6    3    8 am
   7    5    6 1
   8    5   41 1
   9    6    7 1
  10    7   31 1
  11    8    9 1
  12    8   42 1
  13    9   10 ar
  14    9   14 ar
  15   10   11 ar
  16   10   18 1
  17   11   12 ar
  18   11   43 1
  19   12   13 ar
  20   12   44 1
  21   13   14 ar
  22   13   15 1
  23   14   45 1
  24   15   16 2
  25   15   17 am
  26   17   34 1
  27   17   39 1
  28   18   19 1
  29   18   23 1
  30   19   20 1
  31   19   46 1
  32   19   47 1
  33   20   21 1
  34   20   48 1
  35   20   49 1
  36   21   22 1
  37   21   24 1
  38   22   23 1
  39   22   50 1
  40   22   51 1
  41   23   52 1
  42   23   53 1
  43   24   25 ar
  44   24   29 ar
  45   25   26 ar
  46   25   30 1
  47   26   27 ar
  48   26   54 1
  49   27   28 ar
  50   27   55 1
  51   28   29 ar
  52   28   56 1
  53   29   57 1
  54   30   58 1
  55   30   59 1
  56   30   60 1
  57   31   32 1
  58   31   33 1
  59   31   61 1
  60   32   33 1
  61   32   62 1
  62   32   63 1
  63   33   64 1
  64   33   65 1
  65   34   35 1
  66   34   66 1
  67   34   67 1
  68   35   36 1
  69   35   37 1
  70   35   40 1
  71   36   38 1
  72   36   68 1
  73   36   69 1
  74   37   38 1
  75   37   70 1
  76   37   71 1
  77   39   40 1
  78   39   72 1
  79   39   73 1
  80   40   74 1
  81   40   75 1

#	End of record

