#	Name: ASD01903195
#	Creating user name:	WinNT
#	Creation time:	15. 06. 2019 19:54

#	Modifying user name:	WinNT
#	Modification time:	15. 06. 2019 19:54

#	Program:	/corina/corina34_cracker 3.40 0067  02.08.2006

@<TRIPOS>MOLECULE
ASD01903195
  42   45    0    0    0
SMALL
NO_CHARGES


@<TRIPOS>ATOM
   1 S1            -0.0207     1.7564     0.0123 S.3     
   2 C2             0.0025    -0.0046     0.0088 C.2     
   3 N3             1.2327    -0.4182     0.0068 N.2     
   4 C4             2.1788     0.5101     0.0076 C.2     
   5 C5             1.7413     1.7798     0.0106 C.2     
   6 N6            -1.1185    -0.8216     0.0090 N.pl3   
   7 C7            -0.9742    -2.2008    -0.1049 C.ar    
   8 N8             0.2258    -2.7199    -0.3137 N.ar    
   9 C9             0.4061    -4.0221    -0.4272 C.ar    
  10 C10           -0.6587    -4.8954    -0.3313 C.ar    
  11 C11           -1.9342    -4.3913    -0.1126 C.ar    
  12 C12           -2.0913    -3.0224     0.0074 C.ar    
  13 C13            3.6247     0.1692     0.0060 C.2     
  14 C14            4.6474     0.8858    -0.6444 C.2     
  15 N15            5.7808     0.2771    -0.4133 N.2     
  16 N16            5.5285    -0.8434     0.3875 N.pl3   
  17 C17            4.2030    -0.8913     0.6390 C.2     
  18 C18            2.6082     3.0125     0.0112 C.3     
  19 N19            2.8874     3.4155    -1.3736 N.3     
  20 C20            3.5264     4.7387    -1.4186 C.3     
  21 C21            3.8532     5.0924    -2.8719 C.3     
  22 O22            2.6545     5.0433    -3.6504 O.3     
  23 C23            2.0064     3.7686    -3.6295 C.3     
  24 C24            1.6608     3.4015    -2.1839 C.3     
  25 H25           -2.0030    -0.4314     0.0886 H       
  26 H26            1.3996    -4.4098    -0.5977 H       
  27 H27           -0.5016    -5.9597    -0.4259 H       
  28 H28           -2.7836    -5.0536    -0.0338 H       
  29 H29           -3.0691    -2.5966     0.1779 H       
  30 H30            4.5179     1.7824    -1.2324 H       
  31 H31            6.1917    -1.4742     0.7087 H       
  32 H32            3.6924    -1.6375     1.2296 H       
  33 H33            2.0901     3.8208     0.5273 H       
  34 H34            3.5461     2.7969     0.5230 H       
  35 H35            2.8474     5.4850    -1.0062 H       
  36 H36            4.4456     4.7191    -0.8332 H       
  37 H37            4.2750     6.0966    -2.9161 H       
  38 H38            4.5738     4.3766    -3.2675 H       
  39 H39            1.0924     3.8153    -4.2216 H       
  40 H40            2.6732     3.0143    -4.0471 H       
  41 H41            1.2182     2.4057    -2.1571 H       
  42 H42            0.9520     4.1264    -1.7837 H       
@<TRIPOS>BOND
   1    1    2 1
   2    1    5 1
   3    2    3 2
   4    2    6 1
   5    3    4 1
   6    4    5 2
   7    4   13 1
   8    5   18 1
   9    6    7 1
  10    6   25 1
  11    7    8 ar
  12    7   12 ar
  13    8    9 ar
  14    9   10 ar
  15    9   26 1
  16   10   11 ar
  17   10   27 1
  18   11   12 ar
  19   11   28 1
  20   12   29 1
  21   13   14 1
  22   13   17 2
  23   14   15 2
  24   14   30 1
  25   15   16 1
  26   16   17 1
  27   16   31 1
  28   17   32 1
  29   18   19 1
  30   18   33 1
  31   18   34 1
  32   19   20 1
  33   19   24 1
  34   20   21 1
  35   20   35 1
  36   20   36 1
  37   21   22 1
  38   21   37 1
  39   21   38 1
  40   22   23 1
  41   23   24 1
  42   23   39 1
  43   23   40 1
  44   24   41 1
  45   24   42 1

#	End of record

