#	Name: ASD01180029
#	Creating user name:	WinNT
#	Creation time:	15. 06. 2019 19:06

#	Modifying user name:	WinNT
#	Modification time:	15. 06. 2019 19:06

#	Program:	/corina/corina34_cracker 3.40 0067  02.08.2006

@<TRIPOS>MOLECULE
ASD01180029
  34   36    0    0    0
SMALL
NO_CHARGES


@<TRIPOS>ATOM
   1 N1             0.0627     1.2981     0.2384 N.ar    
   2 C2             0.0492    -0.0112     0.3035 C.ar    
   3 C3             1.2178    -0.7527     0.0549 C.ar    
   4 N4             2.3472    -0.1413    -0.2477 N.ar    
   5 C5             2.3784     1.1956    -0.3184 C.ar    
   6 C6             3.5654     1.8751    -0.6385 C.ar    
   7 C7             3.5686     3.2359    -0.7040 C.ar    
   8 C8             2.4065     3.9678    -0.4571 C.ar    
   9 C9             1.2382     3.3409    -0.1440 C.ar    
  10 C10            1.1982     1.9388    -0.0675 C.ar    
  11 S11           -1.4471    -0.8496     0.7070 S.o2    
  12 O12           -1.0258    -2.1480     1.1020 O.2     
  13 O13           -2.0997     0.0191     1.6228 O.2     
  14 C14           -2.3598    -0.9256    -0.8589 C.3     
  15 Cl15           2.4502     5.7008    -0.5497 Cl      
  16 Cl16           5.0384     4.0707    -1.0995 Cl      
  17 C17            2.5486    -2.7044     0.0922 C.3     
  18 N18            1.1831    -2.1373     0.1287 N.3     
  19 C19            0.4733    -2.7151    -1.0412 C.3     
  20 C20            2.4615    -4.0439    -0.6625 C.3     
  21 C21            0.9774    -4.1798    -1.0738 C.3     
  22 H22            4.4720     1.3209    -0.8315 H       
  23 H23            0.3463     3.9198     0.0450 H       
  24 H24           -1.7292    -1.3758    -1.6255 H       
  25 H25           -3.2581    -1.5287    -0.7270 H       
  26 H26           -2.6405     0.0822    -1.1650 H       
  27 H27            3.2190    -2.0248    -0.4339 H       
  28 H28            2.9079    -2.8729     1.1074 H       
  29 H29           -0.6058    -2.6829    -0.8909 H       
  30 H30            0.7511    -2.1922    -1.9564 H       
  31 H31            3.0986    -4.0222    -1.5466 H       
  32 H32            2.7494    -4.8664    -0.0078 H       
  33 H33            0.4324    -4.7914    -0.3547 H       
  34 H34            0.8919    -4.5949    -2.0780 H       
@<TRIPOS>BOND
   1    1    2 ar
   2    1   10 ar
   3    2    3 ar
   4    2   11 1
   5    3    4 ar
   6    3   18 1
   7    4    5 ar
   8    5    6 ar
   9    5   10 ar
  10    6    7 ar
  11    6   22 1
  12    7    8 ar
  13    7   16 1
  14    8    9 ar
  15    8   15 1
  16    9   10 ar
  17    9   23 1
  18   11   12 2
  19   11   13 2
  20   11   14 1
  21   14   24 1
  22   14   25 1
  23   14   26 1
  24   17   20 1
  25   17   18 1
  26   17   27 1
  27   17   28 1
  28   18   19 1
  29   19   21 1
  30   19   29 1
  31   19   30 1
  32   20   21 1
  33   20   31 1
  34   20   32 1
  35   21   33 1
  36   21   34 1

#	End of record

