#	Name: ASD01885896
#	Creating user name:	WinNT
#	Creation time:	15. 06. 2019 19:50

#	Modifying user name:	WinNT
#	Modification time:	15. 06. 2019 19:50

#	Program:	/corina/corina34_cracker 3.40 0067  02.08.2006

@<TRIPOS>MOLECULE
ASD01885896
  50   53    0    0    0
SMALL
NO_CHARGES


@<TRIPOS>ATOM
   1 C1            -0.0170     1.4037     0.0098 C.ar    
   2 C2             1.2138     2.1080     0.0018 C.ar    
   3 C3             1.1960     3.5258     0.0097 C.ar    
   4 C4            -0.0387     4.1599     0.0249 C.ar    
   5 C5            -1.2083     3.3914     0.0319 C.ar    
   6 N6            -1.1703     2.0724     0.0299 N.ar    
   7 C7             0.0021    -0.0041     0.0020 C.ar    
   8 C8             1.1925    -0.6629    -0.0129 C.ar    
   9 C9             2.3992     0.0335    -0.0208 C.ar    
  10 C10            2.4200     1.3962    -0.0132 C.ar    
  11 C11            1.2059    -2.1698    -0.0207 C.3     
  12 C12           -2.5233     4.0766     0.0481 C.2     
  13 N13           -3.6602     3.3529     0.0551 N.am    
  14 O14           -2.5757     5.2905     0.0552 O.2     
  15 C15            2.4549     4.3053     0.0024 C.ar    
  16 C16            1.4476    -2.6704    -1.4461 C.3     
  17 O17            2.2503    -2.6412     0.8332 O.3     
  18 C18            1.3391    -4.1732    -1.4759 C.ar    
  19 C19            2.6330     5.3384    -0.9182 C.ar    
  20 C20            3.8073     6.0616    -0.9210 C.ar    
  21 C21            4.8098     5.7632    -0.0116 C.ar    
  22 C22            4.6376     4.7379     0.9049 C.ar    
  23 C23            3.4645     4.0130     0.9198 C.ar    
  24 C24            0.1188    -4.7842    -1.7194 C.ar    
  25 C25            0.0665    -6.1698    -1.7380 C.ar    
  26 C26            1.2242    -6.8904    -1.5149 C.ar    
  27 N27            2.3681    -6.2753    -1.2860 N.ar    
  28 C28            2.4563    -4.9598    -1.2666 C.ar    
  29 F29            5.9587     6.4739    -0.0189 F       
  30 C30            1.1791    -8.3966    -1.5328 C.3     
  31 H31           -0.0964     5.2383     0.0317 H       
  32 H32           -0.9245    -0.5588     0.0083 H       
  33 H33            3.3303    -0.5137    -0.0327 H       
  34 H34            3.3619     1.9245    -0.0190 H       
  35 H35            0.2469    -2.5436     0.3380 H       
  36 H36           -3.6183     2.3838     0.0494 H       
  37 H37           -4.5204     3.8011     0.0657 H       
  38 H38            0.7020    -2.2390    -2.1140 H       
  39 H39            2.4438    -2.3715    -1.7722 H       
  40 H40            3.1339    -2.3467     0.5733 H       
  41 H41            1.8527     5.5712    -1.6277 H       
  42 H42            3.9461     6.8615    -1.6333 H       
  43 H43            5.4218     4.5090     1.6113 H       
  44 H44            3.3311     3.2145     1.6347 H       
  45 H45           -0.7701    -4.1950    -1.8901 H       
  46 H46           -0.8674    -6.6793    -1.9242 H       
  47 H47            3.4106    -4.4915    -1.0757 H       
  48 H48            1.3663    -8.7537    -2.5455 H       
  49 H49            1.9420    -8.7910    -0.8616 H       
  50 H50            0.1962    -8.7346    -1.2043 H       
@<TRIPOS>BOND
   1    1    7 ar
   2    1    2 ar
   3    1    6 ar
   4    2    3 ar
   5    2   10 ar
   6    3    4 ar
   7    3   15 1
   8    4    5 ar
   9    4   31 1
  10    5    6 ar
  11    5   12 1
  12    7    8 ar
  13    7   32 1
  14    8    9 ar
  15    8   11 1
  16    9   10 ar
  17    9   33 1
  18   10   34 1
  19   11   16 1
  20   11   17 1
  21   11   35 1
  22   12   13 am
  23   12   14 2
  24   13   36 1
  25   13   37 1
  26   15   19 ar
  27   15   23 ar
  28   16   18 1
  29   16   38 1
  30   16   39 1
  31   17   40 1
  32   18   24 ar
  33   18   28 ar
  34   19   20 ar
  35   19   41 1
  36   20   21 ar
  37   20   42 1
  38   21   22 ar
  39   21   29 1
  40   22   23 ar
  41   22   43 1
  42   23   44 1
  43   24   25 ar
  44   24   45 1
  45   25   26 ar
  46   25   46 1
  47   26   27 ar
  48   26   30 1
  49   27   28 ar
  50   28   47 1
  51   30   48 1
  52   30   49 1
  53   30   50 1

#	End of record

