#	Name: ASD02100009
#	Creating user name:	WinNT
#	Creation time:	15. 06. 2019 20:18

#	Modifying user name:	WinNT
#	Modification time:	15. 06. 2019 20:18

#	Program:	/corina/corina34_cracker 3.40 0067  02.08.2006

@<TRIPOS>MOLECULE
ASD02100009
   8    7    0    0    0
SMALL
NO_CHARGES


@<TRIPOS>ATOM
   1 As1           -0.0194     1.5793     0.0107 Du      
   2 O2             0.0021    -0.0041     0.0020 O.2     
   3 O3             1.7068     2.2162    -0.0023 O.3     
   4 O4            -0.9093     2.1888    -1.4799 O.3     
   5 O5            -0.8806     2.1727     1.5246 O.3     
   6 H6             1.7701     3.1811     0.0022 H       
   7 H7            -0.5099     1.9135    -2.3165 H       
   8 H8            -0.4654     1.8884     2.3503 H       
@<TRIPOS>BOND
   1    1    2 2
   2    1    3 1
   3    1    4 1
   4    1    5 1
   5    3    6 1
   6    4    7 1
   7    5    8 1

#	End of record

