#	Name: ASD05450004
#	Creating user name:	WinNT
#	Creation time:	15. 06. 2019 21:00

#	Modifying user name:	WinNT
#	Modification time:	15. 06. 2019 21:00

#	Program:	/corina/corina34_cracker 3.40 0067  02.08.2006

@<TRIPOS>MOLECULE
ASD05450004
 119  126    0    0    0
SMALL
NO_CHARGES


@<TRIPOS>ATOM
   1 C1            -1.0324     3.5195     2.0758 C.ar    
   2 C2            -1.6041     3.2321     3.2971 C.ar    
   3 C3            -0.9653     3.6037     4.4687 C.ar    
   4 C4             0.2506     4.2657     4.4216 C.ar    
   5 C5             0.8325     4.5588     3.2065 C.ar    
   6 C6             0.1936     4.1864     2.0216 C.ar    
   7 C7             0.8116     4.4969     0.7170 C.2     
   8 N8             1.9428     5.2277     0.6640 N.am    
   9 O9             0.3003     4.0934    -0.3089 O.2     
  10 C10            4.1103     5.8084     0.6782 C.ar    
  11 C11            3.2250     4.7225     0.7936 C.ar    
  12 C12            1.9984     6.5862     0.4673 C.2     
  13 C13            3.2747     6.9956     0.4677 C.2     
  14 C14            5.4865     5.5992     0.7728 C.ar    
  15 C15            5.9703     4.3215     0.9802 C.ar    
  16 C16            5.0914     3.2479     1.0864 C.ar    
  17 C17            3.7301     3.4449     0.9979 C.ar    
  18 O18            7.3105     4.1115     1.0732 O.3     
  19 C19            7.7430     2.7665     1.2879 C.3     
  20 C20            0.8020     7.4830     0.2791 C.3     
  21 C21            3.7604     8.4106     0.2859 C.3     
  22 C22            3.9878     8.6793    -1.1795 C.2     
  23 C23            4.4780    10.0311    -1.6305 C.3     
  24 O24            3.7772     7.8113    -1.9922 O.2     
  25 Cl25          -1.6919     3.2387     6.0026 Cl      
  26 N26            4.6185    10.0381    -3.0927 N.3     
  27 C27            5.0956    11.3432    -3.5694 C.3     
  28 C28            5.2292    11.3118    -5.0932 C.3     
  29 C29            5.7261    12.6710    -5.5898 C.3     
  30 C30            5.8597    12.6396    -7.1136 C.3     
  31 N31            6.3355    13.9410    -7.5890 N.am    
  32 C32            6.5285    14.1477    -8.9068 C.2     
  33 O33            6.3082    13.2562    -9.6990 O.2     
  34 C34            7.0179    15.4865    -9.3958 C.3     
  35 C35            7.1495    15.4555   -10.8967 C.2     
  36 O36            6.8742    14.4501   -11.5064 O.2     
  37 C37            7.6246    16.6793   -11.6369 C.3     
  38 O38            7.6654    16.4025   -13.0382 O.3     
  39 C39            8.0039    17.5329   -13.8443 C.3     
  40 C40            8.6638    17.0673   -15.1302 C.ar    
  41 C41            8.3850    17.6279   -16.3581 C.ar    
  42 C42            7.4050    18.7750   -16.5331 C.3     
  43 C43            6.7452    18.2949   -14.2136 C.3     
  44 C44            9.5819    16.0229   -15.0056 C.ar    
  45 C45           10.2006    15.5604   -16.1547 C.ar    
  46 C46            9.0015    17.1643   -17.5214 C.ar    
  47 O47           11.1149    14.5781   -16.3226 O.3     
  48 C48           11.0986    14.2723   -17.7326 C.3     
  49 O49           10.6427    15.4938   -18.3505 O.3     
  50 C50            9.9104    16.1261   -17.4056 C.ar    
  51 C51            6.1605    19.1745   -13.0973 C.3     
  52 C52            7.2091    19.4296   -15.1816 C.3     
  53 C53            6.0800    20.4102   -15.0645 C.2     
  54 O54            5.5196    20.2689   -13.8405 O.3     
  55 C55            6.0875    18.2473   -17.0399 C.ar    
  56 C56            5.3043    19.0295   -17.8678 C.ar    
  57 C57            4.0911    18.5478   -18.3360 C.ar    
  58 C58            3.6633    17.2766   -17.9720 C.ar    
  59 C59            4.4540    16.4932   -17.1397 C.ar    
  60 C60            5.6682    16.9803   -16.6801 C.ar    
  61 O61            3.3209    19.3185   -19.1498 O.3     
  62 C62            3.8231    20.6144   -19.4821 C.3     
  63 O63            2.4731    16.8004   -18.4289 O.3     
  64 C64            2.4925    16.0843   -19.6654 C.3     
  65 O65            4.0395    15.2487   -16.7804 O.3     
  66 C66            4.9030    14.4998   -15.9227 C.3     
  67 O67            5.7308    21.1924   -15.9166 O.2     
  68 H68           -1.5294     3.2257     1.1631 H       
  69 H69           -2.5521     2.7165     3.3403 H       
  70 H70            0.7435     4.5531     5.3385 H       
  71 H71            1.7802     5.0756     3.1711 H       
  72 H72            6.1693     6.4319     0.6905 H       
  73 H73            5.4788     2.2529     1.2484 H       
  74 H74            3.0561     2.6058     1.0879 H       
  75 H75            7.3227     2.3944     2.2223 H       
  76 H76            7.4050     2.1400     0.4625 H       
  77 H77            8.8313     2.7392     1.3427 H       
  78 H78            0.4658     7.8486     1.2493 H       
  79 H79            1.0771     8.3280    -0.3522 H       
  80 H80           -0.0021     6.9211    -0.1961 H       
  81 H81            3.0123     9.1038     0.6705 H       
  82 H82            4.6953     8.5465     0.8295 H       
  83 H83            3.7616    10.7959    -1.3306 H       
  84 H84            5.4446    10.2387    -1.1716 H       
  85 H85            5.2281     9.2956    -3.4010 H       
  86 H86            4.3835    12.1171    -3.2830 H       
  87 H87            6.0665    11.5599    -3.1240 H       
  88 H88            5.9412    10.5378    -5.3797 H       
  89 H89            4.2582    11.0950    -5.5387 H       
  90 H90            5.0141    13.4449    -5.3033 H       
  91 H91            6.6970    12.8877    -5.1443 H       
  92 H92            6.5718    11.8656    -7.4000 H       
  93 H93            4.8888    12.4228    -7.5590 H       
  94 H94            6.5117    14.6540    -6.9554 H       
  95 H95            6.3059    16.2604    -9.1094 H       
  96 H96            7.9889    15.7032    -8.9504 H       
  97 H97            6.9394    17.5060   -11.4496 H       
  98 H98            8.6224    16.9488   -11.2905 H       
  99 H99            8.6836    18.1857   -13.2966 H       
 100 H100           7.8087    19.5006   -17.2393 H       
 101 H101           5.9963    17.6451   -14.6662 H       
 102 H102           9.8032    15.5890   -14.0416 H       
 103 H103           8.7761    17.6018   -18.4827 H       
 104 H104          12.1001    14.0191   -18.0801 H       
 105 H105          10.4043    13.4577   -17.9387 H       
 106 H106           5.4239    18.6203   -12.5157 H       
 107 H107           6.9524    19.5576   -12.4537 H       
 108 H108           8.1444    19.8683   -14.8341 H       
 109 H109           5.6375    20.0173   -18.1502 H       
 110 H110           6.2852    16.3704   -16.0369 H       
 111 H111           3.9591    21.1961   -18.5704 H       
 112 H112           4.7798    20.5128   -19.9944 H       
 113 H113           3.1135    21.1226   -20.1350 H       
 114 H114           2.8710    16.7331   -20.4552 H       
 115 H115           3.1397    15.2124   -19.5701 H       
 116 H116           1.4817    15.7610   -19.9140 H       
 117 H117           4.4547    13.5285   -15.7141 H       
 118 H118           5.8667    14.3577   -16.4118 H       
 119 H119           5.0463    15.0421   -14.9881 H       
@<TRIPOS>BOND
   1    1    2 ar
   2    1    6 ar
   3    1   68 1
   4    2    3 ar
   5    2   69 1
   6    3    4 ar
   7    3   25 1
   8    4    5 ar
   9    4   70 1
  10    5    6 ar
  11    5   71 1
  12    6    7 1
  13    7    8 am
  14    7    9 2
  15    8   12 1
  16    8   11 1
  17   10   13 1
  18   10   11 ar
  19   10   14 ar
  20   11   17 ar
  21   12   13 2
  22   12   20 1
  23   13   21 1
  24   14   15 ar
  25   14   72 1
  26   15   16 ar
  27   15   18 1
  28   16   17 ar
  29   16   73 1
  30   17   74 1
  31   18   19 1
  32   19   75 1
  33   19   76 1
  34   19   77 1
  35   20   78 1
  36   20   79 1
  37   20   80 1
  38   21   22 1
  39   21   81 1
  40   21   82 1
  41   22   23 1
  42   22   24 2
  43   23   26 1
  44   23   83 1
  45   23   84 1
  46   26   27 1
  47   26   85 1
  48   27   28 1
  49   27   86 1
  50   27   87 1
  51   28   29 1
  52   28   88 1
  53   28   89 1
  54   29   30 1
  55   29   90 1
  56   29   91 1
  57   30   31 1
  58   30   92 1
  59   30   93 1
  60   31   32 am
  61   31   94 1
  62   32   33 2
  63   32   34 1
  64   34   35 1
  65   34   95 1
  66   34   96 1
  67   35   36 2
  68   35   37 1
  69   37   38 1
  70   37   97 1
  71   37   98 1
  72   38   39 1
  73   39   40 1
  74   39   43 1
  75   39   99 1
  76   40   41 ar
  77   40   44 ar
  78   41   42 1
  79   41   46 ar
  80   42   52 1
  81   42   55 1
  82   42  100 1
  83   43   52 1
  84   43   51 1
  85   43  101 1
  86   44   45 ar
  87   44  102 1
  88   45   50 ar
  89   45   47 1
  90   46   50 ar
  91   46  103 1
  92   47   48 1
  93   48   49 1
  94   48  104 1
  95   48  105 1
  96   49   50 1
  97   51   54 1
  98   51  106 1
  99   51  107 1
 100   52   53 1
 101   52  108 1
 102   53   54 1
 103   53   67 2
 104   55   56 ar
 105   55   60 ar
 106   56   57 ar
 107   56  109 1
 108   57   58 ar
 109   57   61 1
 110   58   59 ar
 111   58   63 1
 112   59   60 ar
 113   59   65 1
 114   60  110 1
 115   61   62 1
 116   62  111 1
 117   62  112 1
 118   62  113 1
 119   63   64 1
 120   64  114 1
 121   64  115 1
 122   64  116 1
 123   65   66 1
 124   66  117 1
 125   66  118 1
 126   66  119 1

#	End of record

