#	Name: ASD03331284
#	Creating user name:	WinNT
#	Creation time:	15. 06. 2019 20:38

#	Modifying user name:	WinNT
#	Modification time:	15. 06. 2019 20:38

#	Program:	/corina/corina34_cracker 3.40 0067  02.08.2006

@<TRIPOS>MOLECULE
ASD03331284
  52   53    0    0    0
SMALL
NO_CHARGES


@<TRIPOS>ATOM
   1 N1            -0.0459     1.4956     0.5698 N.am    
   2 C2             0.0019     0.1506     1.1631 C.3     
   3 C3             0.5966    -0.8151     0.1327 C.3     
   4 N4             1.8894    -0.2950    -0.3322 N.3     
   5 C5             1.7288     0.9911    -1.0237 C.3     
   6 C6             1.1805     2.0309    -0.0406 C.3     
   7 C7            -1.1849     2.2161     0.5803 C.2     
   8 O8            -2.2139     1.7207     0.9973 O.2     
   9 N9            -1.1831     3.4859     0.1284 N.am    
  10 C10           -2.3851     4.1963     0.0330 C.ar    
  11 C11           -2.4015     5.5681     0.2480 C.ar    
  12 C12            2.5723    -1.2723    -1.1903 C.3     
  13 C13            3.7648    -0.6215    -1.8425 C.ar    
  14 C14            5.0185    -0.7553    -1.2503 C.ar    
  15 C15            6.1109    -0.1725    -1.8277 C.ar    
  16 C16            5.9244     0.5531    -3.0190 C.ar    
  17 C17            4.6215     0.6496    -3.5679 C.ar    
  18 N18            3.5956     0.0511    -2.9551 N.ar    
  19 C19           -3.5629     3.5318    -0.2826 C.ar    
  20 C20           -4.7474     4.2358    -0.3765 C.ar    
  21 C21           -4.7613     5.6010    -0.1566 C.ar    
  22 C22           -3.5893     6.2664     0.1527 C.ar    
  23 C23            6.9997     1.1799    -3.6695 C.ar    
  24 C24            6.7782     1.8731    -4.8200 C.ar    
  25 C25            5.4978     1.9694    -5.3617 C.ar    
  26 C26            4.4334     1.3742    -4.7582 C.ar    
  27 H27            0.6285     0.1659     2.0549 H       
  28 H28           -1.0063    -0.1697     1.4260 H       
  29 H29            0.7419    -1.7929     0.5920 H       
  30 H30           -0.0837    -0.9080    -0.7139 H       
  31 H31            2.6951     1.3233    -1.4030 H       
  32 H32            1.0327     0.8731    -1.8541 H       
  33 H33            0.9515     2.9537    -0.5736 H       
  34 H34            1.9203     2.2269     0.7355 H       
  35 H35           -0.3488     3.9073    -0.1307 H       
  36 H36           -1.4865     6.0883     0.4900 H       
  37 H37            2.9044    -2.1167    -0.5862 H       
  38 H38            1.8845    -1.6239    -1.9593 H       
  39 H39            5.1267    -1.3190    -0.3355 H       
  40 H40            7.0902    -0.2658    -1.3821 H       
  41 H41           -3.5526     2.4657    -0.4549 H       
  42 H42           -5.6637     3.7197    -0.6223 H       
  43 H43           -5.6889     6.1493    -0.2306 H       
  44 H44           -3.6034     7.3327     0.3239 H       
  45 H45            7.9965     1.1127    -3.2592 H       
  46 H46            7.6057     2.3551    -5.3194 H       
  47 H47            5.3480     2.5251    -6.2756 H       
  48 H48            3.4477     1.4583    -5.1915 H       
  49 Cl49          12.9965    12.3327     7.0549 Cl      
  50 H50           12.9965    13.7027     7.0549 H       
  51 Cl51          17.9965    18.7027    12.0549 Cl      
  52 H52           17.9965    20.0727    12.0549 H       
@<TRIPOS>BOND
   1    1    2 1
   2    1    6 1
   3    1    7 am
   4    2    3 1
   5    2   27 1
   6    2   28 1
   7    3    4 1
   8    3   29 1
   9    3   30 1
  10    4    5 1
  11    4   12 1
  12    5    6 1
  13    5   31 1
  14    5   32 1
  15    6   33 1
  16    6   34 1
  17    7    8 2
  18    7    9 am
  19    9   10 1
  20    9   35 1
  21   10   11 ar
  22   10   19 ar
  23   11   22 ar
  24   11   36 1
  25   12   13 1
  26   12   37 1
  27   12   38 1
  28   13   14 ar
  29   13   18 ar
  30   14   15 ar
  31   14   39 1
  32   15   16 ar
  33   15   40 1
  34   16   17 ar
  35   16   23 ar
  36   17   18 ar
  37   17   26 ar
  38   19   20 ar
  39   19   41 1
  40   20   21 ar
  41   20   42 1
  42   21   22 ar
  43   21   43 1
  44   22   44 1
  45   23   24 ar
  46   23   45 1
  47   24   25 ar
  48   24   46 1
  49   25   26 ar
  50   25   47 1
  51   26   48 1
  52   49   50 1
  53   51   52 1

#	End of record

