#	Name: ASD05740024
#	Creating user name:	WinNT
#	Creation time:	15. 06. 2019 21:02

#	Modifying user name:	WinNT
#	Modification time:	15. 06. 2019 21:02

#	Program:	/corina/corina34_cracker 3.40 0067  02.08.2006

@<TRIPOS>MOLECULE
ASD05740024
  54   55    0    0    0
SMALL
NO_CHARGES


@<TRIPOS>ATOM
   1 C1            -0.2337     1.4917     0.5635 C.ar    
   2 C2             6.6936    -0.1327     5.8523 C.3     
   3 C3            -0.2593     0.0997     0.6285 C.ar    
   4 C4             0.9515     2.1562     0.4376 C.ar    
   5 C5             2.1496     1.4353     0.3734 C.ar    
   6 C6             2.1301     0.0297     0.4385 C.ar    
   7 C7             0.9167    -0.6295     0.5664 C.ar    
   8 C8             3.4361     2.1213     0.2373 C.2     
   9 C9             4.5635     1.3656     0.1794 C.2     
  10 C10            4.4704    -0.0395     0.2506 C.2     
  11 O11            3.2879    -0.6623     0.3750 O.3     
  12 C12            5.9101     2.0273     0.0389 C.3     
  13 C13            6.5291     2.2010     1.4020 C.ar    
  14 C14            6.3859     3.3921     2.0884 C.ar    
  15 O15            5.4889    -0.7052     0.1975 O.2     
  16 C16            7.7993     1.3734     3.2486 C.ar    
  17 C17            7.6157     2.5999     3.8701 C.ar    
  18 N18            6.9234     3.5559     3.2814 N.ar    
  19 O19           -1.4463    -0.5466     0.7541 O.3     
  20 N20            8.5335     0.3620     3.8769 N.am    
  21 S21            8.4499     0.1770     5.5204 S.o2    
  22 O22            8.8390     1.4428     6.0357 O.2     
  23 O23            9.2198    -0.9884     5.7815 O.2     
  24 C24            3.5074     3.6248     0.1629 C.3     
  25 C25            3.2898     4.0748    -1.2831 C.3     
  26 C26           -2.6226     0.2626     0.8130 C.3     
  27 C27            7.2445     1.1655     1.9850 C.ar    
  28 F28            7.3999    -0.0147     1.3461 F       
  29 H29           -1.1584     2.0479     0.6085 H       
  30 H30            6.3774    -1.0327     5.3249 H       
  31 H31            6.5446    -0.2681     6.9235 H       
  32 H32            6.1034     0.7165     5.5078 H       
  33 H33            0.9651     3.2349     0.3874 H       
  34 H34            0.8888    -1.7079     0.6174 H       
  35 H35            6.5583     1.4048    -0.5778 H       
  36 H36            5.7883     3.0029    -0.4317 H       
  37 H37            5.8262     4.2003     1.6413 H       
  38 H38            8.0439     2.7737     4.8462 H       
  39 H39            9.0915    -0.2310     3.3498 H       
  40 H40            2.7344     4.0571     0.7982 H       
  41 H41            4.4871     3.9594     0.5040 H       
  42 H42            4.0629     3.6425    -1.9184 H       
  43 H43            2.3101     3.7403    -1.6242 H       
  44 H44            3.3414     5.1623    -1.3369 H       
  45 H45           -3.4993    -0.3773     0.9131 H       
  46 H46           -2.5610     0.9313     1.6716 H       
  47 H47           -2.7049     0.8512    -0.1008 H       
  48 C48           14.7470    12.8316    13.7918 C.3     
  49 N49           14.7668    11.3667    13.7838 N.2     
  50 C50           15.3075    10.7542    12.8377 C.1     
  51 O51           15.8301    10.1623    11.9235 O.2     
  52 H52           15.7696    13.2089    13.7841 H       
  53 H53           14.2198    13.1927    12.9088 H       
  54 H54           14.2368    13.1831    14.6886 H       
@<TRIPOS>BOND
   1    1    3 ar
   2    1    4 ar
   3    1   29 1
   4    2   21 1
   5    2   30 1
   6    2   31 1
   7    2   32 1
   8    3   19 1
   9    3    7 ar
  10    4    5 ar
  11    4   33 1
  12    5    6 ar
  13    5    8 1
  14    6    7 ar
  15    6   11 1
  16    7   34 1
  17    8    9 2
  18    8   24 1
  19    9   10 1
  20    9   12 1
  21   10   11 1
  22   10   15 2
  23   12   13 1
  24   12   35 1
  25   12   36 1
  26   13   14 ar
  27   13   27 ar
  28   14   18 ar
  29   14   37 1
  30   16   17 ar
  31   16   20 1
  32   16   27 ar
  33   17   18 ar
  34   17   38 1
  35   19   26 1
  36   20   21 am
  37   20   39 1
  38   21   22 2
  39   21   23 2
  40   24   25 1
  41   24   40 1
  42   24   41 1
  43   25   42 1
  44   25   43 1
  45   25   44 1
  46   26   45 1
  47   26   46 1
  48   26   47 1
  49   27   28 1
  50   48   49 1
  51   48   52 1
  52   48   53 1
  53   48   54 1
  54   49   50 2
  55   50   51 2

#	End of record

