#	Name: ASD00431465
#	Creating user name:	WinNT
#	Creation time:	15. 06. 2019 18:35

#	Modifying user name:	WinNT
#	Modification time:	15. 06. 2019 18:35

#	Program:	/corina/corina34_cracker 3.40 0067  02.08.2006

@<TRIPOS>MOLECULE
ASD00431465
  54   56    0    0    0
SMALL
NO_CHARGES


@<TRIPOS>ATOM
   1 C1            -0.7789    -0.2908     1.3585 C.2     
   2 N2             0.1067     0.0966     0.4193 N.am    
   3 O3            -0.5636    -1.2847     2.0234 O.2     
   4 O4            -1.8996     0.4268     1.5638 O.3     
   5 C5             1.3186    -0.5883     0.2754 C.ar    
   6 C6             1.3700    -1.9600     0.4801 C.ar    
   7 C7             2.5722    -2.6349     0.3368 C.ar    
   8 C8             3.7213    -1.9378    -0.0110 C.ar    
   9 C9             3.6680    -0.5723    -0.2143 C.ar    
  10 C10            2.4702     0.1030    -0.0779 C.ar    
  11 O11            2.6261    -3.9779     0.5369 O.3     
  12 S12            2.0331    -6.4882    -0.3284 S.3     
  13 C13            2.1421    -4.7856    -0.4364 C.2     
  14 N14            1.6944    -4.3777    -1.5841 N.2     
  15 C15            1.2588    -5.2957    -2.4180 C.2     
  16 C16            1.3428    -6.5582    -1.9478 C.2     
  17 O17            0.1877    -8.9965    -4.1646 O.3     
  18 N18            0.4165    -7.8427    -3.8688 N.2     
  19 C19            0.9299    -7.7813    -2.6642 C.2     
  20 N20            1.0107    -9.0512    -2.2008 N.2     
  21 C21            0.5381    -9.8063    -3.1602 C.2     
  22 C22            0.4125   -11.3078    -3.1368 C.3     
  23 C23           -1.0541   -11.6939    -2.9343 C.3     
  24 N24            0.8912   -11.8578    -4.4075 N.am    
  25 C25            1.3510   -13.1235    -4.4634 C.2     
  26 O26            1.3683   -13.8072    -3.4618 O.2     
  27 C27            1.8434   -13.6893    -5.7705 C.3     
  28 C28           -2.8082    -0.0493     2.5915 C.3     
  29 C29           -2.0847    -0.0763     3.9393 C.3     
  30 C30           -4.0149     0.8872     2.6791 C.3     
  31 C31           -3.2825    -1.4606     2.2389 C.3     
  32 H32           -0.0959     0.8501    -0.1569 H       
  33 H33            0.4751    -2.5005     0.7509 H       
  34 H34            4.6581    -2.4635    -0.1224 H       
  35 H35            4.5634    -0.0323    -0.4847 H       
  36 H36            2.4304     1.1697    -0.2421 H       
  37 H37            0.8666    -5.0598    -3.3963 H       
  38 H38            1.0103   -11.7097    -2.3187 H       
  39 H39           -1.1449   -12.7799    -2.9173 H       
  40 H40           -1.4103   -11.2847    -1.9889 H       
  41 H41           -1.6519   -11.2920    -3.7523 H       
  42 H42            0.8774   -11.3110    -5.2085 H       
  43 H43            2.9102   -13.4907    -5.8734 H       
  44 H44            1.6707   -14.7653    -5.7887 H       
  45 H45            1.3055   -13.2210    -6.5947 H       
  46 H46           -1.7468     0.9291     4.1905 H       
  47 H47           -2.7667    -0.4337     4.7107 H       
  48 H48           -1.2250    -0.7435     3.8769 H       
  49 H49           -4.5304     0.9064     1.7189 H       
  50 H50           -4.6970     0.5298     3.4505 H       
  51 H51           -3.6770     1.8926     2.9303 H       
  52 H52           -2.4228    -2.1278     2.1765 H       
  53 H53           -3.9645    -1.8180     3.0103 H       
  54 H54           -3.7979    -1.4414     1.2787 H       
@<TRIPOS>BOND
   1    1    2 am
   2    1    3 2
   3    1    4 1
   4    2    5 1
   5    2   32 1
   6    4   28 1
   7    5    6 ar
   8    5   10 ar
   9    6    7 ar
  10    6   33 1
  11    7    8 ar
  12    7   11 1
  13    8    9 ar
  14    8   34 1
  15    9   10 ar
  16    9   35 1
  17   10   36 1
  18   11   13 1
  19   12   13 1
  20   12   16 1
  21   13   14 2
  22   14   15 1
  23   15   16 2
  24   15   37 1
  25   16   19 1
  26   17   18 1
  27   17   21 1
  28   18   19 2
  29   19   20 1
  30   20   21 2
  31   21   22 1
  32   22   23 1
  33   22   24 1
  34   22   38 1
  35   23   39 1
  36   23   40 1
  37   23   41 1
  38   24   25 am
  39   24   42 1
  40   25   26 2
  41   25   27 1
  42   27   43 1
  43   27   44 1
  44   27   45 1
  45   28   29 1
  46   28   31 1
  47   28   30 1
  48   29   46 1
  49   29   47 1
  50   29   48 1
  51   30   49 1
  52   30   50 1
  53   30   51 1
  54   31   52 1
  55   31   53 1
  56   31   54 1

#	End of record

