#	Name: ASD01900493
#	Creating user name:	WinNT
#	Creation time:	15. 06. 2019 19:52

#	Modifying user name:	WinNT
#	Modification time:	15. 06. 2019 19:52

#	Program:	/corina/corina34_cracker 3.40 0067  02.08.2006

@<TRIPOS>MOLECULE
ASD01900493
  42   46    0    0    0
SMALL
NO_CHARGES


@<TRIPOS>ATOM
   1 C1             0.1673     1.5817     0.1856 C.ar    
   2 C2             0.3748     0.2121     0.0681 C.ar    
   3 C3             1.6449    -0.3091     0.2193 C.ar    
   4 C4             2.7145     0.5356     0.4887 C.ar    
   5 C5             2.5065     1.9037     0.6065 C.ar    
   6 C6             1.2367     2.4251     0.4549 C.ar    
   7 N7            -1.1196     2.1114     0.0266 N.pl3   
   8 N8             4.0013     0.0079     0.6420 N.pl3   
   9 N9            -0.2394     4.0474    -0.9528 N.ar    
  10 C10           -1.2854     3.3860    -0.4944 C.ar    
  11 C11           -2.5672     3.9639    -0.5307 C.ar    
  12 N12           -2.7433     5.1671    -1.0202 N.ar    
  13 C13           -1.6952     5.8556    -1.4906 C.ar    
  14 C14           -1.8575     7.1464    -2.0203 C.ar    
  15 C15           -0.7747     7.8242    -2.4918 C.ar    
  16 C16            0.4966     7.2561    -2.4573 C.ar    
  17 C17            0.6916     6.0072    -1.9512 C.ar    
  18 C18           -0.4020     5.2776    -1.4556 C.ar    
  19 C19            6.3478     0.3029     1.6027 C.ar    
  20 C20            6.9017     1.2578     2.4766 C.ar    
  21 C21            8.2484     1.1568     2.8239 C.ar    
  22 C22            8.9844     0.1168     2.2911 C.ar    
  23 C23            8.3726    -0.7894     1.4348 C.ar    
  24 N24            7.1026    -0.6801     1.1176 N.ar    
  25 N25            4.7233     1.7448     2.1515 N.2     
  26 N26            5.8987     2.1317     2.8034 N.pl3   
  27 C27            4.9422     0.6775     1.4302 C.2     
  28 Cl28          -0.9623    -0.8428    -0.2681 Cl      
  29 H29            1.8064    -1.3730     0.1284 H       
  30 H30            3.3380     2.5601     0.8166 H       
  31 H31            1.0755     3.4891     0.5461 H       
  32 H32           -1.8948     1.5867     0.2808 H       
  33 H33            4.2406    -0.8225     0.2014 H       
  34 H34           -3.4142     3.4111    -0.1520 H       
  35 H35           -2.8373     7.5994    -2.0538 H       
  36 H36           -0.9035     8.8163    -2.8986 H       
  37 H37            1.3395     7.8139    -2.8377 H       
  38 H38            1.6829     5.5790    -1.9310 H       
  39 H39            8.7039     1.8732     3.4916 H       
  40 H40           10.0301     0.0090     2.5387 H       
  41 H41            8.9531    -1.6008     1.0211 H       
  42 H42            5.9891     2.8964     3.3933 H       
@<TRIPOS>BOND
   1    1    2 ar
   2    1    6 ar
   3    1    7 1
   4    2    3 ar
   5    2   28 1
   6    3    4 ar
   7    3   29 1
   8    4    5 ar
   9    4    8 1
  10    5    6 ar
  11    5   30 1
  12    6   31 1
  13    7   10 1
  14    7   32 1
  15    8   27 1
  16    8   33 1
  17    9   10 ar
  18    9   18 ar
  19   10   11 ar
  20   11   12 ar
  21   11   34 1
  22   12   13 ar
  23   13   14 ar
  24   13   18 ar
  25   14   15 ar
  26   14   35 1
  27   15   16 ar
  28   15   36 1
  29   16   17 ar
  30   16   37 1
  31   17   18 ar
  32   17   38 1
  33   19   20 ar
  34   19   24 ar
  35   19   27 1
  36   20   21 ar
  37   20   26 1
  38   21   22 ar
  39   21   39 1
  40   22   23 ar
  41   22   40 1
  42   23   24 ar
  43   23   41 1
  44   25   26 1
  45   25   27 2
  46   26   42 1

#	End of record

