#	Name: ASD01151072
#	Creating user name:	WinNT
#	Creation time:	15. 06. 2019 19:05

#	Modifying user name:	WinNT
#	Modification time:	15. 06. 2019 19:05

#	Program:	/corina/corina34_cracker 3.40 0067  02.08.2006

@<TRIPOS>MOLECULE
ASD01151072
  44   45    0    0    0
SMALL
NO_CHARGES


@<TRIPOS>ATOM
   1 C1            -0.0167     1.3782     0.0096 C.ar    
   2 C2             0.0021    -0.0041     0.0020 C.ar    
   3 C3            -1.1781    -0.7188     0.0094 C.ar    
   4 C4            -2.4009    -0.0521     0.0246 C.ar    
   5 C5            -2.4052     1.3362     0.0321 C.ar    
   6 C6            -1.2280     2.0483     0.0306 C.ar    
   7 C7             1.2762     2.1525     0.0014 C.3     
   8 C8             2.0723     1.8025    -1.2574 C.3     
   9 C9             0.9727     3.6521     0.0124 C.3     
  10 C10            2.0962     1.7890     1.2410 C.3     
  11 C11           -1.1440    -2.2254     0.0005 C.3     
  12 C12            0.3096    -2.7026    -0.0163 C.3     
  13 C13           -1.8413    -2.7588     1.2535 C.3     
  14 C14           -1.8656    -2.7445    -1.2448 C.3     
  15 O15           -3.6663    -0.5357     0.0345 O.3     
  16 C16           -4.5975     0.4253     0.0488 C.2     
  17 C17           -3.8599     1.7493     0.0487 C.3     
  18 C18           -4.1805     2.5459     1.3149 C.3     
  19 O19           -4.1825     2.5060    -1.1199 O.3     
  20 F20           -3.8211     1.7969     2.4406 F       
  21 F21           -3.4624     3.7465     1.3049 F       
  22 F22           -5.5512     2.8228     1.3572 F       
  23 O23           -5.7955     0.2678     0.0594 O.2     
  24 H24            0.9465    -0.5278    -0.0101 H       
  25 H25           -1.2489     3.1281     0.0368 H       
  26 H26            1.4882     2.0614    -2.1404 H       
  27 H27            3.0074     2.3625    -1.2633 H       
  28 H28            2.2885     0.7342    -1.2652 H       
  29 H29            0.4055     3.9014     0.9092 H       
  30 H30            1.9078     4.2121     0.0065 H       
  31 H31            0.3885     3.9110    -0.8707 H       
  32 H32            2.3124     0.7207     1.2332 H       
  33 H33            3.0313     2.3491     1.2350 H       
  34 H34            1.5290     2.0384     2.1378 H       
  35 H35            0.8237    -2.3327     0.8708 H       
  36 H36            0.3343    -3.7923    -0.0228 H       
  37 H37            0.8064    -2.3226    -0.9090 H       
  38 H38           -2.8769    -2.4189     1.2655 H       
  39 H39           -1.8166    -3.8485     1.2471 H       
  40 H40           -1.3272    -2.3890     2.1407 H       
  41 H41           -1.3688    -2.3646    -2.1375 H       
  42 H42           -1.8409    -3.8343    -1.2512 H       
  43 H43           -2.9012    -2.4046    -1.2328 H       
  44 H44           -5.1192     2.7344    -1.1943 H       
@<TRIPOS>BOND
   1    1    2 ar
   2    1    7 1
   3    1    6 ar
   4    2    3 ar
   5    2   24 1
   6    3    4 ar
   7    3   11 1
   8    4    5 ar
   9    4   15 1
  10    5    6 ar
  11    5   17 1
  12    6   25 1
  13    7    8 1
  14    7    9 1
  15    7   10 1
  16    8   26 1
  17    8   27 1
  18    8   28 1
  19    9   29 1
  20    9   30 1
  21    9   31 1
  22   10   32 1
  23   10   33 1
  24   10   34 1
  25   11   12 1
  26   11   13 1
  27   11   14 1
  28   12   35 1
  29   12   36 1
  30   12   37 1
  31   13   38 1
  32   13   39 1
  33   13   40 1
  34   14   41 1
  35   14   42 1
  36   14   43 1
  37   15   16 1
  38   16   17 1
  39   16   23 2
  40   17   18 1
  41   17   19 1
  42   18   20 1
  43   18   21 1
  44   18   22 1
  45   19   44 1

#	End of record

