#	Name: ASD01810325
#	Creating user name:	WinNT
#	Creation time:	15. 06. 2019 19:24

#	Modifying user name:	WinNT
#	Modification time:	15. 06. 2019 19:24

#	Program:	/corina/corina34_cracker 3.40 0067  02.08.2006

@<TRIPOS>MOLECULE
ASD01810325
  69   74    0    0    0
SMALL
NO_CHARGES


@<TRIPOS>ATOM
   1 C1            -0.0143     1.3801    -0.0782 C.ar    
   2 C2             0.0045    -0.0036    -0.0857 C.ar    
   3 C3             1.1962    -0.6956    -0.0137 C.ar    
   4 C4             2.4013    -0.0059     0.0681 C.ar    
   5 C5             2.3889     1.4001     0.0760 C.ar    
   6 C6             1.1727     2.0935     0.0021 C.ar    
   7 N7             3.5959    -0.6904     0.1412 N.pl3   
   8 C8             4.7818    -0.0727     0.2222 C.2     
   9 C9             4.8946     1.3022     0.2385 C.2     
  10 C10            3.6703     2.1175     0.1629 C.2     
  11 O11            3.7168     3.3355     0.1735 O.2     
  12 C12            3.5670    -2.1551     0.1303 C.3     
  13 C13            3.6488    -2.6485    -1.2913 C.ar    
  14 C14            4.8830    -2.8983    -1.8640 C.ar    
  15 C15            4.9639    -3.3503    -3.1655 C.ar    
  16 C16            3.7992    -3.5554    -3.9027 C.ar    
  17 C17            2.5586    -3.3026    -3.3206 C.ar    
  18 C18            2.4894    -2.8554    -2.0167 C.ar    
  19 C19            3.8798    -4.0408    -5.3024 C.ar    
  20 C20            6.2141     1.9425     0.3288 C.2     
  21 O21            6.3113     3.2870     0.3439 O.3     
  22 O22            7.2181     1.2598     0.3899 O.2     
  23 C23            5.1151    -4.2950    -5.8907 C.ar    
  24 N24            5.1921    -4.7259    -7.1341 N.ar    
  25 C25            4.1094    -4.9332    -7.8681 C.ar    
  26 C26            2.8388    -4.7009    -7.3479 C.ar    
  27 C27            2.7143    -4.2546    -6.0474 C.ar    
  28 N28            4.2430    -5.3879    -9.1739 N.3     
  29 C29            5.6587    -5.5682    -9.5267 C.3     
  30 C30            5.7576    -6.1254   -10.9493 C.3     
  31 O31            5.0834    -5.2423   -11.8498 O.3     
  32 C32            3.7022    -5.0444   -11.5360 C.3     
  33 C33            3.5825    -4.4762   -10.1194 C.3     
  34 N34            1.1564     3.4832     0.0097 N.3     
  35 C35            0.4754     3.9955     1.2076 C.3     
  36 C36            0.5326     5.5255     1.2055 C.3     
  37 O37           -0.0534     6.0178    -0.0026 O.3     
  38 C38            0.5857     5.5392    -1.1891 C.3     
  39 C39            0.5290     4.0094    -1.2113 C.3     
  40 H40           -0.9555     1.9062    -0.1396 H       
  41 H41           -0.9256    -0.5489    -0.1482 H       
  42 H42            1.1931    -1.7755    -0.0207 H       
  43 H43            5.6794    -0.6709     0.2770 H       
  44 H44            4.4146    -2.5394     0.6977 H       
  45 H45            2.6387    -2.5036     0.5829 H       
  46 H46            5.7849    -2.7390    -1.2917 H       
  47 H47            5.9280    -3.5444    -3.6119 H       
  48 H48            1.6529    -3.4595    -3.8875 H       
  49 H49            1.5284    -2.6594    -1.5644 H       
  50 H50            7.2005     3.6622     0.4044 H       
  51 H51            6.0201    -4.1374    -5.3228 H       
  52 H52            1.9610    -4.8722    -7.9532 H       
  53 H53            1.7413    -4.0663    -5.6181 H       
  54 H54            6.1717    -4.6078    -9.4755 H       
  55 H55            6.1216    -6.2664    -8.8293 H       
  56 H56            6.8060    -6.2070   -11.2362 H       
  57 H57            5.2914    -7.1099   -10.9878 H       
  58 H58            3.2641    -4.3442   -12.2472 H       
  59 H59            3.1762    -5.9975   -11.5915 H       
  60 H60            2.5298    -4.3774    -9.8547 H       
  61 H61            4.0623    -3.4984   -10.0777 H       
  62 H62           -0.5649     3.6702     1.2020 H       
  63 H63            0.9719     3.6140     2.0998 H       
  64 H64           -0.0203     5.9115     2.0619 H       
  65 H65            1.5712     5.8509     1.2653 H       
  66 H66            0.0712     5.9352    -2.0647 H       
  67 H67            1.6258     5.8650    -1.1990 H       
  68 H68            1.0647     3.6380    -2.0849 H       
  69 H69           -0.5104     3.6843    -1.2555 H       
@<TRIPOS>BOND
   1    1    2 ar
   2    1    6 ar
   3    1   40 1
   4    2    3 ar
   5    2   41 1
   6    3    4 ar
   7    3   42 1
   8    4    5 ar
   9    4    7 1
  10    5    6 ar
  11    5   10 1
  12    6   34 1
  13    7    8 1
  14    7   12 1
  15    8    9 2
  16    8   43 1
  17    9   10 1
  18    9   20 1
  19   10   11 2
  20   12   13 1
  21   12   44 1
  22   12   45 1
  23   13   14 ar
  24   13   18 ar
  25   14   15 ar
  26   14   46 1
  27   15   16 ar
  28   15   47 1
  29   16   17 ar
  30   16   19 1
  31   17   18 ar
  32   17   48 1
  33   18   49 1
  34   19   23 ar
  35   19   27 ar
  36   20   21 1
  37   20   22 2
  38   21   50 1
  39   23   24 ar
  40   23   51 1
  41   24   25 ar
  42   25   26 ar
  43   25   28 1
  44   26   27 ar
  45   26   52 1
  46   27   53 1
  47   28   29 1
  48   28   33 1
  49   29   30 1
  50   29   54 1
  51   29   55 1
  52   30   31 1
  53   30   56 1
  54   30   57 1
  55   31   32 1
  56   32   33 1
  57   32   58 1
  58   32   59 1
  59   33   60 1
  60   33   61 1
  61   34   35 1
  62   34   39 1
  63   35   36 1
  64   35   62 1
  65   35   63 1
  66   36   37 1
  67   36   64 1
  68   36   65 1
  69   37   38 1
  70   38   39 1
  71   38   66 1
  72   38   67 1
  73   39   68 1
  74   39   69 1

#	End of record

