#	Name: ASD01410128
#	Creating user name:	WinNT
#	Creation time:	15. 06. 2019 19:16

#	Modifying user name:	WinNT
#	Modification time:	15. 06. 2019 19:16

#	Program:	/corina/corina34_cracker 3.40 0067  02.08.2006

@<TRIPOS>MOLECULE
ASD01410128
  69   73    0    0    0
SMALL
NO_CHARGES


@<TRIPOS>ATOM
   1 C1            -0.3078     2.4154    -2.6398 C.ar    
   2 C2             0.0079     1.0498    -2.7701 C.ar    
   3 C3            -0.8204     0.0852    -2.2082 C.ar    
   4 C4            -1.9437     0.4572    -1.5280 C.ar    
   5 C5            -2.2739     1.8117    -1.3888 C.ar    
   6 C6            -1.4540     2.7920    -1.9395 C.ar    
   7 N7             0.6646     3.1143    -3.2779 N.2     
   8 C8             1.5427     2.2825    -3.7835 C.2     
   9 N9             1.1798     0.9936    -3.4957 N.pl3   
  10 C10           -3.4927     2.2004    -0.6512 C.2     
  11 N11           -4.2857     1.2528    -0.1132 N.am    
  12 C12           -5.4949     1.6384     0.6186 C.3     
  13 C13            2.7433     2.6763    -4.5492 C.2     
  14 C14            3.4678     1.8695    -5.5403 C.2     
  15 C15            4.4834     2.6355    -5.9699 C.2     
  16 O16            4.4394     3.8176    -5.3365 O.3     
  17 C17            3.4050     3.8647    -4.4875 C.2     
  18 C18            1.9022    -0.2197    -3.8861 C.3     
  19 C19            2.1994    -1.0589    -2.6418 C.3     
  20 C20            2.9538    -2.3260    -3.0495 C.3     
  21 C21            2.0962    -3.1399    -4.0206 C.3     
  22 C22            1.7990    -2.3007    -5.2649 C.3     
  23 C23            1.0446    -1.0336    -4.8572 C.3     
  24 O24           -3.7808     3.3752    -0.5293 O.2     
  25 C25           -6.5023     0.4874     0.5814 C.3     
  26 C26           -5.1387     1.9481     2.0497 C.2     
  27 O27           -4.1363     1.4745     2.5413 O.2     
  28 N28           -5.9341     2.7516     2.7834 N.am    
  29 C29           -6.9237     0.2345    -0.8432 C.ar    
  30 C30           -6.2182    -0.6637    -1.6225 C.ar    
  31 C31           -6.6025    -0.8974    -2.9287 C.ar    
  32 C32           -7.6972    -0.2299    -3.4584 C.ar    
  33 C33           -8.4035     0.6708    -2.6744 C.ar    
  34 C34           -8.0186     0.8967    -1.3670 C.ar    
  35 O35           -8.0770    -0.4577    -4.7432 O.3     
  36 C36           -5.5337     3.1396     4.1381 C.3     
  37 C37           -7.1991     3.2368     2.2262 C.3     
  38 H38           -0.5746    -0.9615    -2.3105 H       
  39 H39           -2.5828    -0.2978    -1.0945 H       
  40 H40           -1.7074     3.8363    -1.8324 H       
  41 H41           -4.0559     0.3154    -0.2104 H       
  42 H42           -5.9346     2.5211     0.1543 H       
  43 H43            3.2316     0.8648    -5.8585 H       
  44 H44            5.2181     2.3464    -6.7069 H       
  45 H45            3.1438     4.7010    -3.8559 H       
  46 H46            2.8388     0.0553    -4.3711 H       
  47 H47            2.8103    -0.4790    -1.9499 H       
  48 H48            1.2628    -1.3338    -2.1567 H       
  49 H49            3.8904    -2.0510    -3.5345 H       
  50 H50            3.1655    -2.9238    -2.1630 H       
  51 H51            2.6336    -4.0426    -4.3110 H       
  52 H52            1.1596    -3.4148    -3.5355 H       
  53 H53            2.7356    -2.0257    -5.7500 H       
  54 H54            1.1880    -2.8805    -5.9568 H       
  55 H55            0.1080    -1.3085    -4.3722 H       
  56 H56            0.8329    -0.4357    -5.7437 H       
  57 H57           -6.0414    -0.4122     0.9891 H       
  58 H58           -7.3762     0.7501     1.1776 H       
  59 H59           -5.3658    -1.1828    -1.2097 H       
  60 H60           -6.0508    -1.5988    -3.5371 H       
  61 H61           -9.2561     1.1917    -3.0845 H       
  62 H62           -8.5680     1.5978    -0.7563 H       
  63 H63           -8.7164    -1.1762    -4.8429 H       
  64 H64           -4.9514     4.0600     4.0953 H       
  65 H65           -6.4229     3.3003     4.7478 H       
  66 H66           -4.9290     2.3473     4.5793 H       
  67 H67           -7.2893     2.9093     1.1904 H       
  68 H68           -8.0296     2.8362     2.8075 H       
  69 H69           -7.2197     4.3259     2.2660 H       
@<TRIPOS>BOND
   1    1    2 ar
   2    1    7 1
   3    1    6 ar
   4    2    3 ar
   5    2    9 1
   6    3    4 ar
   7    3   38 1
   8    4    5 ar
   9    4   39 1
  10    5    6 ar
  11    5   10 1
  12    6   40 1
  13    7    8 2
  14    8    9 1
  15    8   13 1
  16    9   18 1
  17   10   11 am
  18   10   24 2
  19   11   12 1
  20   11   41 1
  21   12   25 1
  22   12   26 1
  23   12   42 1
  24   13   14 1
  25   13   17 2
  26   14   15 2
  27   14   43 1
  28   15   16 1
  29   15   44 1
  30   16   17 1
  31   17   45 1
  32   18   19 1
  33   18   23 1
  34   18   46 1
  35   19   20 1
  36   19   47 1
  37   19   48 1
  38   20   21 1
  39   20   49 1
  40   20   50 1
  41   21   22 1
  42   21   51 1
  43   21   52 1
  44   22   23 1
  45   22   53 1
  46   22   54 1
  47   23   55 1
  48   23   56 1
  49   25   29 1
  50   25   57 1
  51   25   58 1
  52   26   27 2
  53   26   28 am
  54   28   36 1
  55   28   37 1
  56   29   30 ar
  57   29   34 ar
  58   30   31 ar
  59   30   59 1
  60   31   32 ar
  61   31   60 1
  62   32   33 ar
  63   32   35 1
  64   33   34 ar
  65   33   61 1
  66   34   62 1
  67   35   63 1
  68   36   64 1
  69   36   65 1
  70   36   66 1
  71   37   67 1
  72   37   68 1
  73   37   69 1

#	End of record

