#	Name: ASD02560342
#	Creating user name:	WinNT
#	Creation time:	15. 06. 2019 20:25

#	Modifying user name:	WinNT
#	Modification time:	15. 06. 2019 20:25

#	Program:	/corina/corina34_cracker 3.40 0067  02.08.2006

@<TRIPOS>MOLECULE
ASD02560342
  50   51    0    0    0
SMALL
NO_CHARGES


@<TRIPOS>ATOM
   1 C1             4.3386     2.0898    -4.4004 C.2     
   2 C2             3.8539     0.9804    -5.1161 C.2     
   3 C3             2.9386     0.1595    -4.5631 C.2     
   4 N4             2.4679     0.3927    -3.2995 N.pl3   
   5 C5             2.9242     1.4700    -2.5752 C.2     
   6 C6             3.8815     2.3352    -3.1437 C.2     
   7 C7             1.5601    -0.2628    -2.5131 C.2     
   8 C8             1.4820     0.4179    -1.3419 C.2     
   9 N9             2.3152     1.4630    -1.4000 N.2     
  10 C10            0.6033     0.0574    -0.1718 C.3     
  11 N11            0.8459    -1.4183    -2.8531 N.3     
  12 C12            1.2889    -1.9486    -4.1495 C.3     
  13 C13            0.8426    -1.0033    -5.2667 C.3     
  14 C14            2.8145    -2.0647    -4.1586 C.3     
  15 C15            1.4741    -0.2004     1.0595 C.3     
  16 C16           -0.3599     1.2106     0.1170 C.3     
  17 C17            0.6710    -3.3303    -4.3733 C.3     
  18 C18           -0.8479    -3.2418    -4.2125 C.3     
  19 C19           -1.3579    -4.4906    -3.4903 C.3     
  20 C20           -1.2026    -1.9988    -3.3940 C.3     
  21 C21           -1.5023    -3.1477    -5.5923 C.3     
  22 H22            5.0749     2.7422    -4.8460 H       
  23 H23            4.2168     0.7851    -6.1144 H       
  24 H24            2.5733    -0.6891    -5.1223 H       
  25 H25            4.2484     3.1842    -2.5861 H       
  26 H26            0.0336    -0.8412    -0.4086 H       
  27 H27            0.9246    -2.1179    -2.1303 H       
  28 H28            1.2135    -1.3709    -6.2234 H       
  29 H29           -0.2462    -0.9590    -5.2918 H       
  30 H30            1.2426    -0.0066    -5.0806 H       
  31 H31            3.1107    -2.9980    -3.6798 H       
  32 H32            3.1735    -2.0543    -5.1877 H       
  33 H33            3.2460    -1.2244    -3.6148 H       
  34 H34            2.0437     0.6982     1.2962 H       
  35 H35            0.8385    -0.4612     1.9058 H       
  36 H36            2.1602    -1.0219     0.8537 H       
  37 H37            0.2098     2.1092     0.3538 H       
  38 H38           -0.9802     1.3942    -0.7602 H       
  39 H39           -0.9954     0.9498     0.9633 H       
  40 H40            0.9103    -3.6768    -5.3787 H       
  41 H41            1.0736    -4.0312    -3.6420 H       
  42 H42           -0.5787    -4.8726    -2.8308 H       
  43 H43           -2.2392    -4.2354    -2.9017 H       
  44 H44           -1.6193    -5.2532    -4.2239 H       
  45 H45           -0.8393    -1.1092    -3.9084 H       
  46 H46           -2.2847    -1.9357    -3.2794 H       
  47 H47           -0.7364    -2.0658    -2.4110 H       
  48 H48           -1.3249    -4.0719    -6.1423 H       
  49 H49           -2.5751    -2.9943    -5.4759 H       
  50 H50           -1.0729    -2.3098    -6.1416 H       
@<TRIPOS>BOND
   1    1    2 1
   2    1    6 2
   3    1   22 1
   4    2    3 2
   5    2   23 1
   6    3    4 1
   7    3   24 1
   8    4    5 1
   9    4    7 1
  10    5    6 1
  11    5    9 2
  12    6   25 1
  13    7    8 2
  14    7   11 1
  15    8    9 1
  16    8   10 1
  17   10   15 1
  18   10   16 1
  19   10   26 1
  20   11   12 1
  21   11   27 1
  22   12   14 1
  23   12   17 1
  24   12   13 1
  25   13   28 1
  26   13   29 1
  27   13   30 1
  28   14   31 1
  29   14   32 1
  30   14   33 1
  31   15   34 1
  32   15   35 1
  33   15   36 1
  34   16   37 1
  35   16   38 1
  36   16   39 1
  37   17   18 1
  38   17   40 1
  39   17   41 1
  40   18   19 1
  41   18   20 1
  42   18   21 1
  43   19   42 1
  44   19   43 1
  45   19   44 1
  46   20   45 1
  47   20   46 1
  48   20   47 1
  49   21   48 1
  50   21   49 1
  51   21   50 1

#	End of record

