#	Name: ASD01913673
#	Creating user name:	WinNT
#	Creation time:	15. 06. 2019 20:02

#	Modifying user name:	WinNT
#	Modification time:	15. 06. 2019 20:02

#	Program:	/corina/corina34_cracker 3.40 0067  02.08.2006

@<TRIPOS>MOLECULE
ASD01913673
  45   47    0    0    0
SMALL
NO_CHARGES


@<TRIPOS>ATOM
   1 C1            -0.0167     1.3775     0.0096 C.ar    
   2 C2             0.0021    -0.0041     0.0020 C.ar    
   3 C3             1.2084    -0.6796    -0.0127 C.ar    
   4 C4             2.3969     0.0262    -0.0198 C.ar    
   5 C5             2.3806     1.4083    -0.0126 C.ar    
   6 C6             1.1734     2.0857     0.0021 C.ar    
   7 C7             3.6765     2.1774    -0.0199 C.3     
   8 O8             4.7737     1.2620    -0.0339 O.3     
   9 C9             6.0195     1.7949    -0.0419 C.ar    
  10 N10            6.1663     3.1108    -0.0366 N.ar    
  11 C11            7.3553     3.6763    -0.0439 C.ar    
  12 C12            8.5128     2.8973    -0.0582 C.ar    
  13 C13            8.3921     1.4997    -0.0643 C.ar    
  14 C14            7.1263     0.9513    -0.0500 C.ar    
  15 C15            9.8444     3.5343    -0.0674 C.2     
  16 N16            9.9487     4.8780    -0.0620 N.am    
  17 O17           10.8471     2.8468    -0.0799 O.2     
  18 C18           11.2702     5.5102    -0.0711 C.3     
  19 F19            1.1563     3.4365     0.0086 F       
  20 C20           11.1606     6.9125    -0.6731 C.3     
  21 C21           12.5408     7.5727    -0.6826 C.3     
  22 C22           13.0683     7.6726     0.7501 C.3     
  23 C23           13.1779     6.2702     1.3521 C.3     
  24 C24           11.7977     5.6100     1.3616 C.3     
  25 H25           -0.9591     1.9050     0.0170 H       
  26 H26           -0.9259    -0.5565     0.0079 H       
  27 H27            1.2221    -1.7595    -0.0182 H       
  28 H28            3.3386    -0.5025    -0.0305 H       
  29 H29            3.7191     2.8092    -0.9071 H       
  30 H30            3.7344     2.8002     0.8728 H       
  31 H31            7.4354     4.7533    -0.0392 H       
  32 H32            9.2684     0.8686    -0.0753 H       
  33 H33            6.9956    -0.1208    -0.0537 H       
  34 H34            9.1487     5.4265    -0.0520 H       
  35 H35           11.9558     4.9104    -0.6697 H       
  36 H36           10.7848     6.8414    -1.6938 H       
  37 H37           10.4750     7.5123    -0.0745 H       
  38 H38           13.2263     6.9729    -1.2812 H       
  39 H39           12.4627     8.5718    -1.1115 H       
  40 H40           14.0516     8.1429     0.7433 H       
  41 H41           12.3827     8.2724     1.3487 H       
  42 H42           13.8635     5.6704     0.7535 H       
  43 H43           13.5537     6.3413     2.3728 H       
  44 H44           11.1121     6.2098     1.9602 H       
  45 H45           11.8758     4.6110     1.7905 H       
@<TRIPOS>BOND
   1    1    2 ar
   2    1    6 ar
   3    1   25 1
   4    2    3 ar
   5    2   26 1
   6    3    4 ar
   7    3   27 1
   8    4    5 ar
   9    4   28 1
  10    5    6 ar
  11    5    7 1
  12    6   19 1
  13    7    8 1
  14    7   29 1
  15    7   30 1
  16    8    9 1
  17    9   10 ar
  18    9   14 ar
  19   10   11 ar
  20   11   12 ar
  21   11   31 1
  22   12   13 ar
  23   12   15 1
  24   13   14 ar
  25   13   32 1
  26   14   33 1
  27   15   16 am
  28   15   17 2
  29   16   18 1
  30   16   34 1
  31   18   20 1
  32   18   24 1
  33   18   35 1
  34   20   21 1
  35   20   36 1
  36   20   37 1
  37   21   22 1
  38   21   38 1
  39   21   39 1
  40   22   23 1
  41   22   40 1
  42   22   41 1
  43   23   24 1
  44   23   42 1
  45   23   43 1
  46   24   44 1
  47   24   45 1

#	End of record

