#	Name: ASD01040035
#	Creating user name:	WinNT
#	Creation time:	15. 06. 2019 18:58

#	Modifying user name:	WinNT
#	Modification time:	15. 06. 2019 18:58

#	Program:	/corina/corina34_cracker 3.40 0067  02.08.2006

@<TRIPOS>MOLECULE
ASD01040035
  48   51    0    0    0
SMALL
NO_CHARGES


@<TRIPOS>ATOM
   1 C1            -0.0186     1.5172     0.0104 C.3     
   2 C2             0.0021    -0.0041     0.0020 C.3     
   3 C3             0.4730    -0.6108     1.3155 C.3     
   4 C4            -0.2628    -0.0393     2.5253 C.3     
   5 C5            -1.7482    -0.3918     2.5020 C.3     
   6 C6            -2.4878     0.2463     1.3356 C.3     
   7 C7            -2.2362     1.7409     1.2025 C.3     
   8 C8            -0.7503     2.0924     1.2207 C.3     
   9 C9            -0.1424     1.4749     2.4696 C.2     
  10 C10            0.4432     2.1957     3.4286 C.2     
  11 C11            0.5225     3.6713     3.3033 C.ar    
  12 C12            1.0141     1.5211     4.6190 C.ar    
  13 C13            0.1787     0.8418     5.5049 C.ar    
  14 C14            0.7135     0.2106     6.6080 C.ar    
  15 C15            2.0823     0.2510     6.8372 C.ar    
  16 C16            2.9169     0.9266     5.9569 C.ar    
  17 C17            2.3883     1.5598     4.8519 C.ar    
  18 C18            1.7611     4.2958     3.1718 C.ar    
  19 C19            1.8284     5.6741     3.0547 C.ar    
  20 C20            0.6638     6.4299     3.0689 C.ar    
  21 C21           -0.5651     5.8111     3.1998 C.ar    
  22 C22           -0.6421     4.4372     3.3109 C.ar    
  23 O23            2.6061    -0.3716     7.9253 O.3     
  24 O24            3.0346     6.2869     2.9262 O.3     
  25 H25            1.0133     1.8896     0.0025 H       
  26 H26           -0.5042     1.8737    -0.9066 H       
  27 H27           -0.9363    -0.4217    -0.3249 H       
  28 H28            0.7396    -0.3096    -0.7738 H       
  29 H29            0.3231    -1.6969     1.2827 H       
  30 H30            1.5488    -0.4294     1.4290 H       
  31 H31            0.1974    -0.4106     3.4553 H       
  32 H32           -1.8584    -1.4819     2.4423 H       
  33 H33           -2.2110    -0.0652     3.4415 H       
  34 H34           -2.3168    -0.2783     0.4096 H       
  35 H35           -3.5750     0.1224     1.5403 H       
  36 H36           -2.6789     2.0968     0.2640 H       
  37 H37           -2.7405     2.2640     2.0243 H       
  38 H38           -0.6229     3.1866     1.2524 H       
  39 H39           -0.8862     0.8103     5.3274 H       
  40 H40            0.0669    -0.3154     7.2947 H       
  41 H41            3.9812     0.9562     6.1379 H       
  42 H42            3.0386     2.0811     4.1651 H       
  43 H43            2.6662     3.7066     3.1616 H       
  44 H44            0.7184     7.5047     2.9778 H       
  45 H45           -1.4680     6.4037     3.2106 H       
  46 H46           -1.6042     3.9562     3.4085 H       
  47 H47            2.8586    -1.2918     7.7684 H       
  48 H48            3.3266     6.3924     2.0105 H       
@<TRIPOS>BOND
   1    1    2 1
   2    1   25 1
   3    1   26 1
   4    1    8 1
   5    2   27 1
   6    2   28 1
   7    2    3 1
   8    3   29 1
   9    3   30 1
  10    3    4 1
  11    4    5 1
  12    4   31 1
  13    4    9 1
  14    5    6 1
  15    5   32 1
  16    5   33 1
  17    6    7 1
  18    6   34 1
  19    6   35 1
  20    7   36 1
  21    7   37 1
  22    7    8 1
  23    8   38 1
  24    8    9 1
  25    9   10 2
  26   10   11 1
  27   10   12 1
  28   11   22 ar
  29   11   18 ar
  30   12   17 ar
  31   12   13 ar
  32   13   39 1
  33   13   14 ar
  34   14   15 ar
  35   14   40 1
  36   15   16 ar
  37   15   23 1
  38   16   17 ar
  39   16   41 1
  40   17   42 1
  41   18   19 ar
  42   18   43 1
  43   19   20 ar
  44   19   24 1
  45   20   21 ar
  46   20   44 1
  47   21   45 1
  48   21   22 ar
  49   22   46 1
  50   23   47 1
  51   24   48 1

#	End of record

