#	Name: ASD07130010
#	Creating user name:	WinNT
#	Creation time:	15. 06. 2019 21:09

#	Modifying user name:	WinNT
#	Modification time:	15. 06. 2019 21:09

#	Program:	/corina/corina34_cracker 3.40 0067  02.08.2006

@<TRIPOS>MOLECULE
ASD07130010
  26   25    0    0    0
SMALL
NO_CHARGES


@<TRIPOS>ATOM
   1 C1            -0.0187     1.5258     0.0104 C.3     
   2 C2             1.4167     2.0553    -0.0004 C.3     
   3 S3             1.3922     3.8652     0.0095 S.3     
   4 C4             3.1230     4.1947    -0.0052 C.2     
   5 N5             3.5759     5.4937    -0.0026 N.pl3   
   6 N6             3.9748     3.2071    -0.0187 N.2     
   7 C7             0.0021    -0.0041     0.0020 C.3     
   8 C8            -1.4333    -0.5336     0.0129 C.3     
   9 S9            -1.4088    -2.3435     0.0029 S.3     
  10 C10           -3.1396    -2.6730     0.0177 C.2     
  11 N11           -3.5925    -3.9720     0.0150 N.pl3   
  12 N12           -3.9914    -1.6854     0.0311 N.2     
  13 H13           -0.5289     1.8773     0.9072 H       
  14 H14           -0.5459     1.8868    -0.8726 H       
  15 H15            1.9439     1.6943     0.8826 H       
  16 H16            1.9269     1.7038    -0.8972 H       
  17 H17            2.9424     6.2282     0.0074 H       
  18 H18            4.5288     5.6751    -0.0107 H       
  19 H19            4.9277     3.3885    -0.0268 H       
  20 H20            0.5123    -0.3556    -0.8948 H       
  21 H21            0.5293    -0.3651     0.8851 H       
  22 H22           -1.9435    -0.1821     0.9097 H       
  23 H23           -1.9605    -0.1726    -0.8702 H       
  24 H24           -2.9590    -4.7065     0.0050 H       
  25 H25           -4.5454    -4.1534     0.0232 H       
  26 H26           -4.9443    -1.8668     0.0392 H       
@<TRIPOS>BOND
   1    1    7 1
   2    1    2 1
   3    1   13 1
   4    1   14 1
   5    2    3 1
   6    2   15 1
   7    2   16 1
   8    3    4 1
   9    4    5 1
  10    4    6 2
  11    5   17 1
  12    5   18 1
  13    6   19 1
  14    7    8 1
  15    7   20 1
  16    7   21 1
  17    8    9 1
  18    8   22 1
  19    8   23 1
  20    9   10 1
  21   10   11 1
  22   10   12 2
  23   11   24 1
  24   11   25 1
  25   12   26 1

#	End of record

