#	Name: ASD00450062
#	Creating user name:	WinNT
#	Creation time:	15. 06. 2019 18:36

#	Modifying user name:	WinNT
#	Modification time:	15. 06. 2019 18:36

#	Program:	/corina/corina34_cracker 3.40 0067  02.08.2006

@<TRIPOS>MOLECULE
ASD00450062
  46   48    0    0    0
SMALL
NO_CHARGES


@<TRIPOS>ATOM
   1 C1            -0.6603     1.6353    -0.8309 C.ar    
   2 C2            -0.8069     0.2649    -0.5650 C.ar    
   3 C3             0.2884    -0.4781    -0.1587 C.ar    
   4 C4             1.5270     0.1260    -0.0135 C.ar    
   5 C5             1.6839     1.4771    -0.2724 C.ar    
   6 C6             0.6000     2.2394    -0.6813 C.ar    
   7 C7            -1.8157     2.4320    -1.2687 C.2     
   8 O8            -2.5231     2.9811    -0.4453 O.2     
   9 N9            -2.0912     2.5540    -2.5823 N.am    
  10 N10            0.7591     3.5948    -0.9417 N.pl3   
  11 C11            1.8162     4.3001    -0.3565 C.ar    
  12 C12            2.2736     5.4785    -0.9368 C.ar    
  13 C13            2.4072     3.8284     0.8079 C.ar    
  14 C14            3.4505     4.5270     1.3838 C.ar    
  15 C15            3.9075     5.6961     0.8023 C.ar    
  16 C16            3.3183     6.1729    -0.3550 C.ar    
  17 F17            2.5890    -0.6085     0.3840 F       
  18 F18            1.6984     5.9437    -2.0673 F       
  19 I19            5.4896     6.7514     1.6810 I       
  20 O20           -2.0180    -0.3295    -0.7052 O.3     
  21 C21           -2.0927    -1.6757    -0.5286 C.ar    
  22 C22           -2.1635    -2.2081     0.7565 C.ar    
  23 C23           -2.2401    -3.5838     0.9305 C.ar    
  24 C24           -2.1043    -2.5205    -1.6269 C.ar    
  25 C25           -2.1812    -3.8893    -1.4469 C.ar    
  26 C26           -2.2458    -4.4205    -0.1721 C.ar    
  27 N27           -2.1571    -1.3583     1.8704 N.am    
  28 S28           -2.4732    -1.9666     3.3778 S.o2    
  29 O29           -2.3483    -0.8790     4.2837 O.2     
  30 O30           -3.6557    -2.7452     3.2564 O.2     
  31 N31           -1.2529    -3.0240     3.7455 N.am    
  32 F32           -2.3086    -4.1050     2.1751 F       
  33 H33            0.1769    -1.5326     0.0462 H       
  34 H34            2.6533     1.9387    -0.1556 H       
  35 H35           -1.5272     2.1162    -3.2389 H       
  36 H36           -2.8535     3.0797    -2.8712 H       
  37 H37            0.1373     4.0520    -1.5291 H       
  38 H38            2.0513     2.9160     1.2633 H       
  39 H39            3.9099     4.1602     2.2898 H       
  40 H40            3.6746     7.0880    -0.8044 H       
  41 H41           -2.0535    -2.1095    -2.6244 H       
  42 H42           -2.1907    -4.5455    -2.3046 H       
  43 H43           -2.3054    -5.4902    -0.0364 H       
  44 H44           -1.9674    -0.4136     1.7586 H       
  45 H45           -0.9873    -3.1559     4.6691 H       
  46 H46           -0.8037    -3.5114     3.0373 H       
@<TRIPOS>BOND
   1    1    2 ar
   2    1    6 ar
   3    1    7 1
   4    2    3 ar
   5    2   20 1
   6    3    4 ar
   7    3   33 1
   8    4    5 ar
   9    4   17 1
  10    5    6 ar
  11    5   34 1
  12    6   10 1
  13    7    8 2
  14    7    9 am
  15    9   35 1
  16    9   36 1
  17   10   11 1
  18   10   37 1
  19   11   13 ar
  20   11   12 ar
  21   12   16 ar
  22   12   18 1
  23   13   14 ar
  24   13   38 1
  25   14   15 ar
  26   14   39 1
  27   15   16 ar
  28   15   19 1
  29   16   40 1
  30   20   21 1
  31   21   22 ar
  32   21   24 ar
  33   22   23 ar
  34   22   27 1
  35   23   26 ar
  36   23   32 1
  37   24   25 ar
  38   24   41 1
  39   25   26 ar
  40   25   42 1
  41   26   43 1
  42   27   28 am
  43   27   44 1
  44   28   29 2
  45   28   30 2
  46   28   31 am
  47   31   45 1
  48   31   46 1

#	End of record

