#	Name: ASD03900041
#	Creating user name:	WinNT
#	Creation time:	15. 06. 2019 20:47

#	Modifying user name:	WinNT
#	Modification time:	15. 06. 2019 20:47

#	Program:	/corina/corina34_cracker 3.40 0067  02.08.2006

@<TRIPOS>MOLECULE
ASD03900041
  56   58    0    0    0
SMALL
NO_CHARGES


@<TRIPOS>ATOM
   1 C1            -0.0389     0.7180    -1.9519 C.ar    
   2 C2             0.0704    -0.4738    -1.2620 C.ar    
   3 C3             1.3110    -0.9242    -0.8499 C.ar    
   4 C4             2.4451    -0.1832    -1.1268 C.ar    
   5 C5             2.3411     1.0092    -1.8165 C.ar    
   6 C6             1.0975     1.4631    -2.2313 C.ar    
   7 C7             1.4273    -2.2247    -0.0974 C.3     
   8 C8             2.8808    -2.5269     0.1616 C.ar    
   9 C9             0.6958    -2.1126     1.2153 C.ar    
  10 C10            0.5326    -3.2308     2.0121 C.ar    
  11 C11            0.1940    -0.8906     1.6237 C.ar    
  12 C12           -0.4765    -0.7852     2.8268 C.ar    
  13 C13           -0.6462    -1.9067     3.6256 C.ar    
  14 C14           -0.1372    -3.1306     3.2161 C.ar    
  15 C15            3.5958    -1.7585     1.0617 C.ar    
  16 C16            3.4957    -3.5758    -0.4968 C.ar    
  17 C17            4.8278    -3.8551    -0.2608 C.ar    
  18 C18            5.5488    -3.0823     0.6379 C.ar    
  19 C19            4.9281    -2.0337     1.3013 C.ar    
  20 O20            0.9927     2.6358    -2.9104 O.3     
  21 O21            6.8596    -3.3551     0.8719 O.3     
  22 C22            0.8125    -3.3520    -0.9293 C.3     
  23 C23            1.4707     2.6586    -4.1649 C.2     
  24 O24           -1.3057    -1.8055     4.8099 O.3     
  25 C25            7.7241    -3.0897    -0.1205 C.2     
  26 O26            1.8761     1.6413    -4.6755 O.2     
  27 O27            7.3400    -2.5390    -1.1251 O.2     
  28 C28           -2.6447    -1.7223     4.7568 C.2     
  29 O29           -3.2035    -1.6492     3.6880 O.2     
  30 C30           -3.4505    -1.7200     6.0302 C.3     
  31 Cl31          -5.2047    -1.5989     5.6312 Cl      
  32 C32            1.5015     3.9529    -4.9361 C.3     
  33 Cl33           2.1925     3.6595    -6.5754 Cl      
  34 C34            9.1733    -3.4786     0.0184 C.3     
  35 Cl35          10.0713    -2.9924    -1.4675 Cl      
  36 H36           -1.0076     1.0671    -2.2774 H       
  37 H37           -0.8140    -1.0541    -1.0439 H       
  38 H38            3.4129    -0.5368    -0.8033 H       
  39 H39            3.2272     1.5876    -2.0325 H       
  40 H40            0.9287    -4.1834     1.6927 H       
  41 H41            0.3268    -0.0178     1.0016 H       
  42 H42           -0.8680     0.1696     3.1455 H       
  43 H43           -0.2684    -4.0051     3.8361 H       
  44 H44            3.1122    -0.9421     1.5776 H       
  45 H45            2.9340    -4.1774    -1.1961 H       
  46 H46            5.3076    -4.6747    -0.7751 H       
  47 H47            5.4873    -1.4304     2.0011 H       
  48 H48            1.3416    -3.4331    -1.8788 H       
  49 H49            0.8966    -4.2927    -0.3850 H       
  50 H50           -0.2388    -3.1335    -1.1167 H       
  51 H51           -3.2656    -2.6435     6.5789 H       
  52 H52           -3.1579    -0.8680     6.6439 H       
  53 H53            0.4880     4.3421    -5.0334 H       
  54 H54            2.1195     4.6773    -4.4057 H       
  55 H55            9.6034    -2.9747     0.8840 H       
  56 H56            9.2487    -4.5578     0.1517 H       
@<TRIPOS>BOND
   1    1    2 ar
   2    1    6 ar
   3    1   36 1
   4    2    3 ar
   5    2   37 1
   6    3    4 ar
   7    3    7 1
   8    4    5 ar
   9    4   38 1
  10    5    6 ar
  11    5   39 1
  12    6   20 1
  13    7    8 1
  14    7    9 1
  15    7   22 1
  16    8   15 ar
  17    8   16 ar
  18    9   10 ar
  19    9   11 ar
  20   10   14 ar
  21   10   40 1
  22   11   12 ar
  23   11   41 1
  24   12   13 ar
  25   12   42 1
  26   13   14 ar
  27   13   24 1
  28   14   43 1
  29   15   19 ar
  30   15   44 1
  31   16   17 ar
  32   16   45 1
  33   17   18 ar
  34   17   46 1
  35   18   19 ar
  36   18   21 1
  37   19   47 1
  38   20   23 1
  39   21   25 1
  40   22   48 1
  41   22   49 1
  42   22   50 1
  43   23   26 2
  44   23   32 1
  45   24   28 1
  46   25   27 2
  47   25   34 1
  48   28   29 2
  49   28   30 1
  50   30   31 1
  51   30   51 1
  52   30   52 1
  53   32   33 1
  54   32   53 1
  55   32   54 1
  56   34   35 1
  57   34   55 1
  58   34   56 1

#	End of record

