#	Name: ASD03330681
#	Creating user name:	WinNT
#	Creation time:	15. 06. 2019 20:37

#	Modifying user name:	WinNT
#	Modification time:	15. 06. 2019 20:37

#	Program:	/corina/corina34_cracker 3.40 0067  02.08.2006

@<TRIPOS>MOLECULE
ASD03330681
  69   72    0    0    0
SMALL
NO_CHARGES


@<TRIPOS>ATOM
   1 C1            -0.0159     1.3547     0.0394 C.2     
   2 N2             0.0042    -0.0047     0.0505 N.pl3   
   3 C3             1.2781     1.7736    -0.0303 C.2     
   4 N4             2.0647     0.6761    -0.0781 N.2     
   5 C5             1.3083    -0.3957    -0.0360 C.2     
   6 C6             1.7895    -1.7937    -0.0751 C.ar    
   7 C7             1.7379     3.1734    -0.0508 C.2     
   8 O8             0.9287     4.0801    -0.0032 O.2     
   9 C9             3.5125     4.8406    -0.1427 C.3     
  10 N10            3.0553     3.4490    -0.1223 N.am    
  11 C11            3.6313     5.3595     1.2917 C.3     
  12 C12            4.6383     4.5031     2.0620 C.3     
  13 C13            4.1088     6.8129     1.2704 C.3     
  14 C14            2.2656     5.2813     1.9771 C.3     
  15 C15            4.8576     4.9177    -0.8178 C.2     
  16 O16            5.4746     6.1022    -0.9515 O.3     
  17 O17            5.3807     3.9131    -1.2387 O.2     
  18 C18            6.7677     6.1011    -1.6120 C.3     
  19 C19           -1.1733    -0.8711     0.1524 C.3     
  20 C20           -2.2422    -0.3839    -0.8308 C.3     
  21 C21           -3.1086     0.6804    -0.1651 C.3     
  22 N22           -2.3244     1.4887     0.7706 N.3     
  23 C23           -1.2509     2.2169     0.0782 C.3     
  24 C24            1.3053    -2.7275     0.8417 C.ar    
  25 C25            2.7266    -2.1868    -1.0339 C.ar    
  26 C26            3.1711    -3.4956    -1.0642 C.ar    
  27 C27            2.6899    -4.4130    -0.1485 C.ar    
  28 C28            1.7576    -4.0299     0.7999 C.ar    
  29 C29           -3.1872     2.4110     1.5208 C.3     
  30 C30            3.1785    -5.8380    -0.1870 C.3     
  31 F31            3.1968    -1.2907    -1.9290 F       
  32 C32           -2.3836     3.0547     2.6525 C.3     
  33 C33           -3.0746     4.1393     3.4814 C.3     
  34 C34           -2.8219     2.7576     4.0879 C.3     
  35 H35            2.7951     5.4508    -0.6915 H       
  36 H36            3.7007     2.7258    -0.1603 H       
  37 H37            5.6112     4.5588     1.5738 H       
  38 H38            4.7230     4.8727     3.0840 H       
  39 H39            4.2981     3.4676     2.0772 H       
  40 H40            3.3914     7.4230     0.7216 H       
  41 H41            4.1934     7.1826     2.2923 H       
  42 H42            5.0817     6.8686     0.7821 H       
  43 H43            1.9255     4.2459     1.9923 H       
  44 H44            2.3503     5.6509     2.9990 H       
  45 H45            1.5482     5.8914     1.4283 H       
  46 H46            7.1551     7.1191    -1.6539 H       
  47 H47            7.4604     5.4715    -1.0535 H       
  48 H48            6.6583     5.7120    -2.6242 H       
  49 H49           -0.8937    -1.8960    -0.0917 H       
  50 H50           -1.5675    -0.8321     1.1679 H       
  51 H51           -1.7587     0.0406    -1.7107 H       
  52 H52           -2.8677    -1.2242    -1.1320 H       
  53 H53           -3.5301     1.3297    -0.9324 H       
  54 H54           -3.9202     0.1938     0.3758 H       
  55 H55           -1.0334     3.1412     0.6134 H       
  56 H56           -1.5654     2.4490    -0.9393 H       
  57 H57            0.5780    -2.4309     1.5829 H       
  58 H58            3.8952    -3.8020    -1.8046 H       
  59 H59            1.3861    -4.7520     1.5119 H       
  60 H60           -3.5581     3.1872     0.8514 H       
  61 H61           -4.0292     1.8605     1.9407 H       
  62 H62            4.0583    -5.9378     0.4485 H       
  63 H63            2.3925    -6.5015     0.1738 H       
  64 H64            3.4379    -6.1056    -1.2113 H       
  65 H65           -1.3158     3.1682     2.4652 H       
  66 H66           -2.4613     4.9661     3.8397 H       
  67 H67           -4.1017     4.3943     3.2205 H       
  68 H68           -3.6828     2.1035     4.2261 H       
  69 H69           -2.0424     2.6754     4.8453 H       
@<TRIPOS>BOND
   1    1    2 1
   2    1    3 2
   3    1   23 1
   4    2   19 1
   5    2    5 1
   6    3    4 1
   7    3    7 1
   8    4    5 2
   9    5    6 1
  10    6   24 ar
  11    6   25 ar
  12    7    8 2
  13    7   10 am
  14    9   10 1
  15    9   11 1
  16    9   15 1
  17    9   35 1
  18   10   36 1
  19   11   12 1
  20   11   13 1
  21   11   14 1
  22   12   37 1
  23   12   38 1
  24   12   39 1
  25   13   40 1
  26   13   41 1
  27   13   42 1
  28   14   43 1
  29   14   44 1
  30   14   45 1
  31   15   16 1
  32   15   17 2
  33   16   18 1
  34   18   46 1
  35   18   47 1
  36   18   48 1
  37   19   20 1
  38   19   49 1
  39   19   50 1
  40   20   21 1
  41   20   51 1
  42   20   52 1
  43   21   22 1
  44   21   53 1
  45   21   54 1
  46   22   23 1
  47   22   29 1
  48   23   55 1
  49   23   56 1
  50   24   28 ar
  51   24   57 1
  52   25   26 ar
  53   25   31 1
  54   26   27 ar
  55   26   58 1
  56   27   28 ar
  57   27   30 1
  58   28   59 1
  59   29   32 1
  60   29   60 1
  61   29   61 1
  62   30   62 1
  63   30   63 1
  64   30   64 1
  65   32   33 1
  66   32   34 1
  67   32   65 1
  68   33   34 1
  69   33   66 1
  70   33   67 1
  71   34   68 1
  72   34   69 1

#	End of record

