#	Name: ASD01914250
#	Creating user name:	WinNT
#	Creation time:	15. 06. 2019 20:03

#	Modifying user name:	WinNT
#	Modification time:	15. 06. 2019 20:03

#	Program:	/corina/corina34_cracker 3.40 0067  02.08.2006

@<TRIPOS>MOLECULE
ASD01914250
  23   23    0    0    0
SMALL
NO_CHARGES


@<TRIPOS>ATOM
   1 C1            -0.0168     1.3893     0.0097 C.ar    
   2 C2             0.0021    -0.0041     0.0020 C.ar    
   3 C3             1.2225    -0.6606    -0.0131 C.ar    
   4 C4             2.3820     0.0992    -0.0201 C.ar    
   5 C5             2.2884     1.4818    -0.0118 C.ar    
   6 N6             1.1171     2.0794     0.0026 N.ar    
   7 C7            -1.3125     2.1059     0.0197 C.2     
   8 O8            -2.3528     1.4796     0.0212 O.2     
   9 O9            -1.3372     3.4524     0.0271 O.3     
  10 C10            3.5462     2.3118    -0.0193 C.3     
  11 C11            3.7312    -0.5720    -0.0361 C.3     
  12 C12           -2.6428     4.0878     0.0367 C.3     
  13 H13           -0.9212    -0.5644     0.0082 H       
  14 H14            1.2692    -1.7396    -0.0190 H       
  15 H15            3.8396     2.5175    -1.0487 H       
  16 H16            3.3642     3.2520     0.5013 H       
  17 H17            4.3445     1.7664     0.4840 H       
  18 H18            4.0469    -0.7286    -1.0675 H       
  19 H19            4.4577     0.0605     0.4742 H       
  20 H20            3.6649    -1.5332     0.4735 H       
  21 H21           -3.1985     3.7895    -0.8523 H       
  22 H22           -3.1901     3.7799     0.9276 H       
  23 H23           -2.5198     5.1708     0.0420 H       
@<TRIPOS>BOND
   1    1    2 ar
   2    1    6 ar
   3    1    7 1
   4    2    3 ar
   5    2   13 1
   6    3    4 ar
   7    3   14 1
   8    4    5 ar
   9    4   11 1
  10    5    6 ar
  11    5   10 1
  12    7    8 2
  13    7    9 1
  14    9   12 1
  15   10   15 1
  16   10   16 1
  17   10   17 1
  18   11   18 1
  19   11   19 1
  20   11   20 1
  21   12   21 1
  22   12   22 1
  23   12   23 1

#	End of record

