#	Name: ASD05300009
#	Creating user name:	WinNT
#	Creation time:	15. 06. 2019 20:58

#	Modifying user name:	WinNT
#	Modification time:	15. 06. 2019 20:58

#	Program:	/corina/corina34_cracker 3.40 0067  02.08.2006

@<TRIPOS>MOLECULE
ASD05300009
  43   46    0    0    0
SMALL
NO_CHARGES


@<TRIPOS>ATOM
   1 O1            -0.0453     0.0027     0.1337 O.2     
   2 C2            -0.0144     1.2086     0.0087 C.2     
   3 N3             1.1542     1.8299    -0.2460 N.am    
   4 C4             2.3163     1.1437    -0.1745 C.2     
   5 C5             2.5311     0.0675    -1.0377 C.2     
   6 C6             3.7396    -0.6258    -1.0060 C.2     
   7 C7             4.7404    -0.2361    -0.1164 C.2     
   8 C8             4.5230     0.8320     0.7510 C.2     
   9 C9             3.3023     1.5129     0.7379 C.2     
  10 C10            3.0613     2.5735     1.7198 C.2     
  11 C11            2.4157     3.6742     1.5072 C.2     
  12 C12            1.8060     4.0750     0.2345 C.2     
  13 C13            1.1669     3.1389    -0.5788 C.2     
  14 C14            0.5298     3.5550    -1.7512 C.2     
  15 C15            0.5704     4.8946    -2.1327 C.2     
  16 C16            1.2486     5.8224    -1.3429 C.2     
  17 C17            1.8667     5.4134    -0.1631 C.2     
  18 N18           -1.1495     1.9269     0.1189 N.am    
  19 C19           -2.4615     1.2713     0.0329 C.3     
  20 C20           -3.2817     1.6451     1.2716 C.3     
  21 C21           -3.3474     3.1692     1.3940 C.3     
  22 C22           -1.9337     3.7305     1.5632 C.3     
  23 C23           -1.0983     3.3795     0.3335 C.3     
  24 H24            1.7584    -0.2288    -1.7316 H       
  25 H25            3.9006    -1.4632    -1.6687 H       
  26 H26            5.6833    -0.7624    -0.0998 H       
  27 H27            5.3006     1.1350     1.4366 H       
  28 H28            3.4589     2.4223     2.7124 H       
  29 H29            2.3168     4.3567     2.3383 H       
  30 H30            0.0051     2.8363    -2.3633 H       
  31 H31            0.0774     5.2138    -3.0390 H       
  32 H32            1.2961     6.8580    -1.6456 H       
  33 H33            2.3916     6.1332     0.4475 H       
  34 H34           -2.9804     1.6085    -0.8643 H       
  35 H35           -2.3280     0.1901    -0.0043 H       
  36 H36           -4.2905     1.2441     1.1746 H       
  37 H37           -2.8081     1.2288     2.1607 H       
  38 H38           -3.7985     3.5867     0.4939 H       
  39 H39           -3.9511     3.4382     2.2608 H       
  40 H40           -1.9832     4.8138     1.6738 H       
  41 H41           -1.4729     3.2946     2.4496 H       
  42 H42           -0.0657     3.6905     0.4923 H       
  43 H43           -1.5046     3.8872    -0.5414 H       
@<TRIPOS>BOND
   1    1    2 2
   2    2    3 am
   3    2   18 am
   4    3    4 1
   5    3   13 1
   6    4    5 2
   7    4    9 1
   8    5    6 1
   9    5   24 1
  10    6    7 2
  11    6   25 1
  12    7    8 1
  13    7   26 1
  14    8    9 2
  15    8   27 1
  16    9   10 1
  17   10   11 2
  18   10   28 1
  19   11   12 1
  20   11   29 1
  21   12   13 2
  22   12   17 1
  23   13   14 1
  24   14   15 2
  25   14   30 1
  26   15   16 1
  27   15   31 1
  28   16   17 2
  29   16   32 1
  30   17   33 1
  31   18   19 1
  32   18   23 1
  33   19   20 1
  34   19   34 1
  35   19   35 1
  36   20   21 1
  37   20   36 1
  38   20   37 1
  39   21   22 1
  40   21   38 1
  41   21   39 1
  42   22   23 1
  43   22   40 1
  44   22   41 1
  45   23   42 1
  46   23   43 1

#	End of record

