#	Name: ASD01412041
#	Creating user name:	WinNT
#	Creation time:	15. 06. 2019 19:19

#	Modifying user name:	WinNT
#	Modification time:	15. 06. 2019 19:19

#	Program:	/corina/corina34_cracker 3.40 0067  02.08.2006

@<TRIPOS>MOLECULE
ASD01412041
  79   83    0    0    0
SMALL
NO_CHARGES


@<TRIPOS>ATOM
   1 C1            -1.1721     3.2497    -0.6267 C.ar    
   2 C2            -0.9746     1.9110    -1.0225 C.ar    
   3 C3            -2.0429     1.0034    -0.9790 C.ar    
   4 C4            -3.2691     1.4146    -0.5550 C.ar    
   5 C5            -3.4748     2.7445    -0.1593 C.ar    
   6 C6            -2.4228     3.6582    -0.1921 C.ar    
   7 N7             0.0359     3.9017    -0.7718 N.pl3   
   8 C8             0.9675     3.0077    -1.2433 C.2     
   9 C9             0.3832     1.7929    -1.4047 C.2     
  10 C10            1.0598     0.5414    -1.9017 C.3     
  11 C11            0.9723    -0.5460    -0.8291 C.3     
  12 C12            1.6592    -1.8166    -1.3337 C.3     
  13 C13            0.9644    -2.3002    -2.6081 C.3     
  14 C14            1.0520    -1.2127    -3.6808 C.3     
  15 C15            0.3650     0.0578    -3.1762 C.3     
  16 C16           -4.8092     3.1767     0.2977 C.2     
  17 O17           -4.9904     4.3290     0.6413 O.2     
  18 N18           -5.8274     2.2945     0.3343 N.am    
  19 C19           -7.1526     2.7238     0.7881 C.3     
  20 C20           -8.1045     1.5568     0.7341 C.2     
  21 C21           -7.0574     3.2383     2.2258 C.3     
  22 C22           -7.6653     3.8426    -0.1210 C.3     
  23 C23           -8.8162    -0.4852    -0.2483 C.ar    
  24 O24           -8.9742     1.4444     1.5719 O.2     
  25 C25           -9.1912    -1.0740     0.9557 C.ar    
  26 C26          -10.0113    -2.1791     0.9576 C.ar    
  27 C27          -10.4687    -2.7108    -0.2542 C.ar    
  28 C28          -10.0892    -2.1148    -1.4630 C.ar    
  29 C29           -9.2684    -1.0102    -1.4552 C.ar    
  30 C30          -11.3441    -3.8909    -0.2574 C.2     
  31 C31          -12.3914    -3.9574     0.5936 C.2     
  32 N32           -7.9892     0.6379    -0.2450 N.am    
  33 C33            0.2841     5.3143    -0.4729 C.3     
  34 C34            2.3837     3.3200    -1.5298 C.ar    
  35 C35            2.7360     4.4819    -2.2260 C.ar    
  36 N36            4.0126     4.7250    -2.4622 N.ar    
  37 C37            4.9527     3.8865    -2.0496 C.ar    
  38 N38            4.6597     2.7760    -1.3876 N.ar    
  39 C39            3.4073     2.4643    -1.1069 C.ar    
  40 N40            6.2776     4.1784    -2.3181 N.pl3   
  41 C41          -12.7893    -2.8063     1.3194 C.2     
  42 O42          -12.2154    -1.7482     1.1440 O.2     
  43 O43          -13.8047    -2.8845     2.2046 O.3     
  44 H44           -1.8926    -0.0222    -1.2824 H       
  45 H45           -4.0891     0.7125    -0.5234 H       
  46 H46           -2.5834     4.6816     0.1134 H       
  47 H47            2.1066     0.7555    -2.1174 H       
  48 H48            1.4672    -0.2015     0.0789 H       
  49 H49           -0.0745    -0.7601    -0.6133 H       
  50 H50            2.7060    -1.6025    -1.5494 H       
  51 H51            1.5968    -2.5914    -0.5695 H       
  52 H52            1.4538    -3.2054    -2.9676 H       
  53 H53           -0.0824    -2.5143    -2.3924 H       
  54 H54            2.0987    -0.9986    -3.8965 H       
  55 H55            0.5570    -1.5573    -4.5888 H       
  56 H56           -0.6817    -0.1563    -2.9605 H       
  57 H57            0.4274     0.8326    -3.9404 H       
  58 H58           -5.6829     1.3754     0.0602 H       
  59 H59           -6.3689     4.0824     2.2648 H       
  60 H60           -8.0433     3.5577     2.5635 H       
  61 H61           -6.6921     2.4413     2.8735 H       
  62 H62           -7.7331     3.4761    -1.1453 H       
  63 H63           -8.6512     4.1620     0.2166 H       
  64 H64           -6.9768     4.6867    -0.0820 H       
  65 H65           -8.8379    -0.6632     1.8899 H       
  66 H66          -10.3012    -2.6358     1.8923 H       
  67 H67          -10.4394    -2.5217    -2.4001 H       
  68 H68           -8.9754    -0.5497    -2.3871 H       
  69 H69          -11.1504    -4.7052    -0.9399 H       
  70 H70          -12.9255    -4.8875     0.7209 H       
  71 H71           -7.3311     0.7576    -0.9475 H       
  72 H72            0.5960     5.4164     0.5665 H       
  73 H73            1.0704     5.6913    -1.1269 H       
  74 H74           -0.6294     5.8861    -0.6359 H       
  75 H75            1.9753     5.1693    -2.5654 H       
  76 H76            3.1760     1.5579    -0.5672 H       
  77 H77            6.5077     4.9871    -2.8019 H       
  78 H78            6.9768     3.5745    -2.0227 H       
  79 H79          -14.0032    -2.0496     2.6502 H       
@<TRIPOS>BOND
   1    1    2 ar
   2    1    7 1
   3    1    6 ar
   4    2    3 ar
   5    2    9 1
   6    3    4 ar
   7    3   44 1
   8    4    5 ar
   9    4   45 1
  10    5    6 ar
  11    5   16 1
  12    6   46 1
  13    7    8 1
  14    7   33 1
  15    8    9 2
  16    8   34 1
  17    9   10 1
  18   10   11 1
  19   10   15 1
  20   10   47 1
  21   11   12 1
  22   11   48 1
  23   11   49 1
  24   12   13 1
  25   12   50 1
  26   12   51 1
  27   13   14 1
  28   13   52 1
  29   13   53 1
  30   14   15 1
  31   14   54 1
  32   14   55 1
  33   15   56 1
  34   15   57 1
  35   16   17 2
  36   16   18 am
  37   18   19 1
  38   18   58 1
  39   19   20 1
  40   19   21 1
  41   19   22 1
  42   20   24 2
  43   20   32 am
  44   21   59 1
  45   21   60 1
  46   21   61 1
  47   22   62 1
  48   22   63 1
  49   22   64 1
  50   23   25 ar
  51   23   29 ar
  52   23   32 1
  53   25   26 ar
  54   25   65 1
  55   26   27 ar
  56   26   66 1
  57   27   28 ar
  58   27   30 1
  59   28   29 ar
  60   28   67 1
  61   29   68 1
  62   30   31 2
  63   30   69 1
  64   31   41 1
  65   31   70 1
  66   32   71 1
  67   33   72 1
  68   33   73 1
  69   33   74 1
  70   34   35 ar
  71   34   39 ar
  72   35   36 ar
  73   35   75 1
  74   36   37 ar
  75   37   38 ar
  76   37   40 1
  77   38   39 ar
  78   39   76 1
  79   40   77 1
  80   40   78 1
  81   41   42 2
  82   41   43 1
  83   43   79 1

#	End of record

