#	Name: ASD04930048
#	Creating user name:	WinNT
#	Creation time:	15. 06. 2019 20:56

#	Modifying user name:	WinNT
#	Modification time:	15. 06. 2019 20:56

#	Program:	/corina/corina34_cracker 3.40 0067  02.08.2006

@<TRIPOS>MOLECULE
ASD04930048
  66   67    0    0    0
SMALL
NO_CHARGES


@<TRIPOS>ATOM
   1 C1            -1.2166    -0.9341    -2.2221 C.ar    
   2 C2            -0.5450    -1.0601    -1.0130 C.ar    
   3 C3            -1.1004    -0.5787     0.1525 C.ar    
   4 C4            -2.3463     0.0413     0.1270 C.ar    
   5 C5            -3.0276     0.1697    -1.0965 C.ar    
   6 C6            -2.4478    -0.3193    -2.2727 C.ar    
   7 N7            -2.9048     0.5238     1.2935 N.am    
   8 C8            -4.1051     1.1275     1.3057 C.2     
   9 C9            -4.8724     1.2979     0.0726 C.2     
  10 C10           -4.3406     0.8223    -1.1282 C.2     
  11 O11           -5.0172     0.9601    -2.2875 O.3     
  12 O12           -4.5605     1.5381     2.3583 O.2     
  13 C13           -6.1830     1.9590     0.0965 C.2     
  14 O14           -6.2520     3.1699     0.1942 O.2     
  15 N15           -7.3099     1.2246     0.0102 N.am    
  16 Cl16          -0.4973    -1.5481    -3.6779 Cl      
  17 N17           -8.5604     1.8423     0.1428 N.am    
  18 C18           -9.6872     1.1079     0.0565 C.2     
  19 C19          -11.0323     1.7722     0.1991 C.3     
  20 O20           -9.6186    -0.0876    -0.1360 O.2     
  21 C21          -12.1368     0.7223     0.0619 C.3     
  22 C22          -13.5024     1.3968     0.2067 C.3     
  23 C23          -14.6069     0.3469     0.0695 C.3     
  24 C24          -15.9725     1.0214     0.2143 C.3     
  25 C25          -17.0770    -0.0285     0.0771 C.3     
  26 C26          -18.4426     0.6460     0.2219 C.3     
  27 C27          -19.5471    -0.4039     0.0847 C.3     
  28 C28          -20.9127     0.2706     0.2295 C.3     
  29 C29          -22.0172    -0.7793     0.0923 C.3     
  30 C30          -23.3828    -0.1048     0.2372 C.3     
  31 C31           -1.2744     1.5950     2.7686 C.3     
  32 C32           -2.1695     0.3733     2.5517 C.3     
  33 H33            0.4219    -1.5404    -0.9860 H       
  34 H34           -0.5686    -0.6829     1.0867 H       
  35 H35           -2.9674    -0.2225    -3.2145 H       
  36 H36           -5.9036     1.3324    -2.1837 H       
  37 H37           -7.2550     0.2685    -0.1437 H       
  38 H38           -8.6152     2.7984     0.2967 H       
  39 H39          -11.1014     2.2464     1.1782 H       
  40 H40          -11.1493     2.5265    -0.5790 H       
  41 H41          -12.0677     0.2482    -0.9171 H       
  42 H42          -12.0197    -0.0320     0.8400 H       
  43 H43          -13.5715     1.8710     1.1858 H       
  44 H44          -13.6194     2.1511    -0.5714 H       
  45 H45          -14.5378    -0.1272    -0.9095 H       
  46 H46          -14.4898    -0.4074     0.8476 H       
  47 H47          -16.0416     1.4956     1.1934 H       
  48 H48          -16.0896     1.7757    -0.5638 H       
  49 H49          -17.0079    -0.5027    -0.9019 H       
  50 H50          -16.9599    -0.7828     0.8552 H       
  51 H51          -18.5117     1.1202     1.2010 H       
  52 H52          -18.5597     1.4003    -0.5562 H       
  53 H53          -19.4780    -0.8781    -0.8943 H       
  54 H54          -19.4300    -1.1582     0.8628 H       
  55 H55          -20.9818     0.7448     1.2086 H       
  56 H56          -21.0298     1.0249    -0.5486 H       
  57 H57          -21.9481    -1.2535    -0.8867 H       
  58 H58          -21.9001    -1.5336     0.8704 H       
  59 H59          -23.4999     0.6495    -0.5410 H       
  60 H60          -24.1697    -0.8528     0.1394 H       
  61 H61          -23.4519     0.3693     1.2162 H       
  62 H62           -1.8901     2.4933     2.8129 H       
  63 H63           -0.7273     1.4830     3.7047 H       
  64 H64           -0.5680     1.6791     1.9428 H       
  65 H65           -2.8759     0.2892     3.3775 H       
  66 H66           -1.5537    -0.5250     2.5074 H       
@<TRIPOS>BOND
   1    1    2 ar
   2    1   16 1
   3    1    6 ar
   4    2    3 ar
   5    2   33 1
   6    3    4 ar
   7    3   34 1
   8    4    5 ar
   9    4    7 1
  10    5    6 ar
  11    5   10 1
  12    6   35 1
  13    7    8 am
  14    7   32 1
  15    8    9 1
  16    8   12 2
  17    9   10 2
  18    9   13 1
  19   10   11 1
  20   11   36 1
  21   13   14 2
  22   13   15 am
  23   15   17 1
  24   15   37 1
  25   17   18 am
  26   17   38 1
  27   18   19 1
  28   18   20 2
  29   19   21 1
  30   19   39 1
  31   19   40 1
  32   21   22 1
  33   21   41 1
  34   21   42 1
  35   22   23 1
  36   22   43 1
  37   22   44 1
  38   23   24 1
  39   23   45 1
  40   23   46 1
  41   24   25 1
  42   24   47 1
  43   24   48 1
  44   25   26 1
  45   25   49 1
  46   25   50 1
  47   26   27 1
  48   26   51 1
  49   26   52 1
  50   27   28 1
  51   27   53 1
  52   27   54 1
  53   28   29 1
  54   28   55 1
  55   28   56 1
  56   29   30 1
  57   29   57 1
  58   29   58 1
  59   30   59 1
  60   30   60 1
  61   30   61 1
  62   31   32 1
  63   31   62 1
  64   31   63 1
  65   31   64 1
  66   32   65 1
  67   32   66 1

#	End of record

