#	Name: ASD04880496
#	Creating user name:	WinNT
#	Creation time:	15. 06. 2019 20:53

#	Modifying user name:	WinNT
#	Modification time:	15. 06. 2019 20:53

#	Program:	/corina/corina34_cracker 3.40 0067  02.08.2006

@<TRIPOS>MOLECULE
ASD04880496
  37   39    0    0    0
SMALL
NO_CHARGES


@<TRIPOS>ATOM
   1 C1            -0.0144     1.2118     0.0087 C.2     
   2 O2             0.0730    -0.0008     0.0326 O.2     
   3 N3             1.1004     1.9667    -0.0525 N.am    
   4 N4             1.1341     3.3519    -0.1996 N.2     
   5 C5             2.3226     3.8491    -0.2312 C.2     
   6 C6             3.3387     2.7378    -0.0945 C.3     
   7 C7             2.4806     1.4634     0.0315 C.3     
   8 C8             2.6421     5.2802    -0.3781 C.ar    
   9 C9             1.6122     6.2239    -0.4967 C.ar    
  10 C10            1.9234     7.5663    -0.6337 C.ar    
  11 C11            3.2446     7.9732    -0.6534 C.ar    
  12 C12            4.2647     7.0451    -0.5367 C.ar    
  13 C13            3.9724     5.7046    -0.3941 C.ar    
  14 O14            0.3147     5.8232    -0.4777 O.3     
  15 C15           -0.6805     6.8410    -0.6035 C.3     
  16 C16           -1.3434     1.8576     0.0407 C.ar    
  17 C17           -2.5013     1.0832    -0.0500 C.ar    
  18 C18           -3.7404     1.6937    -0.0195 C.ar    
  19 C19           -3.8336     3.0713     0.1003 C.ar    
  20 C20           -2.6890     3.8424     0.1899 C.ar    
  21 C21           -1.4460     3.2439     0.1673 C.ar    
  22 F22           -4.8627     0.9467    -0.1071 F       
  23 H23            3.9736     2.6892    -0.9792 H       
  24 H24            3.9416     2.8791     0.8026 H       
  25 H25            2.6534     0.9759     0.9911 H       
  26 H26            2.6901     0.7791    -0.7906 H       
  27 H27            1.1330     8.2965    -0.7257 H       
  28 H28            3.4820     9.0213    -0.7609 H       
  29 H29            5.2938     7.3723    -0.5531 H       
  30 H30            4.7712     4.9839    -0.2991 H       
  31 H31           -0.5809     7.5501     0.2183 H       
  32 H32           -0.5489     7.3626    -1.5515 H       
  33 H33           -1.6708     6.3865    -0.5732 H       
  34 H34           -2.4288     0.0098    -0.1441 H       
  35 H35           -4.8041     3.5446     0.1234 H       
  36 H36           -2.7685     4.9155     0.2827 H       
  37 H37           -0.5536     3.8476     0.2427 H       
@<TRIPOS>BOND
   1    1    2 2
   2    1    3 am
   3    1   16 1
   4    3    4 1
   5    3    7 1
   6    4    5 2
   7    5    6 1
   8    5    8 1
   9    6    7 1
  10    6   23 1
  11    6   24 1
  12    7   25 1
  13    7   26 1
  14    8    9 ar
  15    8   13 ar
  16    9   10 ar
  17    9   14 1
  18   10   11 ar
  19   10   27 1
  20   11   12 ar
  21   11   28 1
  22   12   13 ar
  23   12   29 1
  24   13   30 1
  25   14   15 1
  26   15   31 1
  27   15   32 1
  28   15   33 1
  29   16   17 ar
  30   16   21 ar
  31   17   18 ar
  32   17   34 1
  33   18   19 ar
  34   18   22 1
  35   19   20 ar
  36   19   35 1
  37   20   21 ar
  38   20   36 1
  39   21   37 1

#	End of record

