#	Name: ASD01914351
#	Creating user name:	WinNT
#	Creation time:	15. 06. 2019 20:03

#	Modifying user name:	WinNT
#	Modification time:	15. 06. 2019 20:03

#	Program:	/corina/corina34_cracker 3.40 0067  02.08.2006

@<TRIPOS>MOLECULE
ASD01914351
  44   47    0    0    0
SMALL
NO_CHARGES


@<TRIPOS>ATOM
   1 C1             0.0473     1.2214    -0.2684 C.2     
   2 N2             0.0119    -0.1317    -0.2638 N.pl3   
   3 C3            -1.2074    -0.9385    -0.1628 C.3     
   4 C4            -2.3410    -0.0727     0.3974 C.3     
   5 N5            -2.3523     1.2218    -0.3008 N.am    
   6 C6            -1.1761     2.0992    -0.1512 C.3     
   7 C7            -3.0602     4.0561    -0.8936 C.ar    
   8 C8            -3.4468     2.9467    -1.6481 C.ar    
   9 C9            -3.4053     1.5948    -1.0549 C.2     
  10 C10           -3.1018     5.3157    -1.4533 C.ar    
  11 C11           -3.5254     5.4837    -2.7603 C.ar    
  12 C12           -3.8741     3.1222    -2.9682 C.ar    
  13 C13            1.3329     1.6049    -0.3866 C.2     
  14 C14            2.1194     0.4473    -0.4516 C.2     
  15 N15            1.3263    -0.5928    -0.3757 N.2     
  16 C16            3.6198     0.4056    -0.5866 C.3     
  17 O17            4.2149     0.3992     0.7126 O.3     
  18 C18            5.5722     0.3629     0.7693 C.ar    
  19 C19            6.2164     0.3546     1.9980 C.ar    
  20 C20            7.5962     0.3172     2.0530 C.ar    
  21 C21            8.3352     0.2879     0.8848 C.ar    
  22 C22            6.3159     0.3281    -0.4013 C.ar    
  23 O23           -4.3209     0.8184    -1.2469 O.2     
  24 C24            7.6957     0.2965    -0.3410 C.ar    
  25 C25           -3.9102     4.3916    -3.5155 C.ar    
  26 I26            2.0313     3.5786    -0.4608 I       
  27 F27           -4.2506     2.0550    -3.7062 F       
  28 H28           -1.4840    -1.3054    -1.1512 H       
  29 H29           -1.0309    -1.7829     0.5034 H       
  30 H30           -3.2948    -0.5775     0.2437 H       
  31 H31           -2.1821     0.0901     1.4634 H       
  32 H32           -1.1947     2.5826     0.8255 H       
  33 H33           -1.1709     2.8518    -0.9397 H       
  34 H34           -2.7334     3.9284     0.1278 H       
  35 H35           -2.8028     6.1740    -0.8699 H       
  36 H36           -3.5558     6.4731    -3.1922 H       
  37 H37            3.9114    -0.4967    -1.1242 H       
  38 H38            3.9596     1.2826    -1.1375 H       
  39 H39            5.6395     0.3778     2.9108 H       
  40 H40            8.0981     0.3111     3.0093 H       
  41 H41            9.4139     0.2586     0.9299 H       
  42 H42            5.8167     0.3299    -1.3590 H       
  43 H43            8.2752     0.2739    -1.2521 H       
  44 H44           -4.2401     4.5301    -4.5345 H       
@<TRIPOS>BOND
   1    1    2 1
   2    1   13 2
   3    1    6 1
   4    2    3 1
   5    2   15 1
   6    3    4 1
   7    3   28 1
   8    3   29 1
   9    4    5 1
  10    4   30 1
  11    4   31 1
  12    5    6 1
  13    5    9 am
  14    6   32 1
  15    6   33 1
  16    7    8 ar
  17    7   10 ar
  18    7   34 1
  19    8    9 1
  20    8   12 ar
  21    9   23 2
  22   10   11 ar
  23   10   35 1
  24   11   25 ar
  25   11   36 1
  26   12   27 1
  27   12   25 ar
  28   13   14 1
  29   13   26 1
  30   14   15 2
  31   14   16 1
  32   16   17 1
  33   16   37 1
  34   16   38 1
  35   17   18 1
  36   18   19 ar
  37   18   22 ar
  38   19   20 ar
  39   19   39 1
  40   20   21 ar
  41   20   40 1
  42   21   24 ar
  43   21   41 1
  44   22   24 ar
  45   22   42 1
  46   24   43 1
  47   25   44 1

#	End of record

