#	Name: ASD01918459
#	Creating user name:	WinNT
#	Creation time:	15. 06. 2019 20:11

#	Modifying user name:	WinNT
#	Modification time:	15. 06. 2019 20:11

#	Program:	/corina/corina34_cracker 3.40 0067  02.08.2006

@<TRIPOS>MOLECULE
ASD01918459
  40   43    0    0    0
SMALL
NO_CHARGES


@<TRIPOS>ATOM
   1 F1             0.0043    -0.0040     0.0036 F       
   2 C2            -0.0149     1.3468     0.0104 C.ar    
   3 C3            -0.4058     2.0384    -1.1238 C.ar    
   4 C4            -0.4257     3.4194    -1.1192 C.ar    
   5 C5            -0.0538     4.1143     0.0242 C.ar    
   6 C6             0.3374     3.4187     1.1607 C.ar    
   7 C7             0.3508     2.0377     1.1534 C.ar    
   8 N8            -0.0728     5.5136     0.0310 N.am    
   9 C9             1.1918     6.2337     0.1220 C.3     
  10 C10            1.2343     7.4597    -0.7918 C.3     
  11 C11           -0.0551     8.2240    -0.6409 C.2     
  12 N12           -0.3229     9.5119    -0.7833 N.2     
  13 C13           -1.6007     9.7051    -0.5594 C.2     
  14 C14           -2.3064    11.0351    -0.6242 C.3     
  15 O15           -2.7889    11.2541    -1.9513 O.3     
  16 C16           -3.4541    12.4166    -2.1820 C.ar    
  17 C17           -3.6336    13.3302    -1.1535 C.ar    
  18 C18           -4.3098    14.5113    -1.3907 C.ar    
  19 C19           -4.8077    14.7830    -2.6516 C.ar    
  20 C20           -4.6305    13.8739    -3.6781 C.ar    
  21 C21           -3.9497    12.6941    -3.4477 C.ar    
  22 O22           -2.1809     8.5312    -0.2638 O.3     
  23 C23           -1.2288     7.5943    -0.3027 C.2     
  24 C24           -1.2635     6.1505    -0.0527 C.2     
  25 O25           -2.3157     5.5530     0.0774 O.2     
  26 H26           -0.6949     1.4976    -2.0128 H       
  27 H27           -0.7299     3.9584    -2.0042 H       
  28 H28            0.6273     3.9572     2.0508 H       
  29 H29            0.6511     1.4963     2.0383 H       
  30 H30            1.3404     6.5566     1.1524 H       
  31 H31            2.0023     5.5594    -0.1546 H       
  32 H32            2.0719     8.0972    -0.5089 H       
  33 H33            1.3500     7.1396    -1.8273 H       
  34 H34           -3.1451    11.0357     0.0720 H       
  35 H35           -1.6102    11.8293    -0.3550 H       
  36 H36           -3.2455    13.1181    -0.1683 H       
  37 H37           -4.4498    15.2229    -0.5904 H       
  38 H38           -5.3363    15.7068    -2.8349 H       
  39 H39           -5.0207    14.0883    -4.6621 H       
  40 H40           -3.8077    11.9863    -4.2509 H       
@<TRIPOS>BOND
   1    1    2 1
   2    2    7 ar
   3    2    3 ar
   4    3    4 ar
   5    3   26 1
   6    4    5 ar
   7    4   27 1
   8    5    6 ar
   9    5    8 1
  10    6    7 ar
  11    6   28 1
  12    7   29 1
  13    8   24 am
  14    8    9 1
  15    9   10 1
  16    9   30 1
  17    9   31 1
  18   10   11 1
  19   10   32 1
  20   10   33 1
  21   11   23 2
  22   11   12 1
  23   12   13 2
  24   13   14 1
  25   13   22 1
  26   14   15 1
  27   14   34 1
  28   14   35 1
  29   15   16 1
  30   16   21 ar
  31   16   17 ar
  32   17   18 ar
  33   17   36 1
  34   18   19 ar
  35   18   37 1
  36   19   20 ar
  37   19   38 1
  38   20   21 ar
  39   20   39 1
  40   21   40 1
  41   22   23 1
  42   23   24 1
  43   24   25 2

#	End of record

