#	Name: ASD01141125
#	Creating user name:	WinNT
#	Creation time:	15. 06. 2019 19:01

#	Modifying user name:	WinNT
#	Modification time:	15. 06. 2019 19:01

#	Program:	/corina/corina34_cracker 3.40 0067  02.08.2006

@<TRIPOS>MOLECULE
ASD01141125
  38   39    0    0    0
SMALL
NO_CHARGES


@<TRIPOS>ATOM
   1 C1            -0.0169     1.3943     0.0097 C.ar    
   2 C2             0.0021    -0.0041     0.0020 C.ar    
   3 C3             1.2211    -0.6775    -0.0132 C.ar    
   4 C4             2.4025     0.0366    -0.0207 C.ar    
   5 C5             2.3805     1.4198    -0.0130 C.ar    
   6 C6             1.1760     2.0982     0.0021 C.ar    
   7 O7            -1.2012     2.0600     0.0190 O.3     
   8 C8            -1.2699    -0.7663     0.0106 C.ar    
   9 C9            -2.1460    -0.6830    -1.0764 C.ar    
  10 C10           -3.3320    -1.3984    -1.0599 C.ar    
  11 C11           -3.6475    -2.1914     0.0276 C.ar    
  12 C12           -2.7830    -2.2758     1.1042 C.ar    
  13 C13           -1.5949    -1.5727     1.0986 C.ar    
  14 O14           -1.8351     0.0970    -2.1444 O.3     
  15 C15           -3.1365    -3.1432     2.2848 C.3     
  16 C16           -2.5985    -4.5337     2.0654 C.2     
  17 C17           -1.8136    -5.0811     2.9601 C.2     
  18 C18            3.7209    -0.6932    -0.0367 C.3     
  19 C19            4.1471    -0.9293    -1.4628 C.2     
  20 C20            5.3212    -0.5171    -1.8723 C.2     
  21 H21            1.2421    -1.7573    -0.0189 H       
  22 H22            3.3085     1.9722    -0.0189 H       
  23 H23            1.1652     3.1782     0.0076 H       
  24 H24           -1.5399     2.2479     0.9050 H       
  25 H25           -4.0111    -1.3363    -1.8974 H       
  26 H26           -4.5734    -2.7474     0.0368 H       
  27 H27           -0.9201    -1.6447     1.9387 H       
  28 H28           -1.3371    -0.3617    -2.8348 H       
  29 H29           -2.6974    -2.7223     3.1893 H       
  30 H30           -4.2203    -3.1858     2.3928 H       
  31 H31           -2.8600    -5.0790     1.1706 H       
  32 H32           -1.4281    -6.0776     2.8029 H       
  33 H33           -1.5521    -4.5359     3.8549 H       
  34 H34            4.4746    -0.0931     0.4731 H       
  35 H35            3.6125    -1.6504     0.4734 H       
  36 H36            3.4846    -1.4384    -2.1471 H       
  37 H37            5.9837    -0.0080    -1.1880 H       
  38 H38            5.6266    -0.6863    -2.8943 H       
@<TRIPOS>BOND
   1    1    2 ar
   2    1    6 ar
   3    1    7 1
   4    2    3 ar
   5    2    8 1
   6    3    4 ar
   7    3   21 1
   8    4    5 ar
   9    4   18 1
  10    5    6 ar
  11    5   22 1
  12    6   23 1
  13    7   24 1
  14    8    9 ar
  15    8   13 ar
  16    9   10 ar
  17    9   14 1
  18   10   11 ar
  19   10   25 1
  20   11   12 ar
  21   11   26 1
  22   12   13 ar
  23   12   15 1
  24   13   27 1
  25   14   28 1
  26   15   16 1
  27   15   29 1
  28   15   30 1
  29   16   17 2
  30   16   31 1
  31   17   32 1
  32   17   33 1
  33   18   19 1
  34   18   34 1
  35   18   35 1
  36   19   20 2
  37   19   36 1
  38   20   37 1
  39   20   38 1

#	End of record

