#	Name: ASD02562061
#	Creating user name:	WinNT
#	Creation time:	15. 06. 2019 20:25

#	Modifying user name:	WinNT
#	Modification time:	15. 06. 2019 20:25

#	Program:	/corina/corina34_cracker 3.40 0067  02.08.2006

@<TRIPOS>MOLECULE
ASD02562061
  43   46    0    0    0
SMALL
NO_CHARGES


@<TRIPOS>ATOM
   1 C1             0.2413     1.7566     1.2652 C.2     
   2 C2             0.1266     0.3586     1.1638 C.2     
   3 C3             1.1821    -0.3852     0.7768 C.2     
   4 N4             2.3794     0.2071     0.4768 N.pl3   
   5 C5             2.5216     1.5730     0.5665 C.2     
   6 C6             1.4229     2.3607     0.9710 C.2     
   7 C7             3.5814    -0.3012     0.0685 C.2     
   8 C8             4.4367     0.7699    -0.0834 C.2     
   9 N9             3.7601     1.8908     0.2272 N.2     
  10 N10            3.8845    -1.6454    -0.1517 N.3     
  11 C11            5.8531     0.6987    -0.5128 C.ar    
  12 C12            2.6780    -2.4787    -0.0613 C.3     
  13 C13            2.8913    -3.7722    -0.8503 C.3     
  14 C14            1.6348    -4.6401    -0.7562 C.3     
  15 C15            1.3564    -4.9770     0.7101 C.3     
  16 C16            1.1431    -3.6836     1.4990 C.3     
  17 C17            2.3996    -2.8157     1.4049 C.3     
  18 C18            6.2980     1.4654    -1.5905 C.ar    
  19 C19            7.6194     1.3944    -1.9856 C.ar    
  20 C20            8.5012     0.5653    -1.3158 C.ar    
  21 C21            8.0665    -0.1976    -0.2469 C.ar    
  22 C22            6.7491    -0.1309     0.1625 C.ar    
  23 Cl23           5.1927     2.5056    -2.4331 Cl      
  24 Cl24           6.2055    -1.0891     1.5041 Cl      
  25 H25           -0.6082     2.3489     1.5717 H       
  26 H26           -0.8121    -0.1217     1.3974 H       
  27 H27            1.0824    -1.4581     0.7032 H       
  28 H28            1.5198     3.4338     1.0456 H       
  29 H29            4.3452    -1.7714    -1.0405 H       
  30 H30            1.8293    -1.9355    -0.4768 H       
  31 H31            3.0897    -3.5321    -1.8948 H       
  32 H32            3.7401    -4.3154    -0.4348 H       
  33 H33            0.7861    -4.0968    -1.1716 H       
  34 H34            1.7868    -5.5615    -1.3182 H       
  35 H35            0.4613    -5.5953     0.7771 H       
  36 H36            2.2052    -5.5203     1.1255 H       
  37 H37            0.2944    -3.1404     1.0836 H       
  38 H38            0.9448    -3.9237     2.5436 H       
  39 H39            3.2484    -3.3589     1.8204 H       
  40 H40            2.2477    -1.8942     1.9670 H       
  41 H41            7.9650     1.9873    -2.8196 H       
  42 H42            9.5335     0.5132    -1.6290 H       
  43 H43            8.7598    -0.8432     0.2716 H       
@<TRIPOS>BOND
   1    1    2 1
   2    1    6 2
   3    1   25 1
   4    2    3 2
   5    2   26 1
   6    3    4 1
   7    3   27 1
   8    4    5 1
   9    4    7 1
  10    5    6 1
  11    5    9 2
  12    6   28 1
  13    7    8 2
  14    7   10 1
  15    8    9 1
  16    8   11 1
  17   10   12 1
  18   10   29 1
  19   11   18 ar
  20   11   22 ar
  21   12   13 1
  22   12   17 1
  23   12   30 1
  24   13   14 1
  25   13   31 1
  26   13   32 1
  27   14   15 1
  28   14   33 1
  29   14   34 1
  30   15   16 1
  31   15   35 1
  32   15   36 1
  33   16   17 1
  34   16   37 1
  35   16   38 1
  36   17   39 1
  37   17   40 1
  38   18   19 ar
  39   18   23 1
  40   19   20 ar
  41   19   41 1
  42   20   21 ar
  43   20   42 1
  44   21   22 ar
  45   21   43 1
  46   22   24 1

#	End of record

