#	Name: ASD03092824
#	Creating user name:	WinNT
#	Creation time:	15. 06. 2019 20:33

#	Modifying user name:	WinNT
#	Modification time:	15. 06. 2019 20:33

#	Program:	/corina/corina34_cracker 3.40 0067  02.08.2006

@<TRIPOS>MOLECULE
ASD03092824
  54   57    0    0    0
SMALL
NO_CHARGES


@<TRIPOS>ATOM
   1 C1            -0.0021     1.4047     0.0859 C.3     
   2 O2             0.0119    -0.0228     0.0205 O.3     
   3 C3            -1.1914    -0.6519     0.0248 C.ar    
   4 C4            -2.3613     0.0906     0.0848 C.ar    
   5 C5            -3.5861    -0.5431     0.0894 C.ar    
   6 C6            -3.6552    -1.9372     0.0340 C.ar    
   7 C7            -2.4831    -2.6903    -0.0265 C.ar    
   8 C8            -1.2503    -2.0490    -0.0372 C.ar    
   9 C9             0.0006    -2.8435    -0.1076 C.ar    
  10 C10            0.9835    -2.5191    -1.0406 C.ar    
  11 C11            2.1453    -3.2617    -1.1017 C.ar    
  12 C12            2.3349    -4.3262    -0.2389 C.ar    
  13 C13            1.3625    -4.6526     0.6892 C.ar    
  14 C14            0.1994    -3.9134     0.7629 C.ar    
  15 S15            3.8203    -5.2702    -0.3229 S.o2    
  16 N16            4.9100    -4.5617     0.7032 N.am    
  17 O17            3.5180    -6.5439     0.2298 O.2     
  18 O18            4.3334    -5.0949    -1.6364 O.2     
  19 C19           -4.9690    -2.6133     0.0401 C.2     
  20 S20           -6.3063    -2.2719     1.1366 S.3     
  21 C21           -7.2685    -3.5175     0.3462 C.2     
  22 N22           -6.5715    -4.0617    -0.6132 N.2     
  23 C23           -5.3654    -3.6120    -0.8090 C.2     
  24 C24           -4.4672    -4.1556    -1.8902 C.3     
  25 C25           -8.6442    -3.8875     0.7116 C.2     
  26 O26           -9.2052    -3.3154     1.6269 O.2     
  27 N27           -9.2834    -4.8604     0.0323 N.am    
  28 C28           -8.7226    -5.6363    -1.0888 C.3     
  29 C29           -9.5278    -6.9597    -1.0971 C.3     
  30 C30          -10.9466    -6.4635    -0.7121 C.3     
  31 C31          -10.6530    -5.3281     0.2909 C.3     
  32 H32            1.0216     1.7789     0.0750 H       
  33 H33           -0.5435     1.8024    -0.7724 H       
  34 H34           -0.4950     1.7214     1.0051 H       
  35 H35           -2.3129     1.1686     0.1285 H       
  36 H36           -4.4940     0.0399     0.1363 H       
  37 H37           -2.5334    -3.7683    -0.0694 H       
  38 H38            0.8364    -1.6884    -1.7149 H       
  39 H39            2.9076    -3.0114    -1.8246 H       
  40 H40            1.5158    -5.4848     1.3603 H       
  41 H41           -0.5570    -4.1661     1.4912 H       
  42 H42            4.6591    -3.7717     1.2070 H       
  43 H43            5.7992    -4.9368     0.8005 H       
  44 H44           -3.8201    -4.9263    -1.4715 H       
  45 H45           -5.0756    -4.5850    -2.6861 H       
  46 H46           -3.8563    -3.3486    -2.2948 H       
  47 H47           -8.8626    -5.1012    -2.0280 H       
  48 H48           -7.6647    -5.8370    -0.9196 H       
  49 H49           -9.5276    -7.4110    -2.0893 H       
  50 H50           -9.1422    -7.6563    -0.3527 H       
  51 H51          -11.4728    -6.0832    -1.5876 H       
  52 H52          -11.5169    -7.2597    -0.2337 H       
  53 H53          -10.7302    -5.7032     1.3114 H       
  54 H54          -11.3585    -4.5110     0.1397 H       
@<TRIPOS>BOND
   1    1    2 1
   2    1   32 1
   3    1   33 1
   4    1   34 1
   5    2    3 1
   6    3    8 ar
   7    3    4 ar
   8    4    5 ar
   9    4   35 1
  10    5    6 ar
  11    5   36 1
  12    6    7 ar
  13    6   19 1
  14    7    8 ar
  15    7   37 1
  16    8    9 1
  17    9   14 ar
  18    9   10 ar
  19   10   11 ar
  20   10   38 1
  21   11   12 ar
  22   11   39 1
  23   12   13 ar
  24   12   15 1
  25   13   14 ar
  26   13   40 1
  27   14   41 1
  28   15   16 am
  29   15   17 2
  30   15   18 2
  31   16   42 1
  32   16   43 1
  33   19   23 2
  34   19   20 1
  35   20   21 1
  36   21   22 2
  37   21   25 1
  38   22   23 1
  39   23   24 1
  40   24   44 1
  41   24   45 1
  42   24   46 1
  43   25   26 2
  44   25   27 am
  45   27   31 1
  46   27   28 1
  47   28   29 1
  48   28   47 1
  49   28   48 1
  50   29   30 1
  51   29   49 1
  52   29   50 1
  53   30   31 1
  54   30   51 1
  55   30   52 1
  56   31   53 1
  57   31   54 1

#	End of record

