#	Name: ASD01916338
#	Creating user name:	WinNT
#	Creation time:	15. 06. 2019 20:07

#	Modifying user name:	WinNT
#	Modification time:	15. 06. 2019 20:07

#	Program:	/corina/corina34_cracker 3.40 0067  02.08.2006

@<TRIPOS>MOLECULE
ASD01916338
  45   48    0    0    0
SMALL
NO_CHARGES


@<TRIPOS>ATOM
   1 C1            -0.0167     1.3805     0.0096 C.ar    
   2 C2             0.0021    -0.0041     0.0020 C.ar    
   3 C3            -1.1846    -0.7133     0.0095 C.ar    
   4 C4            -2.3920    -0.0425     0.0251 C.ar    
   5 C5            -2.4147     1.3450     0.0333 C.ar    
   6 C6            -1.2242     2.0561     0.0306 C.ar    
   7 F7             1.1440     2.0718     0.0023 F       
   8 O8            -3.6020     2.0060     0.0487 O.3     
   9 C9            -3.5495     3.4340     0.0563 C.3     
  10 C10           -4.9509     3.9881     0.0732 C.2     
  11 N11           -5.2744     5.2587     0.0831 N.2     
  12 N12           -6.6651     5.3507     0.0963 N.pl3   
  13 C13           -7.1678     4.0923     0.0963 C.2     
  14 C14           -6.1319     3.2339     0.0749 C.2     
  15 C15           -7.4986     6.5571     0.1065 C.3     
  16 C16           -8.9241     6.1590    -0.2964 C.3     
  17 N17           -9.3630     5.0078     0.5051 N.3     
  18 C18           -8.6439     3.7826     0.1135 C.3     
  19 C19          -10.8165     4.8200     0.4048 C.3     
  20 C20          -11.1971     3.5026     1.0298 C.ar    
  21 C21          -11.5147     3.4419     2.3739 C.ar    
  22 C22          -11.8643     2.2345     2.9480 C.ar    
  23 C23          -11.8963     1.0852     2.1765 C.ar    
  24 C24          -11.5780     1.1472     0.8305 C.ar    
  25 C25          -11.2338     2.3567     0.2573 C.ar    
  26 F26          -12.2375    -0.0959     2.7369 F       
  27 H27            0.9450    -0.5306    -0.0102 H       
  28 H28           -1.1676    -1.7932     0.0029 H       
  29 H29           -3.3183    -0.5978     0.0306 H       
  30 H30           -1.2395     3.1360     0.0372 H       
  31 H31           -3.0140     3.7731     0.9430 H       
  32 H32           -3.0314     3.7833    -0.8368 H       
  33 H33           -6.1986     2.1560     0.0673 H       
  34 H34           -7.5066     6.9900     1.1068 H       
  35 H35           -7.1043     7.2823    -0.6054 H       
  36 H36           -9.5974     6.9986    -0.1241 H       
  37 H37           -8.9411     5.8926    -1.3532 H       
  38 H38           -8.9658     3.4680    -0.8792 H       
  39 H39           -8.8456     2.9907     0.8349 H       
  40 H40          -11.3245     5.6304     0.9276 H       
  41 H41          -11.1117     4.8231    -0.6445 H       
  42 H42          -11.4892     4.3385     2.9756 H       
  43 H43          -12.1120     2.1873     3.9982 H       
  44 H44          -11.6027     0.2513     0.2277 H       
  45 H45          -10.9855     2.4053    -0.7926 H       
@<TRIPOS>BOND
   1    1    2 ar
   2    1    7 1
   3    1    6 ar
   4    2    3 ar
   5    2   27 1
   6    3    4 ar
   7    3   28 1
   8    4    5 ar
   9    4   29 1
  10    5    6 ar
  11    5    8 1
  12    6   30 1
  13    8    9 1
  14    9   10 1
  15    9   31 1
  16    9   32 1
  17   10   11 2
  18   10   14 1
  19   11   12 1
  20   12   13 1
  21   12   15 1
  22   13   14 2
  23   13   18 1
  24   14   33 1
  25   15   16 1
  26   15   34 1
  27   15   35 1
  28   16   17 1
  29   16   36 1
  30   16   37 1
  31   17   18 1
  32   17   19 1
  33   18   38 1
  34   18   39 1
  35   19   20 1
  36   19   40 1
  37   19   41 1
  38   20   21 ar
  39   20   25 ar
  40   21   22 ar
  41   21   42 1
  42   22   23 ar
  43   22   43 1
  44   23   24 ar
  45   23   26 1
  46   24   25 ar
  47   24   44 1
  48   25   45 1

#	End of record

