#	Name: ASD05380103
#	Creating user name:	WinNT
#	Creation time:	15. 06. 2019 20:59

#	Modifying user name:	WinNT
#	Modification time:	15. 06. 2019 20:59

#	Program:	/corina/corina34_cracker 3.40 0067  02.08.2006

@<TRIPOS>MOLECULE
ASD05380103
  49   53    0    0    0
SMALL
NO_CHARGES


@<TRIPOS>ATOM
   1 C1            -0.3091     1.6450     0.3424 C.ar    
   2 C2            -0.3160     0.2585     0.0699 C.ar    
   3 C3             0.8975     2.3089     0.5528 C.ar    
   4 C4             2.0798     1.6037     0.4930 C.ar    
   5 C5             2.0767     0.2413     0.2253 C.ar    
   6 C6             0.8952    -0.4337     0.0144 C.ar    
   7 N7            -1.5027    -0.3667    -0.1311 N.2     
   8 C8            -2.6290     0.2774    -0.0791 C.2     
   9 N9            -2.7166     1.6105     0.1763 N.am    
  10 C10           -1.6012     2.3437     0.4000 C.2     
  11 C11           -3.9742     2.2295     0.2138 C.ar    
  12 C12           -4.6420     2.3780     1.4238 C.ar    
  13 C13           -6.4583     3.4523     0.2879 C.ar    
  14 C14           -3.9039    -0.4910    -0.3140 C.3     
  15 N15           -3.6726    -1.5222    -1.3286 N.pl3   
  16 C16           -4.7295    -1.9984    -2.0846 C.ar    
  17 N17           -5.9604    -1.5312    -1.9030 N.ar    
  18 O18           -1.6648     3.5375     0.6297 O.2     
  19 C19           -4.5251    -2.9830    -3.0659 C.ar    
  20 C20           -5.6369    -3.4272    -3.8017 C.ar    
  21 N21           -6.8316    -2.9048    -3.5453 N.ar    
  22 C22           -6.9747    -1.9797    -2.6196 C.ar    
  23 N23           -3.4471    -3.6664    -3.5199 N.2     
  24 C24           -3.8174    -4.4818    -4.4643 C.2     
  25 N25           -5.1596    -4.3715    -4.6751 N.pl3   
  26 C26           -5.8826     2.9893     1.4566 C.ar    
  27 C27           -5.7948     3.3117    -0.9169 C.ar    
  28 C28           -4.3493    -1.1516     0.9922 C.3     
  29 F29           -4.0805     1.9254     2.5662 F       
  30 C30           -4.5538     2.7015    -0.9581 C.ar    
  31 F31           -3.9060     2.5650    -2.1358 F       
  32 C32            0.9096     3.7876     0.8433 C.3     
  33 H33            3.0170     2.1153     0.6552 H       
  34 H34            3.0127    -0.2957     0.1817 H       
  35 H35            0.9053    -1.4936    -0.1926 H       
  36 H36           -7.4270     3.9291     0.3168 H       
  37 H37           -4.6808     0.1910    -0.6596 H       
  38 H38           -2.7788    -1.8712    -1.4705 H       
  39 H39           -7.9588    -1.5728    -2.4392 H       
  40 H40           -3.1584    -5.1476    -5.0017 H       
  41 H41           -5.6816    -4.8698    -5.3232 H       
  42 H42           -6.4023     3.1046     2.3963 H       
  43 H43           -6.2479     3.6743    -1.8277 H       
  44 H44           -4.4647    -0.3901     1.7636 H       
  45 H45           -5.3017    -1.6585     0.8368 H       
  46 H46           -3.5989    -1.8768     1.3070 H       
  47 H47            0.7304     3.9506     1.9061 H       
  48 H48            1.8794     4.2036     0.5704 H       
  49 H49            0.1276     4.2782     0.2636 H       
@<TRIPOS>BOND
   1    1    2 ar
   2    1    3 ar
   3    1   10 1
   4    2    7 1
   5    2    6 ar
   6    3    4 ar
   7    3   32 1
   8    4    5 ar
   9    4   33 1
  10    5    6 ar
  11    5   34 1
  12    6   35 1
  13    7    8 2
  14    8    9 1
  15    8   14 1
  16    9   10 am
  17    9   11 1
  18   10   18 2
  19   11   12 ar
  20   11   30 ar
  21   12   29 1
  22   12   26 ar
  23   13   26 ar
  24   13   27 ar
  25   13   36 1
  26   14   15 1
  27   14   28 1
  28   14   37 1
  29   15   16 1
  30   15   38 1
  31   16   17 ar
  32   16   19 ar
  33   17   22 ar
  34   19   20 ar
  35   19   23 1
  36   20   21 ar
  37   20   25 1
  38   21   22 ar
  39   22   39 1
  40   23   24 2
  41   24   25 1
  42   24   40 1
  43   25   41 1
  44   26   42 1
  45   27   30 ar
  46   27   43 1
  47   28   44 1
  48   28   45 1
  49   28   46 1
  50   30   31 1
  51   32   47 1
  52   32   48 1
  53   32   49 1

#	End of record

