#	Name: ASD03730014
#	Creating user name:	WinNT
#	Creation time:	15. 06. 2019 20:43

#	Modifying user name:	WinNT
#	Modification time:	15. 06. 2019 20:43

#	Program:	/corina/corina34_cracker 3.40 0067  02.08.2006

@<TRIPOS>MOLECULE
ASD03730014
  44   47    0    0    0
SMALL
NO_CHARGES


@<TRIPOS>ATOM
   1 O1            -0.0175     1.4361     0.0099 O.3     
   2 C2             0.0021    -0.0041     0.0020 C.3     
   3 C3             1.3444    -0.3156    -0.6742 C.3     
   4 C4             2.1582     0.9230    -0.4116 C.ar    
   5 C5             1.2623     1.9058     0.0002 C.ar    
   6 C6             1.7499     3.1667     0.3297 C.ar    
   7 C7             3.1012     3.4387     0.2373 C.ar    
   8 C8             3.9835     2.4557    -0.1843 C.ar    
   9 C9             3.5054     1.1972    -0.5075 C.ar    
  10 N10            2.1532    -2.4038    -1.1321 N.am    
  11 C11            1.9837    -1.5489    -0.1038 C.2     
  12 C12            1.1824    -0.5928    -2.1392 C.ar    
  13 C13            0.6691     0.1297    -3.1932 C.ar    
  14 C14            0.6578    -0.4136    -4.4655 C.ar    
  15 C15            1.1632    -1.6837    -4.6762 C.ar    
  16 C16            1.6780    -2.4115    -3.6238 C.ar    
  17 C17            1.6936    -1.8725    -2.3396 C.ar    
  18 O18            2.2883    -1.7384     1.0548 O.2     
  19 C19            2.7499    -3.7351    -0.9989 C.3     
  20 C20            1.6520    -4.7588    -0.7027 C.3     
  21 C21            2.2752    -6.1492    -0.5635 C.3     
  22 C22            1.1773    -7.1728    -0.2673 C.3     
  23 C23            1.8004    -8.5632    -0.1282 C.3     
  24 F24            3.5643     4.6665     0.5582 F       
  25 F25            5.3040     2.7248    -0.2792 F       
  26 H26           -0.0195    -0.3970     1.0185 H       
  27 H27           -0.8275    -0.3991    -0.5844 H       
  28 H28            1.0683     3.9369     0.6591 H       
  29 H29            4.1897     0.4287    -0.8356 H       
  30 H30            0.2748     1.1212    -3.0264 H       
  31 H31            0.2548     0.1525    -5.2922 H       
  32 H32            1.1544    -2.1076    -5.6695 H       
  33 H33            2.0703    -3.4029    -3.7961 H       
  34 H34            3.2543    -4.0018    -1.9276 H       
  35 H35            3.4716    -3.7298    -0.1821 H       
  36 H36            1.1476    -4.4921     0.2261 H       
  37 H37            0.9303    -4.7641    -1.5195 H       
  38 H38            2.7795    -6.4159    -1.4923 H       
  39 H39            2.9969    -6.1438     0.2533 H       
  40 H40            0.6729    -6.9061     0.6615 H       
  41 H41            0.4556    -7.1782    -1.0841 H       
  42 H42            2.3048    -8.8299    -1.0569 H       
  43 H43            2.5221    -8.5578     0.6887 H       
  44 H44            1.0183    -9.2924     0.0829 H       
@<TRIPOS>BOND
   1    1    2 1
   2    1    5 1
   3    2    3 1
   4    2   26 1
   5    2   27 1
   6    3    4 1
   7    3   11 1
   8    3   12 1
   9    4    5 ar
  10    4    9 ar
  11    5    6 ar
  12    6    7 ar
  13    6   28 1
  14    7    8 ar
  15    7   24 1
  16    8    9 ar
  17    8   25 1
  18    9   29 1
  19   10   11 am
  20   10   17 1
  21   10   19 1
  22   11   18 2
  23   12   13 ar
  24   12   17 ar
  25   13   14 ar
  26   13   30 1
  27   14   15 ar
  28   14   31 1
  29   15   16 ar
  30   15   32 1
  31   16   17 ar
  32   16   33 1
  33   19   20 1
  34   19   34 1
  35   19   35 1
  36   20   21 1
  37   20   36 1
  38   20   37 1
  39   21   22 1
  40   21   38 1
  41   21   39 1
  42   22   23 1
  43   22   40 1
  44   22   41 1
  45   23   42 1
  46   23   43 1
  47   23   44 1

#	End of record

