#	Name: ASD04590075
#	Creating user name:	WinNT
#	Creation time:	15. 06. 2019 20:50

#	Modifying user name:	WinNT
#	Modification time:	15. 06. 2019 20:50

#	Program:	/corina/corina34_cracker 3.40 0067  02.08.2006

@<TRIPOS>MOLECULE
ASD04590075
  65   65    0    0    0
SMALL
NO_CHARGES


@<TRIPOS>ATOM
   1 C1            -0.0185     1.5142     0.0104 C.2     
   2 C2             0.0021    -0.0041     0.0020 C.3     
   3 C3             1.3855    -0.3746     0.5919 C.3     
   4 C4             2.3047     0.7200    -0.0069 C.3     
   5 C5             1.4210     1.9846    -0.0009 C.3     
   6 O6            -1.0008     2.2165     0.0190 O.2     
   7 C7             1.6896     2.8162    -1.2567 C.3     
   8 C8             0.8799     4.1129    -1.1926 C.3     
   9 C9             1.1485     4.9445    -2.4485 C.3     
  10 C10            0.3388     6.2411    -2.3843 C.3     
  11 C11            0.6074     7.0727    -3.6402 C.3     
  12 C12           -0.2022     8.3693    -3.5761 C.3     
  13 C13            0.0623     9.1884    -4.8131 C.2     
  14 O14           -0.5445    10.3748    -4.9750 O.3     
  15 C15            3.5221     0.9207     0.8584 C.2     
  16 C16            4.7192     0.7503     0.3545 C.2     
  17 C17            5.9366     0.9509     1.2198 C.3     
  18 C18            6.8037    -0.3090     1.1802 C.3     
  19 C19            8.0397    -0.1053     2.0588 C.3     
  20 C20            8.9677    -1.3140     1.9217 C.3     
  21 C21           10.2036    -1.1103     2.8002 C.3     
  22 C22           11.1316    -2.3190     2.6632 C.3     
  23 O23            1.7921    -1.6736     0.1568 O.3     
  24 O24            0.8206     8.7773    -5.6592 O.2     
  25 O25            6.0506    -1.4211     1.6682 O.3     
  26 C26           -0.2426    11.1092    -6.1906 C.3     
  27 C27            7.2413    -0.5820    -0.2602 C.3     
  28 H28           -0.7973    -0.3991     0.6289 H       
  29 H29           -0.0906    -0.3805    -1.0167 H       
  30 H30            1.3711    -0.3161     1.6803 H       
  31 H31            2.5957     0.4610    -1.0249 H       
  32 H32            1.6259     2.5781     0.8902 H       
  33 H33            2.7518     3.0537    -1.3150 H       
  34 H34            1.3955     2.2475    -2.1389 H       
  35 H35           -0.1823     3.8754    -1.1343 H       
  36 H36            1.1740     4.6816    -0.3105 H       
  37 H37            2.2107     5.1819    -2.5067 H       
  38 H38            0.8544     4.3757    -3.3306 H       
  39 H39           -0.7234     6.0037    -2.3261 H       
  40 H40            0.6329     6.8098    -1.5022 H       
  41 H41            1.6696     7.3101    -3.6985 H       
  42 H42            0.3133     6.5040    -4.5223 H       
  43 H43           -1.2645     8.1319    -3.5178 H       
  44 H44            0.0919     8.9381    -2.6940 H       
  45 H45            3.4076     1.2050     1.8940 H       
  46 H46            4.8337     0.4659    -0.6811 H       
  47 H47            6.5111     1.7992     0.8476 H       
  48 H48            5.6249     1.1454     2.2460 H       
  49 H49            8.5663     0.7949     1.7419 H       
  50 H50            7.7325     0.0008     3.0992 H       
  51 H51            8.4410    -2.2142     2.2386 H       
  52 H52            9.2749    -1.4201     0.8813 H       
  53 H53           10.7303    -0.2101     2.4833 H       
  54 H54            9.8964    -1.0042     3.8406 H       
  55 H55           10.6050    -3.2192     2.9801 H       
  56 H56           11.4388    -2.4251     1.6228 H       
  57 H57           12.0121    -2.1739     3.2890 H       
  58 H58            1.1983    -2.3849     0.4337 H       
  59 H59            5.7399    -1.3169     2.5780 H       
  60 H60           -0.7973    12.0474    -6.1955 H       
  61 H61            0.8262    11.3188    -6.2325 H       
  62 H62           -0.5301    10.5126    -7.0564 H       
  63 H63            7.8157     0.2663    -0.6324 H       
  64 H64            7.8590    -1.4796    -0.2884 H       
  65 H65            6.3607    -0.7271    -0.8861 H       
@<TRIPOS>BOND
   1    1    2 1
   2    1    5 1
   3    1    6 2
   4    2    3 1
   5    2   28 1
   6    2   29 1
   7    3    4 1
   8    3   23 1
   9    3   30 1
  10    4    5 1
  11    4   15 1
  12    4   31 1
  13    5    7 1
  14    5   32 1
  15    7    8 1
  16    7   33 1
  17    7   34 1
  18    8    9 1
  19    8   35 1
  20    8   36 1
  21    9   10 1
  22    9   37 1
  23    9   38 1
  24   10   11 1
  25   10   39 1
  26   10   40 1
  27   11   12 1
  28   11   41 1
  29   11   42 1
  30   12   13 1
  31   12   43 1
  32   12   44 1
  33   13   14 1
  34   13   24 2
  35   14   26 1
  36   15   16 2
  37   15   45 1
  38   16   17 1
  39   16   46 1
  40   17   18 1
  41   17   47 1
  42   17   48 1
  43   18   19 1
  44   18   25 1
  45   18   27 1
  46   19   20 1
  47   19   49 1
  48   19   50 1
  49   20   21 1
  50   20   51 1
  51   20   52 1
  52   21   22 1
  53   21   53 1
  54   21   54 1
  55   22   55 1
  56   22   56 1
  57   22   57 1
  58   23   58 1
  59   25   59 1
  60   26   60 1
  61   26   61 1
  62   26   62 1
  63   27   63 1
  64   27   64 1
  65   27   65 1

#	End of record

