#	Name: ASD08150909
#	Creating user name:	WinNT
#	Creation time:	15. 06. 2019 21:16

#	Modifying user name:	WinNT
#	Modification time:	15. 06. 2019 21:16

#	Program:	/corina/corina34_cracker 3.40 0067  02.08.2006

@<TRIPOS>MOLECULE
ASD08150909
  45   49    0    0    0
SMALL
NO_CHARGES


@<TRIPOS>ATOM
   1 N1            -0.2681     1.4079     0.0730 N.2     
   2 C2            -0.6704     0.2762     0.5739 C.2     
   3 N3            -0.3383     0.2070     1.8942 N.pl3   
   4 C4             0.3084     1.3731     2.2173 C.ar    
   5 N5             0.8520     1.8691     3.3239 N.ar    
   6 C6             1.4188     3.0573     3.3185 C.ar    
   7 N7             1.4781     3.8095     2.2349 N.ar    
   8 C8             0.9616     3.3972     1.0817 C.ar    
   9 C9             0.3460     2.1349     1.0371 C.ar    
  10 N10            1.0281     4.1928    -0.0486 N.pl3   
  11 C11            1.6735     5.5064     0.0171 C.3     
  12 C12            2.1570     5.9074    -1.3780 C.3     
  13 N13            0.6026     9.7967     2.1286 N.ar    
  14 N14           -0.2517    10.6582     2.5519 N.ar    
  15 C15           -1.5629    10.4838     2.4655 C.ar    
  16 C16           -2.0812     9.3484     1.9071 C.ar    
  17 C17           -1.1726     8.3842     1.4327 C.ar    
  18 C18           -1.5997     7.1836     0.8417 C.ar    
  19 C19           -0.6774     6.2801     0.3967 C.ar    
  20 C20            0.6850     6.5272     0.5189 C.ar    
  21 C21            1.1458     7.6977     1.0955 C.ar    
  22 C22            0.2135     8.6524     1.5653 C.ar    
  23 F23           -2.9192     6.9231     0.7144 F       
  24 C24            2.6005     7.9483     1.2200 C.ar    
  25 C25            3.1919     8.9987     0.5190 C.ar    
  26 C26            4.5497     9.2283     0.6385 C.ar    
  27 C27            5.3227     8.4171     1.4529 C.ar    
  28 C28            4.7399     7.3724     2.1513 C.ar    
  29 C29            3.3819     7.1381     2.0430 C.ar    
  30 F30            5.4990     6.5847     2.9441 F       
  31 F31            5.1239    10.2454    -0.0405 F       
  32 H32           -1.1910    -0.4944     0.0247 H       
  33 H33           -0.5252    -0.5312     2.4951 H       
  34 H34            1.8513     3.4310     4.2349 H       
  35 H35            0.6475     3.8808    -0.8845 H       
  36 H36            2.5242     5.4596     0.6970 H       
  37 H37            1.3063     5.9542    -2.0578 H       
  38 H38            2.6372     6.8848    -1.3290 H       
  39 H39            2.8720     5.1691    -1.7409 H       
  40 H40           -2.2290    11.2467     2.8405 H       
  41 H41           -3.1480     9.1972     1.8329 H       
  42 H42           -1.0119     5.3588    -0.0568 H       
  43 H43            2.5901     9.6314    -0.1165 H       
  44 H44            6.3833     8.5996     1.5434 H       
  45 H45            2.9277     6.3261     2.5914 H       
@<TRIPOS>BOND
   1    1    2 2
   2    1    9 1
   3    2    3 1
   4    2   32 1
   5    3    4 1
   6    3   33 1
   7    4    5 ar
   8    4    9 ar
   9    5    6 ar
  10    6    7 ar
  11    6   34 1
  12    7    8 ar
  13    8    9 ar
  14    8   10 1
  15   10   11 1
  16   10   35 1
  17   11   12 1
  18   11   20 1
  19   11   36 1
  20   12   37 1
  21   12   38 1
  22   12   39 1
  23   13   14 ar
  24   13   22 ar
  25   14   15 ar
  26   15   16 ar
  27   15   40 1
  28   16   17 ar
  29   16   41 1
  30   17   18 ar
  31   17   22 ar
  32   18   19 ar
  33   18   23 1
  34   19   20 ar
  35   19   42 1
  36   20   21 ar
  37   21   22 ar
  38   21   24 1
  39   24   25 ar
  40   24   29 ar
  41   25   26 ar
  42   25   43 1
  43   26   27 ar
  44   26   31 1
  45   27   28 ar
  46   27   44 1
  47   28   29 ar
  48   28   30 1
  49   29   45 1

#	End of record

