#	Name: ASD01410154
#	Creating user name:	WinNT
#	Creation time:	15. 06. 2019 19:16

#	Modifying user name:	WinNT
#	Modification time:	15. 06. 2019 19:16

#	Program:	/corina/corina34_cracker 3.40 0067  02.08.2006

@<TRIPOS>MOLECULE
ASD01410154
  48   51    0    0    0
SMALL
NO_CHARGES


@<TRIPOS>ATOM
   1 C1            -0.0713     1.4337    -0.5112 C.ar    
   2 C2            -0.0020     0.0534    -0.2787 C.ar    
   3 C3            -1.1337    -0.6609    -0.0108 C.ar    
   4 C4            -2.3682    -0.0235     0.0342 C.ar    
   5 C5            -2.4571     1.3630    -0.1964 C.ar    
   6 C6            -1.2979     2.0907    -0.4647 C.ar    
   7 N7            -3.6552    -0.4564     0.2731 N.pl3   
   8 C8            -4.4753     0.6371     0.1864 C.2     
   9 N9            -3.7657     1.7037    -0.0898 N.2     
  10 C10           -2.8504    -2.7544     0.5026 C.3     
  11 C11           -3.2824    -4.1902     0.8071 C.3     
  12 C12           -3.8979    -4.2516     2.2065 C.3     
  13 C13           -5.1164    -3.3284     2.2687 C.3     
  14 C14           -4.6844    -1.8926     1.9641 C.3     
  15 C15           -4.0688    -1.8312     0.5647 C.3     
  16 C16           -5.9410     0.6172     0.3759 C.ar    
  17 C17           -6.5898     1.7212     0.9324 C.ar    
  18 C18           -7.9564     1.6988     1.1075 C.ar    
  19 C19           -8.6884     0.5797     0.7316 C.ar    
  20 C20           -8.0465    -0.5206     0.1775 C.ar    
  21 C21           -6.6810    -0.5034    -0.0065 C.ar    
  22 O22          -10.0350     0.5611     0.9066 O.3     
  23 C23          -10.7260    -0.6213     0.4982 C.3     
  24 C24            1.1599     2.1938    -0.8001 C.2     
  25 O25            1.1018     3.3904    -1.0020 O.2     
  26 O26            2.3487     1.5608    -0.8402 O.3     
  27 H27            0.9537    -0.4486    -0.3120 H       
  28 H28           -1.0700    -1.7244     0.1663 H       
  29 H29           -1.3523     3.1545    -0.6429 H       
  30 H30           -2.1131    -2.4331     1.2382 H       
  31 H31           -2.4118    -2.7107    -0.4944 H       
  32 H32           -4.0197    -4.5116     0.0715 H       
  33 H33           -2.4143    -4.8480     0.7628 H       
  34 H34           -4.2057    -5.2745     2.4235 H       
  35 H35           -3.1606    -3.9302     2.9422 H       
  36 H36           -5.8537    -3.6498     1.5330 H       
  37 H37           -5.5549    -3.3721     3.2656 H       
  38 H38           -5.5524    -1.2348     2.0084 H       
  39 H39           -3.9471    -1.5712     2.6998 H       
  40 H40           -4.8061    -2.1526    -0.1709 H       
  41 H41           -6.0212     2.5914     1.2256 H       
  42 H42           -8.4590     2.5524     1.5380 H       
  43 H43           -8.6190    -1.3889    -0.1135 H       
  44 H44           -6.1826    -1.3590    -0.4377 H       
  45 H45          -10.5668    -0.7853    -0.5676 H       
  46 H46          -10.3460    -1.4758     1.0581 H       
  47 H47          -11.7921    -0.5045     0.6926 H       
  48 H48            3.1273     2.1008    -1.0332 H       
@<TRIPOS>BOND
   1    1    2 ar
   2    1   24 1
   3    1    6 ar
   4    2    3 ar
   5    2   27 1
   6    3    4 ar
   7    3   28 1
   8    4    5 ar
   9    4    7 1
  10    5    6 ar
  11    5    9 1
  12    6   29 1
  13    7    8 1
  14    7   15 1
  15    8    9 2
  16    8   16 1
  17   10   11 1
  18   10   15 1
  19   10   30 1
  20   10   31 1
  21   11   12 1
  22   11   32 1
  23   11   33 1
  24   12   13 1
  25   12   34 1
  26   12   35 1
  27   13   14 1
  28   13   36 1
  29   13   37 1
  30   14   15 1
  31   14   38 1
  32   14   39 1
  33   15   40 1
  34   16   17 ar
  35   16   21 ar
  36   17   18 ar
  37   17   41 1
  38   18   19 ar
  39   18   42 1
  40   19   20 ar
  41   19   22 1
  42   20   21 ar
  43   20   43 1
  44   21   44 1
  45   22   23 1
  46   23   45 1
  47   23   46 1
  48   23   47 1
  49   24   25 2
  50   24   26 1
  51   26   48 1

#	End of record

