#	Name: ASD03240773
#	Creating user name:	WinNT
#	Creation time:	15. 06. 2019 20:35

#	Modifying user name:	WinNT
#	Modification time:	15. 06. 2019 20:35

#	Program:	/corina/corina34_cracker 3.40 0067  02.08.2006

@<TRIPOS>MOLECULE
ASD03240773
  75   81    0    0    0
SMALL
NO_CHARGES


@<TRIPOS>ATOM
   1 C1            -0.0268     1.4601    -0.2268 C.2     
   2 N2            -0.0196     0.1155    -0.2498 N.2     
   3 C3             1.0929    -0.5725    -0.2547 C.2     
   4 C4             2.3686     0.1402    -0.2346 C.ar    
   5 C5             2.3544     1.5513    -0.2105 C.ar    
   6 N6             1.1299     2.1914    -0.2071 N.pl3   
   7 C7             3.5910    -0.5394    -0.2382 C.ar    
   8 C8             4.7577     0.2183    -0.2176 C.ar    
   9 C9             4.6633     1.6231    -0.1942 C.ar    
  10 N10            3.4868     2.2320    -0.1923 N.ar    
  11 N11            0.7802     3.5470    -0.1861 N.2     
  12 C12           -0.5274     3.6463    -0.1925 C.2     
  13 C13           -1.0753     2.3698    -0.2120 C.2     
  14 C14            6.0836    -0.4451    -0.2198 C.ar    
  15 C15            6.3564    -1.4666     0.6887 C.ar    
  16 C16            7.5922    -2.0807     0.6817 C.ar    
  17 C17            8.5595    -1.6841    -0.2241 C.ar    
  18 C18            8.2947    -0.6707    -1.1276 C.ar    
  19 C19            7.0603    -0.0535    -1.1341 C.ar    
  20 C20           -1.3085     4.9349    -0.1744 C.3     
  21 C21            5.9019     2.4346    -0.1721 C.ar    
  22 C22            5.9504     3.6567    -0.8430 C.ar    
  23 C23            7.1073     4.4082    -0.8188 C.ar    
  24 C24            8.2177     3.9519    -0.1310 C.ar    
  25 C25            8.1758     2.7407     0.5362 C.ar    
  26 C26            7.0229     1.9828     0.5243 C.ar    
  27 C27            9.4783     4.7775    -0.1091 C.3     
  28 N28            9.4453     5.6911     1.0408 N.3     
  29 C29           10.7480     6.3406     1.2344 C.3     
  30 C30           10.7201     7.1695     2.5205 C.3     
  31 C31            9.6136     8.2230     2.4191 C.3     
  32 C32            8.2748     7.5233     2.1693 C.3     
  33 C33            8.3736     6.6841     0.8933 C.3     
  34 C34            9.5416     9.0033     3.7064 C.2     
  35 N35            8.6343     9.9900     3.8464 N.am    
  36 O36           10.3002     8.7433     4.6164 O.2     
  37 C37            8.5096    10.6584     5.0716 C.ar    
  38 C38            7.3022    11.2608     5.4191 C.ar    
  39 C39            7.1848    11.9202     6.6315 C.ar    
  40 C40            8.2641    11.9796     7.4939 C.ar    
  41 C41            9.4624    11.3826     7.1497 C.ar    
  42 C42            9.5859    10.7173     5.9442 C.ar    
  43 O43            6.2419    11.2019     4.5698 O.3     
  44 H44            1.0691    -1.6521    -0.2730 H       
  45 H45            3.6281    -1.6186    -0.2561 H       
  46 H46           -2.1280     2.1285    -0.2172 H       
  47 H47            5.6022    -1.7766     1.3968 H       
  48 H48            7.8047    -2.8723     1.3851 H       
  49 H49            9.5254    -2.1673    -0.2257 H       
  50 H50            9.0538    -0.3649    -1.8324 H       
  51 H51            6.8531     0.7346    -1.8428 H       
  52 H52           -1.4908     5.2636    -1.1976 H       
  53 H53           -2.2609     4.7755     0.3311 H       
  54 H54           -0.7387     5.6977     0.3562 H       
  55 H55            5.0844     4.0137    -1.3804 H       
  56 H56            7.1463     5.3543    -1.3380 H       
  57 H57            9.0458     2.3899     1.0713 H       
  58 H58            6.9899     1.0395     1.0492 H       
  59 H59           10.3426     4.1187    -0.0251 H       
  60 H60            9.5502     5.3554    -1.0304 H       
  61 H61           11.5254     5.5802     1.3091 H       
  62 H62           10.9583     6.9926     0.3866 H       
  63 H63           10.5235     6.5160     3.3704 H       
  64 H64           11.6821     7.6639     2.6558 H       
  65 H65            9.8303     8.9004     1.5931 H       
  66 H66            8.0397     6.8753     3.0137 H       
  67 H67            7.4897     8.2704     2.0536 H       
  68 H68            8.5950     7.3345     0.0471 H       
  69 H69            7.4264     6.1732     0.7204 H       
  70 H70            8.0676    10.2374     3.0991 H       
  71 H71            6.2502    12.3883     6.9032 H       
  72 H72            8.1707    12.4942     8.4389 H       
  73 H73           10.3027    11.4319     7.8263 H       
  74 H74           10.5217    10.2473     5.6801 H       
  75 H75            5.6706    10.4338     4.7066 H       
@<TRIPOS>BOND
   1    1    2 1
   2    1    6 1
   3    1   13 2
   4    2    3 2
   5    3    4 1
   6    3   44 1
   7    4    5 ar
   8    4    7 ar
   9    5    6 1
  10    5   10 ar
  11    6   11 1
  12    7    8 ar
  13    7   45 1
  14    8    9 ar
  15    8   14 1
  16    9   10 ar
  17    9   21 1
  18   11   12 2
  19   12   13 1
  20   12   20 1
  21   13   46 1
  22   14   15 ar
  23   14   19 ar
  24   15   16 ar
  25   15   47 1
  26   16   17 ar
  27   16   48 1
  28   17   18 ar
  29   17   49 1
  30   18   19 ar
  31   18   50 1
  32   19   51 1
  33   20   52 1
  34   20   53 1
  35   20   54 1
  36   21   22 ar
  37   21   26 ar
  38   22   23 ar
  39   22   55 1
  40   23   24 ar
  41   23   56 1
  42   24   25 ar
  43   24   27 1
  44   25   26 ar
  45   25   57 1
  46   26   58 1
  47   27   28 1
  48   27   59 1
  49   27   60 1
  50   28   29 1
  51   28   33 1
  52   29   30 1
  53   29   61 1
  54   29   62 1
  55   30   31 1
  56   30   63 1
  57   30   64 1
  58   31   32 1
  59   31   34 1
  60   31   65 1
  61   32   33 1
  62   32   66 1
  63   32   67 1
  64   33   68 1
  65   33   69 1
  66   34   35 am
  67   34   36 2
  68   35   37 1
  69   35   70 1
  70   37   38 ar
  71   37   42 ar
  72   38   39 ar
  73   38   43 1
  74   39   40 ar
  75   39   71 1
  76   40   41 ar
  77   40   72 1
  78   41   42 ar
  79   41   73 1
  80   42   74 1
  81   43   75 1

#	End of record

