#	Name: ASD07930016
#	Creating user name:	WinNT
#	Creation time:	15. 06. 2019 21:11

#	Modifying user name:	WinNT
#	Modification time:	15. 06. 2019 21:11

#	Program:	/corina/corina34_cracker 3.40 0067  02.08.2006

@<TRIPOS>MOLECULE
ASD07930016
  49   52    0    0    0
SMALL
NO_CHARGES


@<TRIPOS>ATOM
   1 C1            -0.0167     1.3807     0.0096 C.2     
   2 N2             0.0021    -0.0041     0.0020 N.am    
   3 N3             1.2023     2.0320     0.0015 N.pl3   
   4 C4             2.2545     1.5040    -0.8785 C.3     
   5 C5             2.4301    -0.0046    -0.6026 C.3     
   6 C6             1.1260    -0.6674    -0.3006 C.2     
   7 C7             3.6038     2.1081    -0.4355 C.3     
   8 N8             4.2432     1.1401     0.4737 N.3     
   9 C9             3.3350    -0.0129     0.6493 C.3     
  10 C10            4.5423     1.7266     1.6925 C.ar    
  11 N11            5.1230     0.9985     2.6336 N.ar    
  12 C12            5.4244     1.5246     3.8121 C.ar    
  13 C13            5.1254     2.8530     4.0554 C.ar    
  14 C14            4.5132     3.5936     3.0428 C.ar    
  15 N15            4.2449     3.0032     1.8849 N.ar    
  16 F16            5.4186     3.4205     5.2459 F       
  17 C17            6.0848     0.6849     4.8750 C.3     
  18 O18            4.2023     4.8986     3.2374 O.3     
  19 C19            1.9625     1.7955    -2.3280 C.ar    
  20 C20            0.5404     2.7375    -4.0082 C.ar    
  21 C21            1.4257     2.3302    -4.9884 C.ar    
  22 C22            2.5778     1.6504    -4.6407 C.ar    
  23 C23            2.8476     1.3823    -3.3096 C.ar    
  24 N24           -1.1378     2.0425     0.0186 N.2     
  25 C25           -1.2164    -0.7493     0.3279 C.3     
  26 O26            1.0819    -1.8787    -0.3312 O.2     
  27 C27            0.8088     2.4703    -2.6784 C.ar    
  28 C28            3.5776     5.5856     2.1513 C.3     
  29 F29            3.9737     0.7184    -2.9685 F       
  30 H30            1.3581     2.8114     0.5575 H       
  31 H31            2.9183    -0.4925    -1.4462 H       
  32 H32            4.2388     2.2739    -1.3058 H       
  33 H33            3.4343     3.0500     0.0861 H       
  34 H34            2.7352     0.1114     1.5509 H       
  35 H35            3.9056    -0.9403     0.6980 H       
  36 H36            7.1677     0.7556     4.7731 H       
  37 H37            5.7881     1.0461     5.8597 H       
  38 H38            5.7762    -0.3543     4.7610 H       
  39 H39           -0.3595     3.2689    -4.2808 H       
  40 H40            1.2148     2.5392    -6.0268 H       
  41 H41            3.2694     1.3322    -5.4068 H       
  42 H42           -1.9825     1.5657     0.0200 H       
  43 H43           -2.0230    -0.0493     0.5458 H       
  44 H44           -1.4972    -1.3749    -0.5194 H       
  45 H45           -1.0355    -1.3781     1.1996 H       
  46 H46            0.1162     2.7888    -1.9133 H       
  47 H47            3.3831     6.6189     2.4387 H       
  48 H48            4.2363     5.5678     1.2830 H       
  49 H49            2.6367     5.0942     1.9036 H       
@<TRIPOS>BOND
   1    1    2 1
   2    1    3 1
   3    1   24 2
   4    2   25 1
   5    2    6 am
   6    3    4 1
   7    3   30 1
   8    4    7 1
   9    4   19 1
  10    4    5 1
  11    5    6 1
  12    5    9 1
  13    5   31 1
  14    6   26 2
  15    7    8 1
  16    7   32 1
  17    7   33 1
  18    8    9 1
  19    8   10 1
  20    9   34 1
  21    9   35 1
  22   10   11 ar
  23   10   15 ar
  24   11   12 ar
  25   12   13 ar
  26   12   17 1
  27   13   14 ar
  28   13   16 1
  29   14   15 ar
  30   14   18 1
  31   17   36 1
  32   17   37 1
  33   17   38 1
  34   18   28 1
  35   19   27 ar
  36   19   23 ar
  37   20   21 ar
  38   20   27 ar
  39   20   39 1
  40   21   22 ar
  41   21   40 1
  42   22   23 ar
  43   22   41 1
  44   23   29 1
  45   24   42 1
  46   25   43 1
  47   25   44 1
  48   25   45 1
  49   27   46 1
  50   28   47 1
  51   28   48 1
  52   28   49 1

#	End of record

