#	Name: ASD01916562
#	Creating user name:	WinNT
#	Creation time:	15. 06. 2019 20:07

#	Modifying user name:	WinNT
#	Modification time:	15. 06. 2019 20:07

#	Program:	/corina/corina34_cracker 3.40 0067  02.08.2006

@<TRIPOS>MOLECULE
ASD01916562
  42   46    0    0    0
SMALL
NO_CHARGES


@<TRIPOS>ATOM
   1 C1            -0.0171     1.4098     0.0098 C.ar    
   2 C2             0.0021    -0.0041     0.0020 C.ar    
   3 C3            -1.1920    -0.7256     0.0144 C.ar    
   4 C4            -2.3848    -0.0642     0.0325 C.ar    
   5 C5            -2.4222     1.3385     0.0373 C.ar    
   6 C6            -1.2408     2.0763     0.0308 C.ar    
   7 N7             1.1593     2.0843     0.0022 N.2     
   8 C8             2.3063     1.4718    -0.0139 C.2     
   9 N9             2.4129     0.1111    -0.0305 N.am    
  10 C10            1.3112    -0.6712    -0.0204 C.2     
  11 C11           -3.6836     2.0161     0.0535 C.1     
  12 O12            1.4000    -1.8854    -0.0292 O.2     
  13 C13           -4.7178     2.5716     0.0668 C.1     
  14 C14           -5.9792     3.2492     0.0830 C.ar    
  15 C15            3.5781     2.2988    -0.0119 C.3     
  16 C16            4.5231     1.6967     1.0445 C.3     
  17 C17            4.6121     0.1574     1.0164 C.3     
  18 C18            3.7428    -0.5144    -0.0613 C.3     
  19 N19           -6.0145     4.5783     0.0876 N.ar    
  20 C20           -7.1542     5.2378     0.1020 C.ar    
  21 C21           -8.3639     4.5671     0.1129 C.ar    
  22 C22           -8.3743     3.1787     0.1086 C.ar    
  23 C23           -7.1643     2.5089     0.0881 C.ar    
  24 C24            5.7876     1.0068     0.5289 C.3     
  25 C25            4.5565     2.4049     2.4004 C.3     
  26 H26           -1.1719    -1.8054     0.0093 H       
  27 H27           -3.3079    -0.6246     0.0429 H       
  28 H28           -1.2730     3.1559     0.0345 H       
  29 H29            4.0477     2.2574    -0.9947 H       
  30 H30            3.3467     3.3325     0.2451 H       
  31 H31            4.6976    -0.3747     1.9638 H       
  32 H32            3.6533    -1.5801     0.1496 H       
  33 H33            4.1951    -0.3694    -1.0423 H       
  34 H34           -7.1443     6.3178     0.1056 H       
  35 H35           -9.2924     5.1186     0.1250 H       
  36 H36           -9.3067     2.6338     0.1169 H       
  37 H37           -7.1358     1.4293     0.0843 H       
  38 H38            5.9744     1.0372    -0.5445 H       
  39 H39            6.6748     1.0466     1.1609 H       
  40 H40            3.7535     2.0220     3.0302 H       
  41 H41            5.5162     2.2204     2.8831 H       
  42 H42            4.4237     3.4768     2.2538 H       
@<TRIPOS>BOND
   1    1    2 ar
   2    1    7 1
   3    1    6 ar
   4    2    3 ar
   5    2   10 1
   6    3    4 ar
   7    3   26 1
   8    4    5 ar
   9    4   27 1
  10    5    6 ar
  11    5   11 1
  12    6   28 1
  13    7    8 2
  14    8    9 1
  15    8   15 1
  16    9   10 am
  17    9   18 1
  18   10   12 2
  19   11   13 3
  20   13   14 1
  21   14   19 ar
  22   14   23 ar
  23   15   16 1
  24   15   29 1
  25   15   30 1
  26   16   17 1
  27   16   24 1
  28   16   25 1
  29   17   18 1
  30   17   24 1
  31   17   31 1
  32   18   32 1
  33   18   33 1
  34   19   20 ar
  35   20   21 ar
  36   20   34 1
  37   21   22 ar
  38   21   35 1
  39   22   23 ar
  40   22   36 1
  41   23   37 1
  42   24   38 1
  43   24   39 1
  44   25   40 1
  45   25   41 1
  46   25   42 1

#	End of record

