#	Name: ASD02198084
#	Creating user name:	WinNT
#	Creation time:	15. 06. 2019 20:18

#	Modifying user name:	WinNT
#	Modification time:	15. 06. 2019 20:18

#	Program:	/corina/corina34_cracker 3.40 0067  02.08.2006

@<TRIPOS>MOLECULE
ASD02198084
  45   48    0    0    0
SMALL
NO_CHARGES


@<TRIPOS>ATOM
   1 C1            -0.0166     1.3744     0.0096 C.2     
   2 C2             0.0021    -0.0041     0.0020 C.2     
   3 C3            -1.1876    -0.8011     0.0086 C.1     
   4 S4             1.5679     2.0035    -0.0022 S.3     
   5 C5             2.2765     0.3966    -0.0175 C.2     
   6 C6             1.2839    -0.5519    -0.0132 C.2     
   7 C7             3.6608     0.1212    -0.0327 C.2     
   8 C8             4.6296     1.2258    -0.0359 C.2     
   9 O9             4.0530    -1.0347    -0.0430 O.2     
  10 N10            1.5315    -1.9170    -0.0224 N.pl3   
  11 N11           -1.1600     2.1393     0.0193 N.pl3   
  12 N12           -2.1314    -1.4334     0.0139 N.1     
  13 C13            5.9875     1.0812    -0.0501 C.2     
  14 C14            6.6886     2.2573    -0.0503 C.2     
  15 C15            5.9175     3.3822    -0.0364 C.2     
  16 S16            4.2169     2.9351    -0.0299 S.3     
  17 C17            6.4328     4.7664    -0.0328 C.ar    
  18 C18            5.5389     5.8382    -0.0181 C.ar    
  19 C19            6.0375     7.1289    -0.0150 C.ar    
  20 C20            7.4138     7.3080    -0.0267 C.ar    
  21 C21            8.2428     6.2008    -0.0410 C.ar    
  22 N22            7.7441     4.9819    -0.0382 N.ar    
  23 C23           -1.0633     3.6011     0.0268 C.3     
  24 C24           -2.3388     4.2168    -0.5746 C.3     
  25 C25           -2.9728     5.0853     0.5316 C.3     
  26 C26           -1.7892     5.4293     1.4695 C.3     
  27 C27           -0.9667     4.1169     1.4775 C.3     
  28 H28            2.4445    -2.2443    -0.0326 H       
  29 H29            0.7915    -2.5442    -0.0188 H       
  30 H30           -2.0302     1.7108     0.0212 H       
  31 H31            6.4703     0.1152    -0.0599 H       
  32 H32            7.7680     2.2916    -0.0603 H       
  33 H33            4.4733     5.6626    -0.0096 H       
  34 H34            5.3704     7.9782    -0.0040 H       
  35 H35            7.8337     8.3031    -0.0249 H       
  36 H36            9.3141     6.3377    -0.0501 H       
  37 H37           -0.1904     3.9202    -0.5426 H       
  38 H38           -2.0848     4.8354    -1.4354 H       
  39 H39           -3.0298     3.4280    -0.8720 H       
  40 H40           -3.3989     5.9938     0.1061 H       
  41 H41           -3.7346     4.5212     1.0698 H       
  42 H42           -1.2005     6.2517     1.0629 H       
  43 H43           -2.1467     5.6672     2.4714 H       
  44 H44           -1.4045     3.3965     2.1684 H       
  45 H45            0.0712     4.3187     1.7422 H       
@<TRIPOS>BOND
   1    1    2 2
   2    1    4 1
   3    1   11 1
   4    2    3 1
   5    2    6 1
   6    3   12 3
   7    4    5 1
   8    5    6 2
   9    5    7 1
  10    6   10 1
  11    7    8 1
  12    7    9 2
  13    8   13 2
  14    8   16 1
  15   10   28 1
  16   10   29 1
  17   11   23 1
  18   11   30 1
  19   13   14 1
  20   13   31 1
  21   14   15 2
  22   14   32 1
  23   15   16 1
  24   15   17 1
  25   17   18 ar
  26   17   22 ar
  27   18   19 ar
  28   18   33 1
  29   19   20 ar
  30   19   34 1
  31   20   21 ar
  32   20   35 1
  33   21   22 ar
  34   21   36 1
  35   23   24 1
  36   23   27 1
  37   23   37 1
  38   24   25 1
  39   24   38 1
  40   24   39 1
  41   25   26 1
  42   25   40 1
  43   25   41 1
  44   26   27 1
  45   26   42 1
  46   26   43 1
  47   27   44 1
  48   27   45 1

#	End of record

