#	Name: ASD03240203
#	Creating user name:	WinNT
#	Creation time:	15. 06. 2019 20:34

#	Modifying user name:	WinNT
#	Modification time:	15. 06. 2019 20:34

#	Program:	/corina/corina34_cracker 3.40 0067  02.08.2006

@<TRIPOS>MOLECULE
ASD03240203
  91   97    0    0    0
SMALL
NO_CHARGES


@<TRIPOS>ATOM
   1 C1             0.3251     2.3153     1.0989 C.2     
   2 N2             0.4539     1.0499     1.6209 N.pl3   
   3 C3            -2.5121     4.7015     0.5712 C.3     
   4 C4            -1.0467     4.2673     0.5001 C.3     
   5 N5            -0.9094     2.9189     1.0564 N.pl3   
   6 N6             1.3742     2.9447     0.6493 N.2     
   7 N7            -2.6494     6.0498     0.0150 N.pl3   
   8 C8            -3.8964     6.6596    -0.0280 C.ar    
   9 C9            -4.0277     7.9507    -0.5606 C.ar    
  10 C10           -5.2755     8.5566    -0.6018 C.ar    
  11 C11           -6.3930     7.8776    -0.1128 C.ar    
  12 C12           -6.2526     6.5907     0.4164 C.ar    
  13 C13           -5.0153     5.9880     0.4517 C.ar    
  14 C14           -7.7215     8.5177    -0.1539 C.2     
  15 N15           -8.8003     7.8620     0.3182 N.am    
  16 O16           -7.8433     9.6369    -0.6138 O.2     
  17 C17          -10.0413     8.5088     0.3804 C.ar    
  18 C18          -11.2116     7.7851     0.1934 C.ar    
  19 C19          -10.1013     9.8727     0.6346 C.ar    
  20 C20          -11.3244    10.5102     0.6964 C.ar    
  21 C21          -12.4947     9.7875     0.5038 C.ar    
  22 C22          -12.4347     8.4225     0.2542 C.ar    
  23 N23          -13.7341    10.4333     0.5668 N.pl3   
  24 C24          -14.9508     9.7245     0.1626 C.3     
  25 C25          -13.8152    11.8184     1.0371 C.3     
  26 C26           -2.8360     8.6664    -1.0780 C.ar    
  27 C27           -2.8656     9.2511    -2.3427 C.ar    
  28 C28           -1.7540     9.9162    -2.8188 C.ar    
  29 C29           -0.6118    10.0028    -2.0434 C.ar    
  30 C30           -0.5766     9.4240    -0.7875 C.ar    
  31 C31           -1.6844     8.7617    -0.2988 C.ar    
  32 C32          -14.4305    11.8467     2.4125 C.ar    
  33 C33          -15.4352    10.2699    -1.1561 C.ar    
  34 C34          -16.4029    11.2263    -1.1868 C.ar    
  35 C35          -16.8635    11.7426    -2.3967 C.ar    
  36 C36          -16.3588    11.3053    -3.5826 C.ar    
  37 C37          -15.3579    10.3189    -3.5909 C.ar    
  38 C38          -14.8858     9.7977    -2.3605 C.ar    
  39 C39          -15.7649    12.0691     2.5605 C.ar    
  40 C40          -16.3517    12.0988     3.8244 C.ar    
  41 C41          -15.6072    11.9062     4.9472 C.ar    
  42 C42          -14.2259    11.6732     4.8342 C.ar    
  43 C43          -13.6302    11.6377     3.5488 C.ar    
  44 C44          -13.4246    11.4699     5.9707 C.ar    
  45 C45          -12.0902    11.2470     5.8227 C.ar    
  46 C46          -11.5035    11.2175     4.5588 C.ar    
  47 C47          -12.2489    11.4048     3.4357 C.ar    
  48 C48          -14.8126     9.8426    -4.7954 C.ar    
  49 C49          -13.8445     8.8865    -4.7647 C.ar    
  50 C50          -13.3840     8.3701    -3.5548 C.ar    
  51 C51          -13.8849     8.8112    -2.3687 C.ar    
  52 H52            1.3256     0.6256     1.6545 H       
  53 H53           -0.3268     0.5815     1.9555 H       
  54 H54           -3.1250     4.0072    -0.0036 H       
  55 H55           -2.8409     4.7019     1.6104 H       
  56 H56           -0.7179     4.2668    -0.5391 H       
  57 H57           -0.4337     4.9616     1.0749 H       
  58 H58           -1.6895     2.4521     1.3946 H       
  59 H59            1.2833     3.8375     0.2810 H       
  60 H60           -1.8693     6.5167    -0.3233 H       
  61 H61           -5.3817     9.5506    -1.0106 H       
  62 H62           -7.1179     6.0667     0.7947 H       
  63 H63           -4.9122     4.9939     0.8611 H       
  64 H64           -8.7173     6.9422     0.6149 H       
  65 H65          -11.1649     6.7236     0.0001 H       
  66 H66           -9.1913    10.4347     0.7844 H       
  67 H67          -11.3711    11.5708     0.8948 H       
  68 H68          -13.3446     7.8605     0.1044 H       
  69 H69          -14.7343     8.6613     0.0586 H       
  70 H70          -15.7222     9.8659     0.9196 H       
  71 H71          -12.8141    12.2475     1.0780 H       
  72 H72          -14.4318    12.3995     0.3513 H       
  73 H73           -3.7567     9.1835    -2.9493 H       
  74 H74           -1.7759    10.3697    -3.7988 H       
  75 H75            0.2559    10.5240    -2.4201 H       
  76 H76            0.3180     9.4944    -0.1865 H       
  77 H77           -1.6560     8.3105     0.6820 H       
  78 H78          -16.8205    11.5904    -0.2597 H       
  79 H79          -17.6326    12.5008    -2.3931 H       
  80 H80          -16.7259    11.7141    -4.5124 H       
  81 H81          -16.3784    12.2253     1.6855 H       
  82 H82          -17.4130    12.2776     3.9141 H       
  83 H83          -16.0754    11.9326     5.9201 H       
  84 H84          -13.8654    11.4907     6.9565 H       
  85 H85          -11.4767    11.0911     6.6978 H       
  86 H86          -10.4420    11.0393     4.4692 H       
  87 H87          -11.7806    11.3789     2.4628 H       
  88 H88          -15.1601    10.2330    -5.7405 H       
  89 H89          -13.4271     8.5222    -5.6918 H       
  90 H90          -12.6154     7.6114    -3.5584 H       
  91 H91          -13.5182     8.4021    -1.4389 H       
@<TRIPOS>BOND
   1    1    2 1
   2    1    6 2
   3    1    5 1
   4    2   52 1
   5    2   53 1
   6    3    4 1
   7    3    7 1
   8    3   54 1
   9    3   55 1
  10    4    5 1
  11    4   56 1
  12    4   57 1
  13    5   58 1
  14    6   59 1
  15    7    8 1
  16    7   60 1
  17    8    9 ar
  18    8   13 ar
  19    9   10 ar
  20    9   26 1
  21   10   11 ar
  22   10   61 1
  23   11   12 ar
  24   11   14 1
  25   12   13 ar
  26   12   62 1
  27   13   63 1
  28   14   15 am
  29   14   16 2
  30   15   17 1
  31   15   64 1
  32   17   18 ar
  33   17   19 ar
  34   18   22 ar
  35   18   65 1
  36   19   20 ar
  37   19   66 1
  38   20   21 ar
  39   20   67 1
  40   21   22 ar
  41   21   23 1
  42   22   68 1
  43   23   24 1
  44   23   25 1
  45   24   33 1
  46   24   69 1
  47   24   70 1
  48   25   32 1
  49   25   71 1
  50   25   72 1
  51   26   27 ar
  52   26   31 ar
  53   27   28 ar
  54   27   73 1
  55   28   29 ar
  56   28   74 1
  57   29   30 ar
  58   29   75 1
  59   30   31 ar
  60   30   76 1
  61   31   77 1
  62   32   39 ar
  63   32   43 ar
  64   33   34 ar
  65   33   38 ar
  66   34   35 ar
  67   34   78 1
  68   35   36 ar
  69   35   79 1
  70   36   37 ar
  71   36   80 1
  72   37   38 ar
  73   37   48 ar
  74   38   51 ar
  75   39   40 ar
  76   39   81 1
  77   40   41 ar
  78   40   82 1
  79   41   42 ar
  80   41   83 1
  81   42   43 ar
  82   42   44 ar
  83   43   47 ar
  84   44   45 ar
  85   44   84 1
  86   45   46 ar
  87   45   85 1
  88   46   47 ar
  89   46   86 1
  90   47   87 1
  91   48   49 ar
  92   48   88 1
  93   49   50 ar
  94   49   89 1
  95   50   51 ar
  96   50   90 1
  97   51   91 1

#	End of record

