#	Name: ASD05390005
#	Creating user name:	WinNT
#	Creation time:	15. 06. 2019 20:59

#	Modifying user name:	WinNT
#	Modification time:	15. 06. 2019 20:59

#	Program:	/corina/corina34_cracker 3.40 0067  02.08.2006

@<TRIPOS>MOLECULE
ASD05390005
  34   34    0    0    0
SMALL
NO_CHARGES


@<TRIPOS>ATOM
   1 C1            -0.0187     1.5258     0.0104 C.3     
   2 C2             1.4167     2.0553    -0.0004 C.3     
   3 C3             0.0021    -0.0041     0.0020 C.3     
   4 C4            -0.7348     2.0192     1.2692 C.3     
   5 C5            -2.0051     1.6283    -1.3085 C.2     
   6 C6            -4.1165     1.6354    -2.5475 C.3     
   7 C7            -4.2825     0.9995    -3.9313 C.3     
   8 C8            -3.7753     1.9714    -4.9991 C.3     
   9 C9            -2.2881     2.2515    -4.7715 C.3     
  10 C10           -2.0995     2.9016    -3.3972 C.3     
  11 O11           -0.7209     2.0068    -1.1659 O.3     
  12 O12           -2.5249     0.9156    -0.4727 O.2     
  13 N13           -2.7142     2.0400    -2.3781 N.am    
  14 N14           -3.9636     1.3783    -6.3298 N.3     
  15 H15            1.9269     1.7038    -0.8972 H       
  16 H16            1.4019     3.1452     0.0056 H       
  17 H17            1.9439     1.6943     0.8826 H       
  18 H18            0.5293    -0.3651     0.8851 H       
  19 H19           -1.0205    -0.3814     0.0098 H       
  20 H20            0.5123    -0.3556    -0.8948 H       
  21 H21           -0.2076     1.6581     2.1523 H       
  22 H22           -0.7496     3.1091     1.2752 H       
  23 H23           -1.7574     1.6419     1.2770 H       
  24 H24           -4.7615     2.5105    -2.4678 H       
  25 H25           -4.3832     0.9109    -1.7780 H       
  26 H26           -3.7070     0.0749    -3.9781 H       
  27 H27           -5.3359     0.7822    -4.1078 H       
  28 H28           -4.3344     2.9050    -4.9353 H       
  29 H29           -1.7315     1.3151    -4.8104 H       
  30 H30           -1.9219     2.9249    -5.5464 H       
  31 H31           -1.0355     3.0126    -3.1884 H       
  32 H32           -2.5779     3.8810    -3.3876 H       
  33 H33           -3.6362     2.0011    -7.0529 H       
  34 H34           -3.5084     0.4800    -6.3929 H       
@<TRIPOS>BOND
   1    1    3 1
   2    1    2 1
   3    1    4 1
   4    1   11 1
   5    2   15 1
   6    2   16 1
   7    2   17 1
   8    3   18 1
   9    3   19 1
  10    3   20 1
  11    4   21 1
  12    4   22 1
  13    4   23 1
  14    5   13 am
  15    5   11 1
  16    5   12 2
  17    6   13 1
  18    6    7 1
  19    6   24 1
  20    6   25 1
  21    7    8 1
  22    7   26 1
  23    7   27 1
  24    8   14 1
  25    8    9 1
  26    8   28 1
  27    9   29 1
  28    9   30 1
  29    9   10 1
  30   10   31 1
  31   10   32 1
  32   10   13 1
  33   14   33 1
  34   14   34 1

#	End of record

