#	Name: ASD03240930
#	Creating user name:	WinNT
#	Creation time:	15. 06. 2019 20:35

#	Modifying user name:	WinNT
#	Modification time:	15. 06. 2019 20:35

#	Program:	/corina/corina34_cracker 3.40 0067  02.08.2006

@<TRIPOS>MOLECULE
ASD03240930
  80   87    0    0    0
SMALL
NO_CHARGES


@<TRIPOS>ATOM
   1 N1            -0.0165     1.3644     0.0095 N.pl3   
   2 C2             0.0021    -0.0041     0.0020 C.2     
   3 N3             1.1520    -0.7012    -0.0123 N.2     
   4 C4             2.3201    -0.1125    -0.0199 C.2     
   5 C5             2.3794     1.3476    -0.0126 C.ar    
   6 C6             3.5983     2.0343    -0.0192 C.ar    
   7 C7             3.5626     3.4247    -0.0105 C.ar    
   8 C8             2.3154     4.0793     0.0043 C.ar    
   9 N9             1.1813     3.3950     0.0107 N.ar    
  10 C10            1.1694     2.0733     0.0020 C.ar    
  11 C11           -1.3218    -0.4220     0.0124 C.2     
  12 C12           -2.1233     0.7125     0.0262 C.2     
  13 N13           -1.3548     1.7753     0.0302 N.2     
  14 C14            4.8214     4.2080    -0.0164 C.ar    
  15 C15            5.8326     3.9141     0.8970 C.ar    
  16 C16            7.0021     4.6467     0.8868 C.ar    
  17 C17            7.1720     5.6708    -0.0274 C.ar    
  18 C18            6.1720     5.9669    -0.9361 C.ar    
  19 C19            5.0005     5.2374    -0.9391 C.ar    
  20 C20           -3.6302     0.7208     0.0406 C.3     
  21 C21            2.2713     5.5594     0.0135 C.ar    
  22 C22            1.2566     6.2341    -0.6655 C.ar    
  23 C23            1.2206     7.6133    -0.6528 C.ar    
  24 C24            2.1885     8.3271     0.0312 C.ar    
  25 C25            3.1977     7.6638     0.7062 C.ar    
  26 C26            3.2409     6.2846     0.7061 C.ar    
  27 C27            2.1436     9.8334     0.0406 C.3     
  28 N28            1.3450    10.2923     1.1849 N.3     
  29 C29            1.4718    11.7440     1.3668 C.3     
  30 C30            0.7478    12.1641     2.6479 C.3     
  31 C31           -0.7285    11.7707     2.5465 C.3     
  32 C32           -0.8313    10.2615     2.3090 C.3     
  33 C33           -0.0615     9.8965     1.0377 C.3     
  34 N34           -2.5753    13.2062     5.2592 N.2     
  35 N35           -2.1008    13.2256     4.0647 N.2     
  36 C36           -1.4341    12.1278     3.8293 C.2     
  37 N37           -1.4939    11.3647     4.9554 N.pl3   
  38 C38           -2.2333    12.0849     5.8544 C.2     
  39 C39           -2.5808    11.6792     7.2334 C.ar    
  40 C40           -3.3465    12.5234     8.0391 C.ar    
  41 C41           -3.6683    12.1418     9.3239 C.ar    
  42 C42           -3.2313    10.9194     9.8172 C.ar    
  43 C43           -2.4692    10.0768     9.0186 C.ar    
  44 C44           -2.1486    10.4487     7.7305 C.ar    
  45 O45           -3.5496    10.5472    11.0843 O.3     
  46 C46           -3.0677     9.2771    11.5278 C.3     
  47 H47            3.2279    -0.6974    -0.0310 H       
  48 H48            4.5376     1.5015    -0.0303 H       
  49 H49           -1.6666    -1.4455     0.0097 H       
  50 H50            5.7008     3.1150     1.6114 H       
  51 H51            7.7861     4.4201     1.5942 H       
  52 H52            8.0888     6.2417    -0.0314 H       
  53 H53            6.3100     6.7679    -1.6474 H       
  54 H54            4.2223     5.4666    -1.6520 H       
  55 H55           -3.9837     0.7172     1.0716 H       
  56 H56           -3.9935     1.6155    -0.4650 H       
  57 H57           -4.0033    -0.1644    -0.4745 H       
  58 H58            0.5009     5.6780    -1.2004 H       
  59 H59            0.4355     8.1368    -1.1781 H       
  60 H60            3.9508     8.2265     1.2377 H       
  61 H61            4.0266     5.7678     1.2371 H       
  62 H62            3.1568    10.2266     0.1236 H       
  63 H63            1.6905    10.1892    -0.8848 H       
  64 H64            2.5263    12.0098     1.4417 H       
  65 H65            1.0278    12.2570     0.5138 H       
  66 H66            1.2003    11.6619     3.5030 H       
  67 H67            0.8289    13.2437     2.7744 H       
  68 H68           -1.1909    12.3026     1.7151 H       
  69 H69           -0.4036     9.7294     3.1587 H       
  70 H70           -1.8784     9.9818     2.1933 H       
  71 H71           -0.4983    10.4183     0.1862 H       
  72 H72           -0.1207     8.8206     0.8735 H       
  73 H73           -1.0954    10.4909     5.0921 H       
  74 H74           -3.6861    13.4745     7.6564 H       
  75 H75           -4.2607    12.7945     9.9479 H       
  76 H76           -2.1311     9.1269     9.4056 H       
  77 H77           -1.5600     9.7908     7.1084 H       
  78 H78           -3.3921     9.1035    12.5538 H       
  79 H79           -3.4648     8.4926    10.8836 H       
  80 H80           -1.9786     9.2664    11.4843 H       
@<TRIPOS>BOND
   1    1    2 1
   2    1   10 1
   3    1   13 1
   4    2    3 1
   5    2   11 2
   6    3    4 2
   7    4    5 1
   8    4   47 1
   9    5    6 ar
  10    5   10 ar
  11    6    7 ar
  12    6   48 1
  13    7    8 ar
  14    7   14 1
  15    8    9 ar
  16    8   21 1
  17    9   10 ar
  18   11   12 1
  19   11   49 1
  20   12   13 2
  21   12   20 1
  22   14   15 ar
  23   14   19 ar
  24   15   16 ar
  25   15   50 1
  26   16   17 ar
  27   16   51 1
  28   17   18 ar
  29   17   52 1
  30   18   19 ar
  31   18   53 1
  32   19   54 1
  33   20   55 1
  34   20   56 1
  35   20   57 1
  36   21   22 ar
  37   21   26 ar
  38   22   23 ar
  39   22   58 1
  40   23   24 ar
  41   23   59 1
  42   24   25 ar
  43   24   27 1
  44   25   26 ar
  45   25   60 1
  46   26   61 1
  47   27   28 1
  48   27   62 1
  49   27   63 1
  50   28   29 1
  51   28   33 1
  52   29   30 1
  53   29   64 1
  54   29   65 1
  55   30   31 1
  56   30   66 1
  57   30   67 1
  58   31   32 1
  59   31   36 1
  60   31   68 1
  61   32   33 1
  62   32   69 1
  63   32   70 1
  64   33   71 1
  65   33   72 1
  66   34   35 1
  67   34   38 2
  68   35   36 2
  69   36   37 1
  70   37   38 1
  71   37   73 1
  72   38   39 1
  73   39   40 ar
  74   39   44 ar
  75   40   41 ar
  76   40   74 1
  77   41   42 ar
  78   41   75 1
  79   42   43 ar
  80   42   45 1
  81   43   44 ar
  82   43   76 1
  83   44   77 1
  84   45   46 1
  85   46   78 1
  86   46   79 1
  87   46   80 1

#	End of record

