#	Name: ASD04940009
#	Creating user name:	WinNT
#	Creation time:	15. 06. 2019 20:56

#	Modifying user name:	WinNT
#	Modification time:	15. 06. 2019 20:56

#	Program:	/corina/corina34_cracker 3.40 0067  02.08.2006

@<TRIPOS>MOLECULE
ASD04940009
  58   61    0    0    0
SMALL
NO_CHARGES


@<TRIPOS>ATOM
   1 C1            -0.0166     1.3737     0.0096 C.ar    
   2 C2             0.0021    -0.0041     0.0020 C.ar    
   3 C3             1.2095    -0.6866    -0.0132 C.ar    
   4 C4             2.4043     0.0000    -0.0209 C.ar    
   5 C5             2.4068     1.3915    -0.0134 C.ar    
   6 C6             1.1839     2.0803     0.0019 C.ar    
   7 N7             3.4240     2.3263    -0.0177 N.pl3   
   8 C8             2.9126     3.5888    -0.0057 C.2     
   9 C9             1.5202     3.5166     0.0072 C.2     
  10 C10            3.7043     4.8319    -0.0054 C.ar    
  11 C11            4.7947     4.9692    -0.8700 C.ar    
  12 C12            5.5316     6.1326    -0.8661 C.ar    
  13 C13            5.1933     7.1691    -0.0043 C.ar    
  14 C14            4.1104     7.0372     0.8568 C.ar    
  15 C15            3.3639     5.8799     0.8555 C.ar    
  16 C16            0.6150     4.5995     0.0220 C.2     
  17 O17            1.0325     5.7402     0.0243 O.2     
  18 C18           -0.8696     4.3405     0.0348 C.3     
  19 N19           -1.5899     5.6207     0.0488 N.3     
  20 C20           -3.0273     5.4185    -0.1767 C.3     
  21 C21           -3.6932     6.7518    -0.4002 C.2     
  22 N22           -5.0200     6.8124    -0.6290 N.am    
  23 C23           -1.3507     6.3455     1.3040 C.3     
  24 C24           -5.6923     8.1026    -0.8500 C.3     
  25 C25           -6.5348     7.9964    -2.1263 C.3     
  26 O26           -7.3801     6.8469    -2.0380 O.3     
  27 C27           -6.6743     5.6067    -1.9509 C.3     
  28 C28           -5.8381     5.5900    -0.6712 C.3     
  29 O29           -3.0351     7.7702    -0.3742 O.2     
  30 O30            5.9232     8.3139    -0.0033 O.3     
  31 C31            5.5208     9.3391     0.9073 C.3     
  32 H32           -0.9578     1.9035     0.0169 H       
  33 H33           -0.9270    -0.5546     0.0083 H       
  34 H34            1.2133    -1.7666    -0.0187 H       
  35 H35            3.3385    -0.5417    -0.0324 H       
  36 H36            4.3703     2.1133    -0.0278 H       
  37 H37            5.0587     4.1640    -1.5396 H       
  38 H38            6.3739     6.2396    -1.5336 H       
  39 H39            3.8512     7.8453     1.5248 H       
  40 H40            2.5199     5.7800     1.5218 H       
  41 H41           -1.1477     3.7768    -0.8558 H       
  42 H42           -1.1306     3.7669     0.9241 H       
  43 H43           -3.1723     4.7883    -1.0541 H       
  44 H44           -3.4673     4.9342     0.6951 H       
  45 H45           -0.2843     6.5434     1.4118 H       
  46 H46           -1.8956     7.2895     1.2879 H       
  47 H47           -1.6949     5.7416     2.1436 H       
  48 H48           -6.3380     8.3301    -0.0018 H       
  49 H49           -4.9473     8.8897    -0.9663 H       
  50 H50           -7.1475     8.8915    -2.2336 H       
  51 H51           -5.8768     7.8990    -2.9898 H       
  52 H52           -7.3874     4.7825    -1.9321 H       
  53 H53           -6.0168     5.5006    -2.8138 H       
  54 H54           -5.1895     4.7140    -0.6693 H       
  55 H55           -6.4987     5.5602     0.1953 H       
  56 H56            4.4986     9.6437     0.6830 H       
  57 H57            5.5710     8.9588     1.9276 H       
  58 H58            6.1860    10.1966     0.8060 H       
@<TRIPOS>BOND
   1    1    2 ar
   2    1    6 ar
   3    1   32 1
   4    2    3 ar
   5    2   33 1
   6    3    4 ar
   7    3   34 1
   8    4    5 ar
   9    4   35 1
  10    5    7 1
  11    5    6 ar
  12    6    9 1
  13    7    8 1
  14    7   36 1
  15    8    9 2
  16    8   10 1
  17    9   16 1
  18   10   11 ar
  19   10   15 ar
  20   11   12 ar
  21   11   37 1
  22   12   13 ar
  23   12   38 1
  24   13   14 ar
  25   13   30 1
  26   14   15 ar
  27   14   39 1
  28   15   40 1
  29   16   17 2
  30   16   18 1
  31   18   19 1
  32   18   41 1
  33   18   42 1
  34   19   20 1
  35   19   23 1
  36   20   21 1
  37   20   43 1
  38   20   44 1
  39   21   22 am
  40   21   29 2
  41   22   24 1
  42   22   28 1
  43   23   45 1
  44   23   46 1
  45   23   47 1
  46   24   25 1
  47   24   48 1
  48   24   49 1
  49   25   26 1
  50   25   50 1
  51   25   51 1
  52   26   27 1
  53   27   28 1
  54   27   52 1
  55   27   53 1
  56   28   54 1
  57   28   55 1
  58   30   31 1
  59   31   56 1
  60   31   57 1
  61   31   58 1

#	End of record

