#	Name: ASD04882426
#	Creating user name:	WinNT
#	Creation time:	15. 06. 2019 20:54

#	Modifying user name:	WinNT
#	Modification time:	15. 06. 2019 20:54

#	Program:	/corina/corina34_cracker 3.40 0067  02.08.2006

@<TRIPOS>MOLECULE
ASD04882426
  77   81    0    0    0
SMALL
NO_CHARGES


@<TRIPOS>ATOM
   1 C1            -0.0888     1.4876     0.4624 C.ar    
   2 C2            -0.1131     0.0910     0.4165 C.ar    
   3 C3            -1.3229    -0.5883     0.5033 C.ar    
   4 C4            -2.5015     0.1120     0.6348 C.ar    
   5 C5            -2.4844     1.5088     0.6809 C.ar    
   6 C6            -1.2688     2.1940     0.6001 C.ar    
   7 N7             1.0761    -0.6211     0.2832 N.3     
   8 C8             1.2827    -1.5202     1.4271 C.3     
   9 C9             1.1035    -1.3683    -0.9820 C.3     
  10 C10            2.4552    -2.0716    -1.1268 C.3     
  11 N11            2.6617    -2.9707     0.0171 N.3     
  12 C12            2.6343    -2.2235     1.2822 C.3     
  13 C13           -3.7471     2.2587     0.8213 C.2     
  14 O14           -3.7313     3.4739     0.8613 O.2     
  15 N15           -4.9182     1.5969     0.9052 N.am    
  16 N16            1.1312     2.1709     0.3748 N.am    
  17 C17            1.1504     3.4743     0.0325 C.2     
  18 O18            0.1214     4.0305    -0.3035 O.2     
  19 C19            2.4122     4.2228     0.0651 C.2     
  20 C20            2.5732     5.5664    -0.1270 C.2     
  21 N21            3.8730     5.8409    -0.0146 N.2     
  22 C22            4.5356     4.7411     0.2377 C.2     
  23 N23            3.6732     3.7109     0.3019 N.pl3   
  24 C24            3.8545    -3.6849    -0.1166 C.ar    
  25 C25            5.0650    -3.0086    -0.2040 C.ar    
  26 C26            3.8338    -5.0731    -0.1568 C.ar    
  27 C27            5.0153    -5.7763    -0.2892 C.ar    
  28 C28            6.2176    -5.0999    -0.3812 C.ar    
  29 C29            6.2424    -3.7178    -0.3362 C.ar    
  30 C30            2.5239    -5.8112    -0.0556 C.3     
  31 C31           -6.1721     2.3416     1.0446 C.3     
  32 C32           -7.3431     1.3596     1.1175 C.3     
  33 C33           -8.6526     2.1373     1.2631 C.3     
  34 N34           -9.7738     1.1970     1.3330 N.am    
  35 C35          -10.2542     0.6729     2.4738 C.2     
  36 C36          -10.5209     0.7111     0.1669 C.3     
  37 C37          -11.2777    -0.5437     0.6560 C.3     
  38 C38          -11.4035    -0.2635     2.1726 C.3     
  39 O39           -9.8277     0.9149     3.5830 O.2     
  40 C40            4.0088     2.3093     0.5649 C.3     
  41 H41           -1.3387    -1.6676     0.4672 H       
  42 H42           -3.4398    -0.4186     0.7020 H       
  43 H43           -1.2525     3.2733     0.6354 H       
  44 H44            1.2708    -0.9419     2.3509 H       
  45 H45            0.4866    -2.2643     1.4532 H       
  46 H46            0.3054    -2.1107    -0.9832 H       
  47 H47            0.9610    -0.6793    -1.8144 H       
  48 H48            2.4670    -2.6499    -2.0507 H       
  49 H49            3.2513    -1.3275    -1.1529 H       
  50 H50            3.4324    -1.4811     1.2835 H       
  51 H51            2.7768    -2.9125     2.1147 H       
  52 H52           -4.9308     0.6275     0.8732 H       
  53 H53            1.9619     1.7058     0.5604 H       
  54 H54            1.7879     6.2785    -0.3331 H       
  55 H55            5.6045     4.6722     0.3765 H       
  56 H56            5.0850    -1.9294    -0.1690 H       
  57 H57            4.9999    -6.8558    -0.3205 H       
  58 H58            7.1400    -5.6522    -0.4839 H       
  59 H59            7.1832    -3.1925    -0.4084 H       
  60 H60            2.1115    -5.9581    -1.0539 H       
  61 H61            2.6883    -6.7802     0.4158 H       
  62 H62            1.8243    -5.2293     0.5444 H       
  63 H63           -6.1409     2.9382     1.9563 H       
  64 H64           -6.3019     2.9987     0.1846 H       
  65 H65           -7.3742     0.7630     0.2058 H       
  66 H66           -7.2132     0.7025     1.9775 H       
  67 H67           -8.6214     2.7339     2.1748 H       
  68 H68           -8.7824     2.7944     0.4032 H       
  69 H69          -11.2270     1.4694    -0.1714 H       
  70 H70           -9.8346     0.4478    -0.6379 H       
  71 H71          -12.2610    -0.6122     0.1907 H       
  72 H72          -10.6963    -1.4468     0.4706 H       
  73 H73          -11.3016    -1.1880     2.7411 H       
  74 H74          -12.3559     0.2184     2.3938 H       
  75 H75            3.8396     2.0867     1.6184 H       
  76 H76            3.3800     1.6639    -0.0485 H       
  77 H77            5.0565     2.1345     0.3203 H       
@<TRIPOS>BOND
   1    1    2 ar
   2    1   16 1
   3    1    6 ar
   4    2    3 ar
   5    2    7 1
   6    3    4 ar
   7    3   41 1
   8    4    5 ar
   9    4   42 1
  10    5    6 ar
  11    5   13 1
  12    6   43 1
  13    7    8 1
  14    7    9 1
  15    8   12 1
  16    8   44 1
  17    8   45 1
  18    9   10 1
  19    9   46 1
  20    9   47 1
  21   10   11 1
  22   10   48 1
  23   10   49 1
  24   11   12 1
  25   11   24 1
  26   12   50 1
  27   12   51 1
  28   13   14 2
  29   13   15 am
  30   15   31 1
  31   15   52 1
  32   16   17 am
  33   16   53 1
  34   17   18 2
  35   17   19 1
  36   19   20 2
  37   19   23 1
  38   20   21 1
  39   20   54 1
  40   21   22 2
  41   22   23 1
  42   22   55 1
  43   23   40 1
  44   24   25 ar
  45   24   26 ar
  46   25   29 ar
  47   25   56 1
  48   26   27 ar
  49   26   30 1
  50   27   28 ar
  51   27   57 1
  52   28   29 ar
  53   28   58 1
  54   29   59 1
  55   30   60 1
  56   30   61 1
  57   30   62 1
  58   31   32 1
  59   31   63 1
  60   31   64 1
  61   32   33 1
  62   32   65 1
  63   32   66 1
  64   33   34 1
  65   33   67 1
  66   33   68 1
  67   34   35 am
  68   34   36 1
  69   35   39 2
  70   35   38 1
  71   36   37 1
  72   36   69 1
  73   36   70 1
  74   37   38 1
  75   37   71 1
  76   37   72 1
  77   38   73 1
  78   38   74 1
  79   40   75 1
  80   40   76 1
  81   40   77 1

#	End of record

