#	Name: ASD01152213
#	Creating user name:	WinNT
#	Creation time:	15. 06. 2019 19:05

#	Modifying user name:	WinNT
#	Modification time:	15. 06. 2019 19:05

#	Program:	/corina/corina34_cracker 3.40 0067  02.08.2006

@<TRIPOS>MOLECULE
ASD01152213
  39   40    0    0    0
SMALL
NO_CHARGES


@<TRIPOS>ATOM
   1 C1             2.1027     5.6287    -1.3646 C.2     
   2 C2             3.2000     6.0841    -2.2918 C.3     
   3 O3             2.3808     5.0798    -0.3194 O.2     
   4 N4             0.8125     5.8363    -1.6943 N.am    
   5 C5            -0.2075     5.3092    -0.8946 C.ar    
   6 C6            -1.4092     5.9903    -0.7632 C.ar    
   7 C7            -2.4183     5.4642     0.0309 C.ar    
   8 C8            -2.2224     4.2574     0.6917 C.ar    
   9 C9            -1.0248     3.5822     0.5591 C.ar    
  10 C10           -0.0203     4.1006    -0.2359 C.ar    
  11 N11           -4.8361     5.4599    -0.0205 N.2     
  12 N12           -3.6314     6.1481     0.1664 N.am    
  13 C13           -3.6235     7.4569     0.4748 C.2     
  14 N14           -4.7717     8.1456     0.6133 N.am    
  15 C15           -5.9572     7.5242     0.4430 C.2     
  16 C16           -5.9727     6.0928     0.1056 C.2     
  17 O17           -6.9996     8.1399     0.5669 O.2     
  18 O18           -2.5612     8.0278     0.6316 O.2     
  19 O19           -7.1499     5.4389    -0.0732 O.3     
  20 C20           -7.0772     4.0496    -0.3998 C.3     
  21 C21           -4.7342     9.5709     0.9498 C.3     
  22 C22           -4.6928    10.3853    -0.3175 C.2     
  23 C23           -5.5922    11.3139    -0.5291 C.2     
  24 H24            4.1687     5.8361    -1.8577 H       
  25 H25            3.0940     5.5829    -3.2539 H       
  26 H26            3.1311     7.1625    -2.4343 H       
  27 H27            0.5910     6.3512    -2.4860 H       
  28 H28           -1.5588     6.9282    -1.2775 H       
  29 H29           -3.0073     3.8473     1.3099 H       
  30 H30           -0.8747     2.6450     1.0742 H       
  31 H31            0.9131     3.5676    -0.3417 H       
  32 H32           -6.5635     3.5149     0.3991 H       
  33 H33           -8.0849     3.6502    -0.5150 H       
  34 H34           -6.5278     3.9240    -1.3328 H       
  35 H35           -5.6247     9.8330     1.5211 H       
  36 H36           -3.8457     9.7804     1.5454 H       
  37 H37           -3.9216    10.2034    -1.0514 H       
  38 H38           -6.3635    11.4959     0.2048 H       
  39 H39           -5.5626    11.8975    -1.4373 H       
@<TRIPOS>BOND
   1    1    2 1
   2    1    3 2
   3    1    4 am
   4    2   24 1
   5    2   25 1
   6    2   26 1
   7    4    5 1
   8    4   27 1
   9    5    6 ar
  10    5   10 ar
  11    6    7 ar
  12    6   28 1
  13    7    8 ar
  14    7   12 1
  15    8    9 ar
  16    8   29 1
  17    9   10 ar
  18    9   30 1
  19   10   31 1
  20   11   12 1
  21   11   16 2
  22   12   13 am
  23   13   14 am
  24   13   18 2
  25   14   15 am
  26   14   21 1
  27   15   16 1
  28   15   17 2
  29   16   19 1
  30   19   20 1
  31   20   32 1
  32   20   33 1
  33   20   34 1
  34   21   22 1
  35   21   35 1
  36   21   36 1
  37   22   23 2
  38   22   37 1
  39   23   38 1
  40   23   39 1

#	End of record

