#	Name: ASD05720046
#	Creating user name:	WinNT
#	Creation time:	15. 06. 2019 21:01

#	Modifying user name:	WinNT
#	Modification time:	15. 06. 2019 21:01

#	Program:	/corina/corina34_cracker 3.40 0067  02.08.2006

@<TRIPOS>MOLECULE
ASD05720046
  45   49    0    0    0
SMALL
NO_CHARGES


@<TRIPOS>ATOM
   1 O1            -0.0839     1.1459     0.0705 O.3     
   2 C2             0.0849    -0.1801     0.0213 C.2     
   3 N3             1.3687    -0.5617    -0.0246 N.am    
   4 C4             2.2222     0.6361    -0.0060 C.3     
   5 C5             1.2169     1.8021     0.0592 C.3     
   6 O6            -0.8410    -0.9667     0.0191 O.2     
   7 C7             3.0595     0.7193    -1.2839 C.3     
   8 C8             4.0070     1.9174    -1.1957 C.3     
   9 C9             3.5579    -3.3802    -0.2842 C.2     
  10 N10            3.1071    -2.1231    -0.2284 N.2     
  11 C11            1.8196    -1.8739    -0.0802 C.2     
  12 C12            0.9019    -2.9392     0.0222 C.2     
  13 C13            1.3546    -4.2123    -0.0334 C.2     
  14 N14            2.6941    -4.4389    -0.1879 N.pl3   
  15 N15            3.4446    -5.6165    -0.2780 N.2     
  16 C16            4.7110    -5.3126    -0.4230 C.2     
  17 C17            4.8422    -3.9187    -0.4396 C.2     
  18 C18            6.1020    -3.1566    -0.5908 C.ar    
  19 C19            7.2044    -3.4639     0.2088 C.ar    
  20 C20            8.3761    -2.7545     0.0676 C.ar    
  21 C21            8.4617    -1.7290    -0.8740 C.ar    
  22 C22            7.3607    -1.4214    -1.6731 C.ar    
  23 C23            6.1902    -2.1338    -1.5370 C.ar    
  24 N24           11.2491     0.4527    -1.6796 N.pl3   
  25 N25            9.9273     0.0195    -1.8734 N.2     
  26 C26            9.7238    -0.9650    -1.0252 C.2     
  27 N27           10.8459    -1.1627    -0.3197 N.2     
  28 C28           11.7652    -0.3176    -0.7051 C.2     
  29 H29            2.8647     0.6348     0.8745 H       
  30 H30            1.3151     2.4409    -0.8185 H       
  31 H31            1.3611     2.3803     0.9719 H       
  32 H32            3.6406    -0.1959    -1.3977 H       
  33 H33            2.3999     0.8401    -2.1432 H       
  34 H34            4.6656     1.9244    -2.0642 H       
  35 H35            3.4259     2.8392    -1.1729 H       
  36 H36            4.6045     1.8420    -0.2872 H       
  37 H37           -0.1526    -2.7404     0.1443 H       
  38 H38            0.6660    -5.0407     0.0437 H       
  39 H39            5.5205    -6.0212    -0.5179 H       
  40 H40            7.1382    -4.2577     0.9381 H       
  41 H41            9.2289    -2.9919     0.6863 H       
  42 H42            7.4276    -0.6272    -2.4020 H       
  43 H43            5.3393    -1.8987    -2.1592 H       
  44 H44           11.7022     1.1648    -2.1576 H       
  45 H45           12.7677    -0.2496    -0.3093 H       
@<TRIPOS>BOND
   1    1    2 1
   2    1    5 1
   3    2    3 am
   4    2    6 2
   5    3    4 1
   6    3   11 1
   7    4    5 1
   8    4    7 1
   9    4   29 1
  10    5   30 1
  11    5   31 1
  12    7    8 1
  13    7   32 1
  14    7   33 1
  15    8   34 1
  16    8   35 1
  17    8   36 1
  18    9   10 1
  19    9   14 1
  20    9   17 2
  21   10   11 2
  22   11   12 1
  23   12   13 2
  24   12   37 1
  25   13   14 1
  26   13   38 1
  27   14   15 1
  28   15   16 2
  29   16   17 1
  30   16   39 1
  31   17   18 1
  32   18   19 ar
  33   18   23 ar
  34   19   20 ar
  35   19   40 1
  36   20   21 ar
  37   20   41 1
  38   21   22 ar
  39   21   26 1
  40   22   23 ar
  41   22   42 1
  42   23   43 1
  43   24   25 1
  44   24   28 1
  45   24   44 1
  46   25   26 2
  47   26   27 1
  48   27   28 2
  49   28   45 1

#	End of record

