#	Name: ASD01813621
#	Creating user name:	WinNT
#	Creation time:	15. 06. 2019 19:30

#	Modifying user name:	WinNT
#	Modification time:	15. 06. 2019 19:30

#	Program:	/corina/corina34_cracker 3.40 0067  02.08.2006

@<TRIPOS>MOLECULE
ASD01813621
  66   71    0    0    0
SMALL
NO_CHARGES


@<TRIPOS>ATOM
   1 C1            -0.0178     1.4648     0.0101 C.3     
   2 N2             0.0021    -0.0041     0.0020 N.3     
   3 C3             0.5317    -0.5147    -1.2639 C.3     
   4 N4             0.5865    -1.9769    -1.2590 N.am    
   5 C5             0.2846    -2.7308    -2.4784 C.3     
   6 H6             0.0418    -2.0374    -3.2835 H       
   7 C7             1.5027    -3.5671    -2.8756 C.3     
   8 C8             1.1875    -4.3544    -4.1490 C.3     
   9 C9            -0.0049    -5.2788    -3.8951 C.3     
  10 C10           -1.2230    -4.4425    -3.4979 C.3     
  11 C11           -0.9078    -3.6552    -2.2244 C.3     
  12 H12           -0.6650    -4.3486    -1.4193 H       
  13 O13           -2.0455    -2.8741    -1.8535 O.3     
  14 C14            0.9186    -2.6280    -0.1192 C.2     
  15 O15            1.0150    -3.8400    -0.0883 O.2     
  16 C16            1.1596    -1.8075     1.0849 C.ar    
  17 C17            1.8491    -2.3304     2.1895 C.ar    
  18 C18            2.0683    -1.5677     3.2913 C.ar    
  19 C19            2.8102    -2.1457     4.4688 C.3     
  20 C20            1.8212    -2.6770     5.4741 C.ar    
  21 C21            1.3322    -1.8533     6.4784 C.ar    
  22 C22            0.4255    -2.3796     7.3817 C.ar    
  23 C23            0.0366    -3.7114     7.2526 C.ar    
  24 N24            0.5279    -4.4657     6.2778 N.ar    
  25 C25            1.3881    -3.9876     5.4012 C.ar    
  26 C26           -0.9340    -4.2907     8.2130 C.2     
  27 C27           -1.5433    -3.6169     9.2902 C.2     
  28 N28           -2.3326    -4.4598     9.9011 N.2     
  29 N29           -2.2597    -5.6942     9.2446 N.pl3   
  30 C30           -2.9922    -6.9078     9.6144 C.3     
  31 C31           -1.4045    -5.5723     8.2108 C.2     
  32 C32            1.6058    -0.2391     3.3378 C.ar    
  33 C33            1.8243     0.5650     4.4725 C.ar    
  34 C34            1.3515     1.8463     4.4573 C.ar    
  35 C35            0.6738     2.3234     3.3371 C.ar    
  36 N36            0.4724     1.5708     2.2829 N.ar    
  37 C37            0.9081     0.3098     2.2349 C.ar    
  38 C38            0.6833    -0.4952     1.0962 C.ar    
  39 H39            0.9869     1.8407     0.2030 H       
  40 H40           -0.3624     1.8288    -0.9578 H       
  41 H41           -0.6928     1.8147     0.7911 H       
  42 H42           -0.1105    -0.1834    -2.0800 H       
  43 H43            1.5359    -0.1195    -1.4170 H       
  44 H44            2.3522    -2.9085    -3.0565 H       
  45 H45            1.7456    -4.2605    -2.0704 H       
  46 H46            0.9447    -3.6610    -4.9542 H       
  47 H47            2.0553    -4.9502    -4.4320 H       
  48 H48           -0.2295    -5.8398    -4.8023 H       
  49 H49            0.2379    -5.9723    -3.0899 H       
  50 H50           -1.4659    -3.7491    -4.3030 H       
  51 H51           -2.0725    -5.1011    -3.3169 H       
  52 H52           -2.8402    -3.3960    -1.6769 H       
  53 H53            2.2082    -3.3486     2.1633 H       
  54 H54            3.4547    -2.9567     4.1296 H       
  55 H55            3.4177    -1.3686     4.9326 H       
  56 H56            1.6524    -0.8246     6.5535 H       
  57 H57            0.0251    -1.7668     8.1758 H       
  58 H58            1.7630    -4.6297     4.6179 H       
  59 H59           -1.3850    -2.5841     9.5633 H       
  60 H60           -3.9490    -6.9279     9.0926 H       
  61 H61           -2.4076    -7.7844     9.3351 H       
  62 H62           -3.1650    -6.9142    10.6906 H       
  63 H63           -1.1374    -6.3486     7.5092 H       
  64 H64            2.3515     0.1788     5.3324 H       
  65 H65            1.5023     2.4887     5.3123 H       
  66 H66            0.3051     3.3385     3.3376 H       
@<TRIPOS>BOND
   1    1    2 1
   2    1   39 1
   3    1   40 1
   4    1   41 1
   5    2   38 1
   6    2    3 1
   7    3    4 1
   8    3   42 1
   9    3   43 1
  10    4    5 1
  11    4   14 am
  12    5    6 1
  13    5   11 1
  14    5    7 1
  15    7    8 1
  16    7   44 1
  17    7   45 1
  18    8    9 1
  19    8   46 1
  20    8   47 1
  21    9   10 1
  22    9   48 1
  23    9   49 1
  24   10   11 1
  25   10   50 1
  26   10   51 1
  27   11   12 1
  28   11   13 1
  29   13   52 1
  30   14   15 2
  31   14   16 1
  32   16   38 ar
  33   16   17 ar
  34   17   18 ar
  35   17   53 1
  36   18   19 1
  37   18   32 ar
  38   19   20 1
  39   19   54 1
  40   19   55 1
  41   20   25 ar
  42   20   21 ar
  43   21   22 ar
  44   21   56 1
  45   22   23 ar
  46   22   57 1
  47   23   24 ar
  48   23   26 1
  49   24   25 ar
  50   25   58 1
  51   26   31 2
  52   26   27 1
  53   27   28 2
  54   27   59 1
  55   28   29 1
  56   29   30 1
  57   29   31 1
  58   30   60 1
  59   30   61 1
  60   30   62 1
  61   31   63 1
  62   32   37 ar
  63   32   33 ar
  64   33   34 ar
  65   33   64 1
  66   34   35 ar
  67   34   65 1
  68   35   36 ar
  69   35   66 1
  70   36   37 ar
  71   37   38 ar

#	End of record

