#	Name: ASD01150795
#	Creating user name:	WinNT
#	Creation time:	15. 06. 2019 19:05

#	Modifying user name:	WinNT
#	Modification time:	15. 06. 2019 19:05

#	Program:	/corina/corina34_cracker 3.40 0067  02.08.2006

@<TRIPOS>MOLECULE
ASD01150795
  48   49    0    0    0
SMALL
NO_CHARGES


@<TRIPOS>ATOM
   1 N1            -0.0179     1.4659     0.0101 N.3     
   2 C2             0.0021    -0.0041     0.0020 C.3     
   3 C3             0.7497    -0.4921    -1.2417 C.3     
   4 O4             2.0659     0.0673    -1.2506 O.3     
   5 C5             2.0838     1.4973    -1.2437 C.3     
   6 C6             1.3496     2.0055    -0.0001 C.3     
   7 C7            -0.7765     1.9758     1.1601 C.3     
   8 C8             0.6633     5.2561     2.0254 C.ar    
   9 N9             0.4770     3.9478     1.9195 N.ar    
  10 C10           -0.5725     3.4644     1.2763 C.ar    
  11 C11           -1.4826     4.3436     0.7098 C.ar    
  12 C12           -1.2576     5.7051     0.8393 C.ar    
  13 N13           -0.1878     6.1229     1.4954 N.ar    
  14 C14           -2.2201     6.6974     0.2392 C.3     
  15 S15            2.0715     5.8567     2.8976 S.3     
  16 C16            1.8127     7.6396     2.7227 C.3     
  17 C17            2.8758     8.3906     3.5269 C.3     
  18 C18            2.6887     8.0986     5.0171 C.3     
  19 C19            3.8247     8.7476     5.8104 C.3     
  20 C20            1.3487     8.6703     5.4846 C.3     
  21 C21            1.9205     8.0283     1.2469 C.3     
  22 H22            0.5087    -0.3661     0.8967 H       
  23 H23           -1.0202    -0.3818    -0.0162 H       
  24 H24            0.8167    -1.5799    -1.2226 H       
  25 H25            0.2136    -0.1754    -2.1363 H       
  26 H26            3.1155     1.8483    -1.2262 H       
  27 H27            1.5864     1.8718    -2.1384 H       
  28 H28            1.3110     3.0946    -0.0198 H       
  29 H29            1.8778     1.6756     0.8946 H       
  30 H30           -1.8364     1.7643     1.0189 H       
  31 H31           -0.4270     1.4890     2.0706 H       
  32 H32           -2.3480     3.9755     0.1789 H       
  33 H33           -2.9914     6.9426     0.9693 H       
  34 H34           -1.6816     7.6034    -0.0386 H       
  35 H35           -2.6834     6.2639    -0.6471 H       
  36 H36            0.8225     7.9013     3.0960 H       
  37 H37            3.8670     8.0626     3.2140 H       
  38 H38            2.7751     9.4616     3.3511 H       
  39 H39            2.7008     7.0210     5.1805 H       
  40 H40            3.8126     9.8252     5.6470 H       
  41 H41            3.6914     8.5396     6.8721 H       
  42 H42            4.7793     8.3403     5.4774 H       
  43 H43            1.3366     9.7479     5.3211 H       
  44 H44            0.5395     8.2080     4.9194 H       
  45 H45            1.2155     8.4623     6.5462 H       
  46 H46            1.1631     7.4932     0.6739 H       
  47 H47            1.7646     9.1019     1.1416 H       
  48 H48            2.9106     7.7666     0.8736 H       
@<TRIPOS>BOND
   1    1    2 1
   2    1    6 1
   3    1    7 1
   4    2    3 1
   5    2   22 1
   6    2   23 1
   7    3    4 1
   8    3   24 1
   9    3   25 1
  10    4    5 1
  11    5    6 1
  12    5   26 1
  13    5   27 1
  14    6   28 1
  15    6   29 1
  16    7   10 1
  17    7   30 1
  18    7   31 1
  19    8    9 ar
  20    8   13 ar
  21    8   15 1
  22    9   10 ar
  23   10   11 ar
  24   11   12 ar
  25   11   32 1
  26   12   13 ar
  27   12   14 1
  28   14   33 1
  29   14   34 1
  30   14   35 1
  31   15   16 1
  32   16   17 1
  33   16   21 1
  34   16   36 1
  35   17   18 1
  36   17   37 1
  37   17   38 1
  38   18   19 1
  39   18   20 1
  40   18   39 1
  41   19   40 1
  42   19   41 1
  43   19   42 1
  44   20   43 1
  45   20   44 1
  46   20   45 1
  47   21   46 1
  48   21   47 1
  49   21   48 1

#	End of record

