#	Name: ASD08150669
#	Creating user name:	WinNT
#	Creation time:	15. 06. 2019 21:16

#	Modifying user name:	WinNT
#	Modification time:	15. 06. 2019 21:16

#	Program:	/corina/corina34_cracker 3.40 0067  02.08.2006

@<TRIPOS>MOLECULE
ASD08150669
  80   87    0    0    0
SMALL
NO_CHARGES


@<TRIPOS>ATOM
   1 N1             0.4459     2.2553    -0.2720 N.am    
   2 C2             1.1319     1.8125     0.7974 C.2     
   3 C3             2.4986     1.4809     0.7109 C.2     
   4 C4             3.1576     1.6045    -0.4711 C.2     
   5 C5             2.4153     2.0850    -1.6340 C.ar    
   6 C6             3.0308     2.2377    -2.8897 C.ar    
   7 N7             2.3573     2.6687    -3.9248 N.ar    
   8 C8             1.0559     2.9865    -3.8522 C.ar    
   9 C9             0.3557     2.8627    -2.6267 C.ar    
  10 C10            1.0550     2.3998    -1.4879 C.ar    
  11 C11           -1.0004     3.1972    -2.5625 C.ar    
  12 C12           -1.6468     3.6477    -3.7022 C.ar    
  13 C13           -0.9475     3.7672    -4.9115 C.ar    
  14 C14            0.3717     3.4462    -4.9896 C.ar    
  15 O15            0.5577     1.6959     1.8665 O.2     
  16 C16           -3.0851     4.0046    -3.6429 C.ar    
  17 C17           -0.9107     2.5666    -0.1396 C.ar    
  18 C18           -1.3126     3.8948    -0.0524 C.ar    
  19 C19           -2.6490     4.2043     0.0780 C.ar    
  20 C20           -3.5991     3.1837     0.1222 C.ar    
  21 C21           -3.1934     1.8522     0.0341 C.ar    
  22 C22           -1.8558     1.5481    -0.1012 C.ar    
  23 C23           -5.0370     3.5137     0.2630 C.ar    
  24 C24           -3.8295     3.7499    -2.4801 C.ar    
  25 C25           -5.4605     4.3632     1.2859 C.ar    
  26 C26           -6.7958     4.6699     1.4178 C.ar    
  27 C27           -7.7273     4.1308     0.5266 C.ar    
  28 C28           -7.3021     3.2808    -0.4976 C.ar    
  29 C29           -5.9658     2.9794    -0.6310 C.ar    
  30 N30           -5.1000     4.0537    -2.3997 N.ar    
  31 C31           -5.7521     4.6219    -3.4196 C.ar    
  32 C32           -5.0694     4.9112    -4.6281 C.ar    
  33 C33           -3.7034     4.5980    -4.7340 C.ar    
  34 C34           -7.1173     4.9405    -3.3146 C.ar    
  35 C35           -7.7599     5.5180    -4.3661 C.ar    
  36 C36           -7.0871     5.8013    -5.5532 C.ar    
  37 C37           -5.7652     5.5077    -5.6933 C.ar    
  38 C38           -9.1604     4.4590     0.6675 C.2     
  39 N39           -9.6821     4.6893     1.8887 N.am    
  40 O40           -9.8694     4.5213    -0.3181 O.2     
  41 C41          -11.0675     5.1589     2.0414 C.3     
  42 C42           -8.8831     4.4718     3.1042 C.3     
  43 C43           -9.6881     3.5899     4.0646 C.3     
  44 N44          -11.0083     4.1939     4.2889 N.3     
  45 C45          -11.7821     4.2486     3.0458 C.3     
  46 C46          -11.7463     3.4729     5.3345 C.3     
  47 C47           -4.2170     0.7472     0.0820 C.3     
  48 F48           -3.5661    -0.4876     0.1756 F       
  49 F49           -5.0430     0.9247     1.1970 F       
  50 F50           -4.9920     0.7787    -1.0823 F       
  51 H51            3.0237     1.1279     1.5861 H       
  52 H52            4.2052     1.3539    -0.5488 H       
  53 H53            4.0773     1.9953    -3.0008 H       
  54 H54           -1.5401     3.1048    -1.6316 H       
  55 H55           -1.4633     4.1189    -5.7927 H       
  56 H56            0.8949     3.5451    -5.9292 H       
  57 H57           -0.5767     4.6846    -0.0867 H       
  58 H58           -2.9606     5.2361     0.1464 H       
  59 H59           -1.5414     0.5174    -0.1736 H       
  60 H60           -3.3423     3.2919    -1.6320 H       
  61 H61           -4.7404     4.7797     1.9746 H       
  62 H62           -7.1235     5.3268     2.2100 H       
  63 H63           -8.0214     2.8634    -1.1867 H       
  64 H64           -5.6370     2.3224    -1.4226 H       
  65 H65           -3.1538     4.8052    -5.6403 H       
  66 H66           -7.6545     4.7274    -2.4023 H       
  67 H67           -8.8088     5.7605    -4.2793 H       
  68 H68           -7.6212     6.2596    -6.3724 H       
  69 H69           -5.2542     5.7318    -6.6180 H       
  70 H70          -11.0679     6.1841     2.4116 H       
  71 H71          -11.5775     5.1140     1.0791 H       
  72 H72           -7.9495     3.9728     2.8443 H       
  73 H73           -8.6698     5.4298     3.5784 H       
  74 H74           -9.8111     2.5976     3.6306 H       
  75 H75           -9.1591     3.5090     5.0142 H       
  76 H76          -12.7742     4.6500     3.2523 H       
  77 H77          -11.8746     3.2450     2.6305 H       
  78 H78          -11.1829     3.5082     6.2669 H       
  79 H79          -12.7199     3.9408     5.4804 H       
  80 H80          -11.8838     2.4348     5.0321 H       
@<TRIPOS>BOND
   1    1    2 am
   2    1   10 1
   3    1   17 1
   4    2    3 1
   5    2   15 2
   6    3    4 2
   7    3   51 1
   8    4    5 1
   9    4   52 1
  10    5    6 ar
  11    5   10 ar
  12    6    7 ar
  13    6   53 1
  14    7    8 ar
  15    8    9 ar
  16    8   14 ar
  17    9   10 ar
  18    9   11 ar
  19   11   12 ar
  20   11   54 1
  21   12   13 ar
  22   12   16 1
  23   13   14 ar
  24   13   55 1
  25   14   56 1
  26   16   24 ar
  27   16   33 ar
  28   17   18 ar
  29   17   22 ar
  30   18   19 ar
  31   18   57 1
  32   19   20 ar
  33   19   58 1
  34   20   21 ar
  35   20   23 1
  36   21   22 ar
  37   21   47 1
  38   22   59 1
  39   23   25 ar
  40   23   29 ar
  41   24   30 ar
  42   24   60 1
  43   25   26 ar
  44   25   61 1
  45   26   27 ar
  46   26   62 1
  47   27   28 ar
  48   27   38 1
  49   28   29 ar
  50   28   63 1
  51   29   64 1
  52   30   31 ar
  53   31   32 ar
  54   31   34 ar
  55   32   33 ar
  56   32   37 ar
  57   33   65 1
  58   34   35 ar
  59   34   66 1
  60   35   36 ar
  61   35   67 1
  62   36   37 ar
  63   36   68 1
  64   37   69 1
  65   38   39 am
  66   38   40 2
  67   39   41 1
  68   39   42 1
  69   41   45 1
  70   41   70 1
  71   41   71 1
  72   42   43 1
  73   42   72 1
  74   42   73 1
  75   43   44 1
  76   43   74 1
  77   43   75 1
  78   44   45 1
  79   44   46 1
  80   45   76 1
  81   45   77 1
  82   46   78 1
  83   46   79 1
  84   46   80 1
  85   47   48 1
  86   47   49 1
  87   47   50 1

#	End of record

