#	Name: ASD01680111
#	Creating user name:	WinNT
#	Creation time:	15. 06. 2019 19:22

#	Modifying user name:	WinNT
#	Modification time:	15. 06. 2019 19:22

#	Program:	/corina/corina34_cracker 3.40 0067  02.08.2006

@<TRIPOS>MOLECULE
ASD01680111
  86   90    0    0    0
SMALL
NO_CHARGES


@<TRIPOS>ATOM
   1 C1            -0.4912     0.7104    -3.0964 C.2     
   2 C2            -0.5672    -0.7478    -2.7238 C.3     
   3 C3            -1.3089    -1.5162    -3.8194 C.3     
   4 O4             0.5844     1.2447    -3.2292 O.2     
   5 O5            -1.6182     1.4142    -3.2863 O.3     
   6 N6             0.7876    -1.2867    -2.5810 N.am    
   7 S7             1.5007    -1.3493    -1.0878 S.o2    
   8 O8             2.7767    -1.9453    -1.2771 O.2     
   9 O9             1.3210    -0.0666    -0.5032 O.2     
  10 C10            0.5649    -2.4773    -0.1097 C.ar    
  11 C11           -0.3837    -2.0018     0.7763 C.ar    
  12 C12           -1.1178    -2.8868     1.5436 C.ar    
  13 C13           -0.9037    -4.2472     1.4246 C.ar    
  14 C14            0.0443    -4.7228     0.5379 C.ar    
  15 C15            0.7754    -3.8380    -0.2325 C.ar    
  16 C16            1.8052    -4.3566    -1.2028 C.3     
  17 C17           -1.7033    -5.2120     2.2618 C.3     
  18 C18           -0.6171    -0.5187     0.9060 C.3     
  19 N19           -1.2791    -2.9493    -3.5165 N.am    
  20 C20           -1.8739    -3.8265    -4.3490 C.2     
  21 O21           -2.4338    -3.4296    -5.3489 O.2     
  22 C22           -1.8433    -5.3006    -4.0374 C.3     
  23 O23           -2.5360    -6.0183    -5.0607 O.3     
  24 N24           -4.9055    -7.9031    -5.0776 N.am    
  25 C25           -3.8300    -7.8551    -4.0705 C.3     
  26 C26           -2.5659    -7.4328    -4.8601 C.3     
  27 C27           -2.7735    -8.1808    -6.2036 C.3     
  28 C28           -4.3028    -8.1183    -6.4012 C.3     
  29 C29           -4.8052    -9.4364    -6.9936 C.3     
  30 N30           -4.2834    -9.5908    -8.3538 N.pl3   
  31 C31           -4.5221   -10.7635    -9.0609 C.ar    
  32 C32           -5.2573   -11.7868    -8.4709 C.ar    
  33 C33           -5.4873   -12.9482    -9.1857 C.ar    
  34 C34           -4.9724   -13.0479   -10.4717 C.ar    
  35 C35           -4.2517   -11.9934   -10.9950 C.ar    
  36 N36           -4.0523   -10.8947   -10.2917 N.ar    
  37 C37           -6.2235    -7.7765    -4.8259 C.2     
  38 N38           -6.6469    -7.4898    -3.5789 N.am    
  39 O39           -7.0306    -7.9209    -5.7238 O.2     
  40 O40          -11.9986    -7.4412    -2.2276 O.3     
  41 C41          -11.8286    -7.5737    -0.8040 C.3     
  42 O42          -10.5447    -8.2116    -0.6706 O.3     
  43 C43           -9.8408    -7.8508    -1.7832 C.ar    
  44 C44          -10.7345    -7.3769    -2.7412 C.ar    
  45 C45           -8.4853    -7.8881    -2.0627 C.ar    
  46 C46           -8.0190    -7.4532    -3.2959 C.ar    
  47 C47           -8.9116    -6.9816    -4.2483 C.ar    
  48 C48          -10.2652    -6.9443    -3.9704 C.ar    
  49 H49           -1.1019    -0.8542    -1.7799 H       
  50 H50           -2.3434    -1.1759    -3.8651 H       
  51 H51           -0.8249    -1.3377    -4.7796 H       
  52 H52           -1.5189     2.3463    -3.5241 H       
  53 H53            1.2669    -1.6068    -3.3612 H       
  54 H54           -1.8584    -2.5152     2.2363 H       
  55 H55            0.2118    -5.7857     0.4452 H       
  56 H56            2.7882    -4.3413    -0.7321 H       
  57 H57            1.5544    -5.3786    -1.4871 H       
  58 H58            1.8179    -3.7252    -2.0912 H       
  59 H59           -2.6103    -5.4925     1.7263 H       
  60 H60           -1.1072    -6.1030     2.4584 H       
  61 H61           -1.9708    -4.7381     3.2063 H       
  62 H62           -1.1403    -0.1545     0.0218 H       
  63 H63           -1.2207    -0.3220     1.7921 H       
  64 H64            0.3408    -0.0068     0.9979 H       
  65 H65           -0.8313    -3.2667    -2.7167 H       
  66 H66           -0.8088    -5.6409    -3.9917 H       
  67 H67           -2.3273    -5.4791    -3.0772 H       
  68 H68           -4.0618    -7.1169    -3.3027 H       
  69 H69           -3.6862    -8.8380    -3.6218 H       
  70 H70           -1.6600    -7.7734    -4.3586 H       
  71 H71           -2.2585    -7.6664    -7.0149 H       
  72 H72           -2.4367    -9.2145    -6.1255 H       
  73 H73           -4.5575    -7.2909    -7.0635 H       
  74 H74           -4.4617   -10.2665    -6.3763 H       
  75 H75           -5.8948    -9.4306    -7.0210 H       
  76 H76           -3.7713    -8.8747    -8.7610 H       
  77 H77           -5.6429   -11.6759    -7.4681 H       
  78 H78           -6.0543   -13.7594    -8.7536 H       
  79 H79           -5.1339   -13.9415   -11.0562 H       
  80 H80           -3.8495   -12.0668   -11.9946 H       
  81 H81           -6.0020    -7.3089    -2.8773 H       
  82 H82          -11.8209    -6.5940    -0.3263 H       
  83 H83          -12.6136    -8.2008    -0.3813 H       
  84 H84           -7.7909    -8.2555    -1.3216 H       
  85 H85           -8.5483    -6.6430    -5.2073 H       
  86 H86          -10.9580    -6.5770    -4.7131 H       
@<TRIPOS>BOND
   1    1    2 1
   2    1    4 2
   3    1    5 1
   4    2    3 1
   5    2    6 1
   6    2   49 1
   7    3   19 1
   8    3   50 1
   9    3   51 1
  10    5   52 1
  11    6    7 am
  12    6   53 1
  13    7    8 2
  14    7    9 2
  15    7   10 1
  16   10   11 ar
  17   10   15 ar
  18   11   12 ar
  19   11   18 1
  20   12   13 ar
  21   12   54 1
  22   13   14 ar
  23   13   17 1
  24   14   15 ar
  25   14   55 1
  26   15   16 1
  27   16   56 1
  28   16   57 1
  29   16   58 1
  30   17   59 1
  31   17   60 1
  32   17   61 1
  33   18   62 1
  34   18   63 1
  35   18   64 1
  36   19   20 am
  37   19   65 1
  38   20   21 2
  39   20   22 1
  40   22   23 1
  41   22   66 1
  42   22   67 1
  43   23   26 1
  44   24   25 1
  45   24   28 1
  46   24   37 am
  47   25   26 1
  48   25   68 1
  49   25   69 1
  50   26   27 1
  51   26   70 1
  52   27   28 1
  53   27   71 1
  54   27   72 1
  55   28   29 1
  56   28   73 1
  57   29   30 1
  58   29   74 1
  59   29   75 1
  60   30   31 1
  61   30   76 1
  62   31   32 ar
  63   31   36 ar
  64   32   33 ar
  65   32   77 1
  66   33   34 ar
  67   33   78 1
  68   34   35 ar
  69   34   79 1
  70   35   36 ar
  71   35   80 1
  72   37   38 am
  73   37   39 2
  74   38   46 1
  75   38   81 1
  76   40   41 1
  77   40   44 1
  78   41   42 1
  79   41   82 1
  80   41   83 1
  81   42   43 1
  82   43   44 ar
  83   43   45 ar
  84   44   48 ar
  85   45   46 ar
  86   45   84 1
  87   46   47 ar
  88   47   48 ar
  89   47   85 1
  90   48   86 1

#	End of record

