#	Name: ASD00460036
#	Creating user name:	WinNT
#	Creation time:	15. 06. 2019 18:36

#	Modifying user name:	WinNT
#	Modification time:	15. 06. 2019 18:36

#	Program:	/corina/corina34_cracker 3.40 0067  02.08.2006

@<TRIPOS>MOLECULE
ASD00460036
  76   80    0    0    0
SMALL
NO_CHARGES


@<TRIPOS>ATOM
   1 O1             0.2096    -1.2661    -0.1430 O.2     
   2 C2            -0.2455    -0.1752    -0.4275 C.2     
   3 N3             0.5766     0.8847    -0.5581 N.am    
   4 C4             2.0187     0.7223    -0.3572 C.3     
   5 C5             2.6825     0.3676    -1.6893 C.3     
   6 C6             4.1885     0.1980    -1.4795 C.3     
   7 C7             4.8248    -0.2707    -2.7626 C.ar    
   8 C8             4.5925     0.4153    -3.9401 C.ar    
   9 C9             5.1762    -0.0146    -5.1171 C.ar    
  10 C10            5.9925    -1.1302    -5.1166 C.ar    
  11 C11            6.2255    -1.8157    -3.9389 C.ar    
  12 C12            5.6453    -1.3832    -2.7611 C.ar    
  13 C13            4.7909     1.5182    -1.0730 C.ar    
  14 C14            5.5841     1.5976     0.0563 C.ar    
  15 C15            6.1366     2.8086     0.4292 C.ar    
  16 C16            5.8962     3.9402    -0.3275 C.ar    
  17 C17            5.1037     3.8607    -1.4573 C.ar    
  18 C18            4.5548     2.6488    -1.8326 C.ar    
  19 C19            0.0283     2.1993    -0.9010 C.3     
  20 C20           -0.3244     2.9551     0.3817 C.3     
  21 N21           -0.8742     4.2732     0.0379 N.3     
  22 C22           -1.4424     4.9324     1.2228 C.3     
  23 C23           -1.9488     6.3235     0.8326 C.3     
  24 O24           -2.9016     6.1987    -0.2266 O.3     
  25 C25           -2.3816     5.5615    -1.3966 C.3     
  26 C26           -1.8796     4.1627    -1.0290 C.3     
  27 N27           -1.5715    -0.0270    -0.6178 N.am    
  28 C28           -2.4173    -1.1193    -0.4890 C.2     
  29 S29           -1.9816    -2.7386    -0.0948 S.3     
  30 N30           -3.5729    -3.3310    -0.1601 N.2     
  31 C31           -4.3228    -2.3025    -0.4671 C.2     
  32 N32           -3.7223    -1.1392    -0.6358 N.2     
  33 C33           -5.7929    -2.4385    -0.6147 C.ar    
  34 C34           -6.4031    -3.6770    -0.4260 C.ar    
  35 C35           -7.7709    -3.7978    -0.5647 C.ar    
  36 C36           -8.5358    -2.6923    -0.8908 C.ar    
  37 C37           -7.9354    -1.4606    -1.0797 C.ar    
  38 C38           -6.5691    -1.3270    -0.9370 C.ar    
  39 S39          -10.2816    -2.8540    -1.0668 S.o2    
  40 O40          -10.7011    -1.7851    -1.9039 O.2     
  41 O41          -10.5297    -4.2204    -1.3678 O.2     
  42 N42          -10.9523    -2.5736     0.4211 N.am    
  43 H43            2.4398     1.6534     0.0220 H       
  44 H44            2.1976    -0.0768     0.3621 H       
  45 H45            2.2613    -0.5635    -2.0685 H       
  46 H46            2.5036     1.1668    -2.4086 H       
  47 H47            4.3655    -0.5387    -0.6959 H       
  48 H48            3.9548     1.2869    -3.9405 H       
  49 H49            4.9942     0.5208    -6.0372 H       
  50 H50            6.4479    -1.4666    -6.0363 H       
  51 H51            6.8630    -2.6874    -3.9386 H       
  52 H52            5.8273    -1.9187    -1.8411 H       
  53 H53            5.7719     0.7135     0.6475 H       
  54 H54            6.7558     2.8707     1.3119 H       
  55 H55            6.3273     4.8865    -0.0357 H       
  56 H56            4.9157     4.7448    -2.0483 H       
  57 H57            3.9356     2.5866    -2.7153 H       
  58 H58            0.7691     2.7662    -1.4647 H       
  59 H59           -0.8693     2.0719    -1.5061 H       
  60 H60           -1.0652     2.3882     0.9455 H       
  61 H61            0.5732     3.0824     0.9869 H       
  62 H62           -2.2711     4.3381     1.6076 H       
  63 H63           -0.6741     5.0268     1.9903 H       
  64 H64           -2.4222     6.7935     1.6946 H       
  65 H65           -1.1109     6.9353     0.4982 H       
  66 H66           -3.1681     5.4804    -2.1469 H       
  67 H67           -1.5563     6.1511    -1.7958 H       
  68 H68           -1.4305     3.6952    -1.9053 H       
  69 H69           -2.7153     3.5561    -0.6802 H       
  70 H70           -1.9346     0.8434    -0.8448 H       
  71 H71           -5.8067    -4.5409    -0.1721 H       
  72 H72           -8.2449    -4.7571    -0.4187 H       
  73 H73           -8.5373    -0.6010    -1.3348 H       
  74 H74           -6.1013    -0.3648    -1.0844 H       
  75 H75          -11.8408    -2.1903     0.4882 H       
  76 H76          -10.4566    -2.7927     1.2256 H       
@<TRIPOS>BOND
   1    1    2 2
   2    2    3 am
   3    2   27 am
   4    3    4 1
   5    3   19 1
   6    4    5 1
   7    4   43 1
   8    4   44 1
   9    5    6 1
  10    5   45 1
  11    5   46 1
  12    6    7 1
  13    6   13 1
  14    6   47 1
  15    7    8 ar
  16    7   12 ar
  17    8    9 ar
  18    8   48 1
  19    9   10 ar
  20    9   49 1
  21   10   11 ar
  22   10   50 1
  23   11   12 ar
  24   11   51 1
  25   12   52 1
  26   13   14 ar
  27   13   18 ar
  28   14   15 ar
  29   14   53 1
  30   15   16 ar
  31   15   54 1
  32   16   17 ar
  33   16   55 1
  34   17   18 ar
  35   17   56 1
  36   18   57 1
  37   19   20 1
  38   19   58 1
  39   19   59 1
  40   20   21 1
  41   20   60 1
  42   20   61 1
  43   21   22 1
  44   21   26 1
  45   22   23 1
  46   22   62 1
  47   22   63 1
  48   23   24 1
  49   23   64 1
  50   23   65 1
  51   24   25 1
  52   25   26 1
  53   25   66 1
  54   25   67 1
  55   26   68 1
  56   26   69 1
  57   27   28 1
  58   27   70 1
  59   28   29 1
  60   28   32 2
  61   29   30 1
  62   30   31 2
  63   31   32 1
  64   31   33 1
  65   33   34 ar
  66   33   38 ar
  67   34   35 ar
  68   34   71 1
  69   35   36 ar
  70   35   72 1
  71   36   37 ar
  72   36   39 1
  73   37   38 ar
  74   37   73 1
  75   38   74 1
  76   39   40 2
  77   39   41 2
  78   39   42 am
  79   42   75 1
  80   42   76 1

#	End of record

