#	Name: ASD01913536
#	Creating user name:	WinNT
#	Creation time:	15. 06. 2019 20:01

#	Modifying user name:	WinNT
#	Modification time:	15. 06. 2019 20:01

#	Program:	/corina/corina34_cracker 3.40 0067  02.08.2006

@<TRIPOS>MOLECULE
ASD01913536
  35   37    0    0    0
SMALL
NO_CHARGES


@<TRIPOS>ATOM
   1 C1             0.5546     0.2709     1.3518 C.ar    
   2 C2             0.0033    -0.0127     0.1063 C.ar    
   3 C3             0.6581     0.4255    -1.0359 C.ar    
   4 N4             1.7867     1.1006    -0.9470 N.ar    
   5 C5             2.3356     1.3858     0.2178 C.ar    
   6 C6             1.7421     0.9835     1.3994 C.ar    
   7 C7            -1.0860    -2.0599    -0.1027 C.ar    
   8 C8             0.1374    -2.7175    -0.0104 C.ar    
   9 C9             0.1752    -4.0958    -0.1240 C.ar    
  10 N10           -0.9260    -4.7898    -0.3173 N.ar    
  11 C11           -2.1146    -4.2042    -0.4115 C.ar    
  12 C12           -2.2335    -2.8224    -0.3075 C.ar    
  13 C13           -3.3246    -5.0306    -0.6300 C.2     
  14 N14           -3.2164    -6.3701    -0.7321 N.am    
  15 O15           -1.1597    -0.7092     0.0098 O.3     
  16 C16           -4.3604    -7.1514    -0.9386 C.2     
  17 O17           -4.4148    -4.5006    -0.7170 O.2     
  18 N18           -4.3909    -8.4583    -1.0544 N.2     
  19 N19           -5.7220    -8.8485    -1.2493 N.pl3   
  20 C20           -6.4883    -7.7373    -1.2470 C.2     
  21 C21           -5.6762    -6.6738    -1.0519 C.2     
  22 C22           -6.1990   -10.2224    -1.4257 C.3     
  23 H23            0.0667    -0.0526     2.2594 H       
  24 H24            0.2390     0.2109    -2.0079 H       
  25 H25            3.2615     1.9409     0.2487 H       
  26 H26            2.1985     1.2218     2.3488 H       
  27 H27            1.0474    -2.1577     0.1479 H       
  28 H28            1.1224    -4.6097    -0.0533 H       
  29 H29           -3.2007    -2.3480    -0.3840 H       
  30 H30           -2.3463    -6.7931    -0.6626 H       
  31 H31           -7.5602    -7.7039    -1.3745 H       
  32 H32           -5.9841    -5.6400    -0.9989 H       
  33 H33           -6.4408   -10.6508    -0.4530 H       
  34 H34           -7.0902   -10.2198    -2.0533 H       
  35 H35           -5.4209   -10.8188    -1.9021 H       
@<TRIPOS>BOND
   1    1    2 ar
   2    1    6 ar
   3    1   23 1
   4    2    3 ar
   5    2   15 1
   6    3    4 ar
   7    3   24 1
   8    4    5 ar
   9    5    6 ar
  10    5   25 1
  11    6   26 1
  12    7    8 ar
  13    7   12 ar
  14    7   15 1
  15    8    9 ar
  16    8   27 1
  17    9   10 ar
  18    9   28 1
  19   10   11 ar
  20   11   12 ar
  21   11   13 1
  22   12   29 1
  23   13   14 am
  24   13   17 2
  25   14   16 1
  26   14   30 1
  27   16   18 2
  28   16   21 1
  29   18   19 1
  30   19   20 1
  31   19   22 1
  32   20   21 2
  33   20   31 1
  34   21   32 1
  35   22   33 1
  36   22   34 1
  37   22   35 1

#	End of record

