#	Name: ASD01815074
#	Creating user name:	WinNT
#	Creation time:	15. 06. 2019 19:33

#	Modifying user name:	WinNT
#	Modification time:	15. 06. 2019 19:33

#	Program:	/corina/corina34_cracker 3.40 0067  02.08.2006

@<TRIPOS>MOLECULE
ASD01815074
  52   55    0    0    0
SMALL
NO_CHARGES


@<TRIPOS>ATOM
   1 C1            -0.6459     1.0064    -0.0087 C.2     
   2 C2            -0.4252    -0.3773     0.0175 C.2     
   3 C3             0.8520    -0.8545    -0.0283 C.2     
   4 C4             1.9247     0.0496    -0.1010 C.2     
   5 N5             1.6802     1.3959    -0.1248 N.am    
   6 C6             0.3995     1.8612    -0.0788 C.2     
   7 C7             3.2382    -0.4383    -0.1482 C.2     
   8 C8             4.2876     0.4314    -0.2185 C.2     
   9 C9             4.0323     1.8151    -0.2433 C.2     
  10 C10            2.7004     2.2747    -0.1941 C.2     
  11 O11            2.4700     3.4720    -0.2156 O.2     
  12 C12            5.1407     2.7695    -0.3180 C.2     
  13 O13            4.8894     4.0946    -0.3414 O.3     
  14 O14            6.2880     2.3672    -0.3590 O.2     
  15 C15            3.4915    -1.9236    -0.1206 C.3     
  16 N16            3.6298    -2.4223    -1.4954 N.3     
  17 C17            4.1096    -3.8101    -1.5061 C.3     
  18 C18            4.3800    -4.2468    -2.9477 C.3     
  19 C19            3.0893    -4.1270    -3.7628 C.3     
  20 C20            2.5847    -2.6829    -3.6955 C.3     
  21 C21            2.3663    -2.2916    -2.2322 C.3     
  22 N22            3.3561    -4.4905    -5.1608 N.3     
  23 H23            2.3344    -4.7962    -3.3500 H       
  24 H24            5.0300    -3.8807    -0.9265 H       
  25 H25            5.1467    -3.6066    -3.3840 H       
  26 C26            2.1340    -4.4168    -5.9647 C.3     
  27 C27            2.4927    -4.3600    -7.4535 C.3     
  28 S28            3.3686    -5.8918    -7.8953 S.3     
  29 C29            4.6657    -5.9632    -6.6220 C.3     
  30 C30            4.0077    -5.7994    -5.2477 C.3     
  31 H31           -1.6546     1.3912     0.0228 H       
  32 H32           -1.2598    -1.0605     0.0739 H       
  33 H33            1.0368    -1.9184    -0.0085 H       
  34 H34            0.2177     2.9256    -0.0982 H       
  35 H35            5.3018     0.0622    -0.2543 H       
  36 H36            5.6532     4.6855    -0.3912 H       
  37 H37            4.4084    -2.1256     0.4331 H       
  38 H38            2.6552    -2.4258     0.3657 H       
  39 H39            3.3527    -4.4594    -1.0659 H       
  40 H40            4.7212    -5.2819    -2.9564 H       
  41 H41            3.3232    -2.0181    -4.1437 H       
  42 H42            1.6432    -2.6008    -4.2386 H       
  43 H43            1.6176    -2.9480    -1.7886 H       
  44 H44            2.0206    -1.2592    -2.1801 H       
  45 H45            1.5209    -5.2975    -5.7733 H       
  46 H46            1.5748    -3.5217    -5.6925 H       
  47 H47            1.5822    -4.2747    -8.0466 H       
  48 H48            3.1378    -3.5019    -7.6422 H       
  49 H49            5.1750    -6.9256    -6.6717 H       
  50 H50            5.3821    -5.1577    -6.7834 H       
  51 H51            4.7680    -5.8777    -4.4705 H       
  52 H52            3.2645    -6.5841    -5.1061 H       
@<TRIPOS>BOND
   1    1    2 1
   2    1    6 2
   3    1   31 1
   4    2    3 2
   5    2   32 1
   6    3    4 1
   7    3   33 1
   8    4    5 1
   9    4    7 2
  10    5    6 1
  11    5   10 am
  12    6   34 1
  13    7    8 1
  14    7   15 1
  15    8    9 2
  16    8   35 1
  17    9   10 1
  18    9   12 1
  19   10   11 2
  20   12   13 1
  21   12   14 2
  22   13   36 1
  23   15   16 1
  24   15   37 1
  25   15   38 1
  26   16   17 1
  27   16   21 1
  28   17   18 1
  29   17   24 1
  30   17   39 1
  31   18   19 1
  32   18   25 1
  33   18   40 1
  34   19   23 1
  35   19   22 1
  36   19   20 1
  37   20   21 1
  38   20   41 1
  39   20   42 1
  40   21   43 1
  41   21   44 1
  42   22   26 1
  43   22   30 1
  44   26   27 1
  45   26   45 1
  46   26   46 1
  47   27   28 1
  48   27   47 1
  49   27   48 1
  50   28   29 1
  51   29   30 1
  52   29   49 1
  53   29   50 1
  54   30   51 1
  55   30   52 1

#	End of record

