#	Name: ASD01880391
#	Creating user name:	WinNT
#	Creation time:	15. 06. 2019 19:40

#	Modifying user name:	WinNT
#	Modification time:	15. 06. 2019 19:40

#	Program:	/corina/corina34_cracker 3.40 0067  02.08.2006

@<TRIPOS>MOLECULE
ASD01880391
  38   40    0    0    0
SMALL
NO_CHARGES


@<TRIPOS>ATOM
   1 C1            -0.0125     1.3173     0.0350 C.ar    
   2 N2             0.0041    -0.0031     0.0148 N.ar    
   3 C3             1.1460    -0.6748     0.0011 C.ar    
   4 C4             2.3670     0.0470     0.0085 C.ar    
   5 C5             2.2926     1.4426     0.0300 C.ar    
   6 N6             1.0898     2.0306     0.0426 N.ar    
   7 C7             3.7391    -0.4238    -0.0023 C.2     
   8 C8             4.6513     0.5288     0.0099 C.2     
   9 S9             3.9144     2.1198     0.0361 S.3     
  10 C10            6.1378     0.2813     0.0032 C.3     
  11 C11            6.6379     0.2187    -1.4414 C.3     
  12 C12            8.1471    -0.0325    -1.4482 C.3     
  13 N13            1.1475    -2.0589    -0.0195 N.pl3   
  14 C14           -0.0558    -2.7609     0.0942 C.ar    
  15 C15           -0.2295    -3.9587    -0.5878 C.ar    
  16 C16           -1.4190    -4.6524    -0.4752 C.ar    
  17 C17           -2.4385    -4.1573     0.3152 C.ar    
  18 C18           -2.2705    -2.9612     0.9994 C.ar    
  19 C19           -1.0770    -2.2649     0.8934 C.ar    
  20 O20           -3.2742    -2.4756     1.7763 O.3     
  21 C21           -4.4745    -3.2480     1.8431 C.3     
  22 H22           -0.9645     1.8274     0.0410 H       
  23 H23            3.9939    -1.4732    -0.0186 H       
  24 H24            6.6434     1.0919     0.5279 H       
  25 H25            6.3510    -0.6637     0.5028 H       
  26 H26            6.1322    -0.5919    -1.9662 H       
  27 H27            6.4246     1.1637    -1.9410 H       
  28 H28            8.5034    -0.0771    -2.4774 H       
  29 H29            8.6527     0.7781    -0.9235 H       
  30 H30            8.3604    -0.9775    -0.9486 H       
  31 H31            1.9836    -2.5417    -0.1129 H       
  32 H32            0.5656    -4.3477    -1.2065 H       
  33 H33           -1.5524    -5.5833    -1.0063 H       
  34 H34           -3.3674    -4.7015     0.4007 H       
  35 H35           -0.9446    -1.3342     1.4249 H       
  36 H36           -4.8991    -3.3468     0.8441 H       
  37 H37           -4.2484    -4.2372     2.2412 H       
  38 H38           -5.1917    -2.7493     2.4951 H       
@<TRIPOS>BOND
   1    1    2 ar
   2    1    6 ar
   3    1   22 1
   4    2    3 ar
   5    3    4 ar
   6    3   13 1
   7    4    5 ar
   8    4    7 1
   9    5    6 ar
  10    5    9 1
  11    7    8 2
  12    7   23 1
  13    8    9 1
  14    8   10 1
  15   10   11 1
  16   10   24 1
  17   10   25 1
  18   11   12 1
  19   11   26 1
  20   11   27 1
  21   12   28 1
  22   12   29 1
  23   12   30 1
  24   13   14 1
  25   13   31 1
  26   14   15 ar
  27   14   19 ar
  28   15   16 ar
  29   15   32 1
  30   16   17 ar
  31   16   33 1
  32   17   18 ar
  33   17   34 1
  34   18   19 ar
  35   18   20 1
  36   19   35 1
  37   20   21 1
  38   21   36 1
  39   21   37 1
  40   21   38 1

#	End of record

