#	Name: ASD05740148
#	Creating user name:	WinNT
#	Creation time:	15. 06. 2019 21:02

#	Modifying user name:	WinNT
#	Modification time:	15. 06. 2019 21:02

#	Program:	/corina/corina34_cracker 3.40 0067  02.08.2006

@<TRIPOS>MOLECULE
ASD05740148
  57   60    0    0    0
SMALL
NO_CHARGES


@<TRIPOS>ATOM
   1 N1            -0.0040     3.3215     3.6411 N.3     
   2 C2            -0.4092     4.2587     4.6973 C.3     
   3 N3            -3.2367     2.8977     1.8211 N.pl3   
   4 C4            -2.3059     2.8492     2.9513 C.3     
   5 C5            -0.9374     3.3701     2.5077 C.3     
   6 C6            -4.5587     2.4690     1.9845 C.ar    
   7 C7            -5.4411     2.5150     0.9131 C.ar    
   8 C8            -6.7455     2.0921     1.0744 C.ar    
   9 C9            -7.1752     1.6211     2.3081 C.ar    
  10 C10           -6.2931     1.5756     3.3796 C.ar    
  11 C11           -4.9868     1.9923     3.2166 C.ar    
  12 N12           -8.4987     1.1925     2.4718 N.pl3   
  13 C13           -9.1603     0.5791     1.4260 C.ar    
  14 N14           -8.4853     0.3070     0.3145 N.ar    
  15 N15          -10.4428     0.2796     1.5713 N.ar    
  16 C16          -11.1097    -0.3099     0.5875 C.ar    
  17 C17          -10.4260    -0.6094    -0.6115 C.ar    
  18 C18           -9.0702    -0.2786    -0.7151 C.ar    
  19 N19          -12.4368    -0.6325     0.7080 N.am    
  20 C20          -13.0973    -1.2304    -0.2994 C.2     
  21 C21          -12.4632    -1.5517    -1.5165 C.2     
  22 C22          -11.1494    -1.2579    -1.7009 C.2     
  23 C23          -13.1452    -0.3220     1.9522 C.3     
  24 O24          -14.2767    -1.5022    -0.1559 O.2     
  25 C25          -14.3206     0.6290     1.6662 C.3     
  26 C26          -15.6025    -0.1121     2.0990 C.3     
  27 C27          -15.1094    -1.1476     3.1400 C.3     
  28 C28          -13.7539    -1.6079     2.5487 C.3     
  29 C29            1.3723     3.5868     3.2014 C.3     
  30 H30           -0.3539     5.2792     4.3183 H       
  31 H31           -1.4319     4.0400     5.0044 H       
  32 H32            0.2577     4.1522     5.5529 H       
  33 H33           -2.9366     3.2270     0.9594 H       
  34 H34           -2.6860     3.4709     3.7620 H       
  35 H35           -2.2082     1.8203     3.2976 H       
  36 H36           -1.0351     4.3990     2.1614 H       
  37 H37           -0.5573     2.7485     1.6971 H       
  38 H38           -5.1071     2.8819    -0.0462 H       
  39 H39           -7.4317     2.1278     0.2412 H       
  40 H40           -6.6275     1.2100     4.3392 H       
  41 H41           -4.3008     1.9568     4.0500 H       
  42 H42           -8.9505     1.3265     3.3196 H       
  43 H43           -8.5163    -0.4927    -1.6172 H       
  44 H44          -13.0232    -2.0325    -2.3050 H       
  45 H45          -10.6529    -1.4990    -2.6292 H       
  46 H46          -12.4609     0.1346     2.6672 H       
  47 H47          -14.2071     1.5468     2.2431 H       
  48 H48          -14.3639     0.8595     0.6017 H       
  49 H49          -16.3084     0.5815     2.5557 H       
  50 H50          -16.0583    -0.6156     1.2464 H       
  51 H51          -14.9669    -0.6787     4.1136 H       
  52 H52          -15.8040    -1.9846     3.2111 H       
  53 H53          -13.9111    -2.3530     1.7688 H       
  54 H54          -13.1107    -2.0058     3.3337 H       
  55 H55            2.0425     3.5447     4.0600 H       
  56 H56            1.6712     2.8359     2.4700 H       
  57 H57            1.4244     4.5766     2.7479 H       
@<TRIPOS>BOND
   1    1    2 1
   2    1   29 1
   3    1    5 1
   4    2   30 1
   5    2   31 1
   6    2   32 1
   7    3    4 1
   8    3    6 1
   9    3   33 1
  10    4    5 1
  11    4   34 1
  12    4   35 1
  13    5   36 1
  14    5   37 1
  15    6    7 ar
  16    6   11 ar
  17    7    8 ar
  18    7   38 1
  19    8    9 ar
  20    8   39 1
  21    9   10 ar
  22    9   12 1
  23   10   11 ar
  24   10   40 1
  25   11   41 1
  26   12   13 1
  27   12   42 1
  28   13   14 ar
  29   13   15 ar
  30   14   18 ar
  31   15   16 ar
  32   16   17 ar
  33   16   19 1
  34   17   18 ar
  35   17   22 1
  36   18   43 1
  37   19   20 am
  38   19   23 1
  39   20   21 1
  40   20   24 2
  41   21   22 2
  42   21   44 1
  43   22   45 1
  44   23   25 1
  45   23   28 1
  46   23   46 1
  47   25   26 1
  48   25   47 1
  49   25   48 1
  50   26   27 1
  51   26   49 1
  52   26   50 1
  53   27   28 1
  54   27   51 1
  55   27   52 1
  56   28   53 1
  57   28   54 1
  58   29   55 1
  59   29   56 1
  60   29   57 1

#	End of record

