#	Name: ASD05270007
#	Creating user name:	WinNT
#	Creation time:	15. 06. 2019 20:58

#	Modifying user name:	WinNT
#	Modification time:	15. 06. 2019 20:58

#	Program:	/corina/corina34_cracker 3.40 0067  02.08.2006

@<TRIPOS>MOLECULE
ASD05270007
  47   49    0    0    0
SMALL
NO_CHARGES


@<TRIPOS>ATOM
   1 C1            -0.0188     1.5380     0.0105 C.3     
   2 C2             0.0021    -0.0041     0.0020 C.3     
   3 C3             1.4777    -0.3387    -0.0139 C.2     
   4 N4             2.1868     0.7969    -0.0145 N.am    
   5 C5             1.4471     1.9127    -0.0015 C.2     
   6 O6             3.4046     0.8135    -0.0257 O.3     
   7 C7             4.0017     0.8279    -1.2247 C.2     
   8 O8             3.3321     0.8242    -2.2354 O.2     
   9 C9             5.5057     0.8488    -1.3174 C.3     
  10 C10            5.9259     0.8623    -2.7885 C.3     
  11 C11            7.4299     0.8832    -2.8812 C.2     
  12 O12            8.0998     0.8869    -1.8700 O.2     
  13 C13            8.0847     0.8990    -4.1962 C.ar    
  14 C14            9.4715     0.9183    -4.2762 C.ar    
  15 C15           10.0892     0.9328    -5.5335 C.ar    
  16 C16            9.2885     0.9277    -6.7054 C.ar    
  17 C17            7.8844     0.9076    -6.5922 C.ar    
  18 C18            7.3017     0.8887    -5.3683 C.ar    
  19 C19           11.4922     0.9530    -5.6505 C.ar    
  20 C20           12.0694     0.9672    -6.8800 C.ar    
  21 C21           11.2863     0.9627    -8.0417 C.ar    
  22 C22            9.9093     0.9422    -7.9625 C.ar    
  23 O23            1.8830     3.0444     0.0001 O.2     
  24 O24            1.9440    -1.4581    -0.0240 O.2     
  25 N25           11.9048     0.9785    -9.2901 N.pl3   
  26 C26           13.3667     0.9998    -9.3831 C.3     
  27 C27           11.0933     0.9739   -10.5098 C.3     
  28 H28           -0.5196     1.9198    -0.8792 H       
  29 H29           -0.5025     1.9102     0.9136 H       
  30 H30           -0.4712    -0.3991     0.9009 H       
  31 H31           -0.4883    -0.3895    -0.8919 H       
  32 H32            5.8878     1.7414    -0.8222 H       
  33 H33            5.9120    -0.0383    -0.8316 H       
  34 H34            5.5437    -0.0303    -3.2837 H       
  35 H35            5.5196     1.7494    -3.2743 H       
  36 H36           10.0687     0.9223    -3.3764 H       
  37 H37            7.2716     0.9036    -7.4816 H       
  38 H38            6.2246     0.8734    -5.2904 H       
  39 H39           12.1087     0.9574    -4.7637 H       
  40 H40           13.1461     0.9826    -6.9632 H       
  41 H41            9.3132     0.9385    -8.8630 H       
  42 H42           13.7439    -0.0225    -9.4119 H       
  43 H43           13.6654     1.5230   -10.2914 H       
  44 H44           13.7785     1.5146    -8.5151 H       
  45 H45           10.4516     1.8549   -10.5226 H       
  46 H46           11.7474     0.9881   -11.3815 H       
  47 H47           10.4769     0.0751   -10.5326 H       
@<TRIPOS>BOND
   1    1    2 1
   2    1    5 1
   3    1   28 1
   4    1   29 1
   5    2    3 1
   6    2   30 1
   7    2   31 1
   8    3    4 am
   9    3   24 2
  10    4    5 am
  11    4    6 1
  12    5   23 2
  13    6    7 1
  14    7    8 2
  15    7    9 1
  16    9   10 1
  17    9   32 1
  18    9   33 1
  19   10   11 1
  20   10   34 1
  21   10   35 1
  22   11   12 2
  23   11   13 1
  24   13   14 ar
  25   13   18 ar
  26   14   15 ar
  27   14   36 1
  28   15   16 ar
  29   15   19 ar
  30   16   17 ar
  31   16   22 ar
  32   17   18 ar
  33   17   37 1
  34   18   38 1
  35   19   20 ar
  36   19   39 1
  37   20   21 ar
  38   20   40 1
  39   21   22 ar
  40   21   25 1
  41   22   41 1
  42   25   26 1
  43   25   27 1
  44   26   42 1
  45   26   43 1
  46   26   44 1
  47   27   45 1
  48   27   46 1
  49   27   47 1

#	End of record

