#	Name: ASD01150093
#	Creating user name:	WinNT
#	Creation time:	15. 06. 2019 19:03

#	Modifying user name:	WinNT
#	Modification time:	15. 06. 2019 19:03

#	Program:	/corina/corina34_cracker 3.40 0067  02.08.2006

@<TRIPOS>MOLECULE
ASD01150093
  36   36    0    0    0
SMALL
NO_CHARGES


@<TRIPOS>ATOM
   1 N1            -0.0169     1.3917     0.0097 N.pl3   
   2 C2             0.0021    -0.0041     0.0020 C.2     
   3 C3            -1.3293    -0.4032     0.0134 C.2     
   4 N4            -2.0811     0.7022     0.0270 N.2     
   5 C5            -1.3126     1.7682     0.0300 C.2     
   6 C6             1.1380    -0.8375    -0.0144 C.2     
   7 O7             2.3742    -0.2939    -0.0246 O.3     
   8 N8            -1.7931    -1.7097     0.0107 N.pl3   
   9 C9             1.1487     2.2792     0.0033 C.3     
  10 O10           -1.7527     3.0461     0.0428 O.3     
  11 C11           -3.1678     3.2449     0.0534 C.3     
  12 O12            1.0050    -2.0480    -0.0195 O.2     
  13 C13           -3.2337    -1.9756     0.0240 C.3     
  14 C14           -3.4735    -3.4867     0.0179 C.3     
  15 C15           -4.9780    -3.7644     0.0318 C.3     
  16 C16            3.4805    -1.1983    -0.0411 C.3     
  17 C17           -5.2178    -5.2755     0.0256 C.3     
  18 F18           -4.6278    -5.8459     1.1586 F       
  19 F19           -6.5935    -5.5294     0.0383 F       
  20 F20           -4.6513    -5.8329    -1.1258 F       
  21 H21           -1.1637    -2.4478     0.0001 H       
  22 H22            1.4279     2.5049    -1.0258 H       
  23 H23            0.9035     3.2047     0.5245 H       
  24 H24            1.9818     1.7886     0.5066 H       
  25 H25           -3.3846     4.3130     0.0631 H       
  26 H26           -3.6047     2.7935    -0.8374 H       
  27 H27           -3.5934     2.7796     0.9424 H       
  28 H28           -3.6750    -1.5414     0.9211 H       
  29 H29           -3.6933    -1.5312    -0.8587 H       
  30 H30           -3.0321    -3.9210    -0.8792 H       
  31 H31           -3.0138    -3.9312     0.9007 H       
  32 H32           -5.4193    -3.3302     0.9288 H       
  33 H33           -5.4376    -3.3200    -0.8510 H       
  34 H34            4.4122    -0.6326    -0.0479 H       
  35 H35            3.4459    -1.8308     0.8460 H       
  36 H36            3.4272    -1.8213    -0.9339 H       
@<TRIPOS>BOND
   1    1    2 1
   2    1    9 1
   3    1    5 1
   4    2    3 2
   5    2    6 1
   6    3    4 1
   7    3    8 1
   8    4    5 2
   9    5   10 1
  10    6    7 1
  11    6   12 2
  12    7   16 1
  13    8   13 1
  14    8   21 1
  15    9   22 1
  16    9   23 1
  17    9   24 1
  18   10   11 1
  19   11   25 1
  20   11   26 1
  21   11   27 1
  22   13   14 1
  23   13   28 1
  24   13   29 1
  25   14   15 1
  26   14   30 1
  27   14   31 1
  28   15   17 1
  29   15   32 1
  30   15   33 1
  31   16   34 1
  32   16   35 1
  33   16   36 1
  34   17   18 1
  35   17   19 1
  36   17   20 1

#	End of record

