#	Name: ASD01810812
#	Creating user name:	WinNT
#	Creation time:	15. 06. 2019 19:25

#	Modifying user name:	WinNT
#	Modification time:	15. 06. 2019 19:25

#	Program:	/corina/corina34_cracker 3.40 0067  02.08.2006

@<TRIPOS>MOLECULE
ASD01810812
  32   33    0    0    0
SMALL
NO_CHARGES


@<TRIPOS>ATOM
   1 C1            -0.0096     1.4718     0.0892 C.2     
   2 C2             0.0061    -0.0047     0.0405 C.ar    
   3 C3             1.2151    -0.6874    -0.1186 C.ar    
   4 C4             1.2317    -2.0670    -0.1644 C.ar    
   5 C5             0.0556    -2.7822    -0.0536 C.ar    
   6 C6            -1.1604    -2.1128     0.1059 C.ar    
   7 C7            -1.1838    -0.7201     0.1588 C.ar    
   8 O8             1.0357     2.0904     0.0968 O.2     
   9 O9            -1.1833     2.1323     0.1196 O.3     
  10 C10            2.5037     0.0844    -0.2410 C.3     
  11 C11            0.0837    -4.2880    -0.1052 C.3     
  12 C12            0.6571    -4.8488    -1.4173 C.3     
  13 C13            1.3655    -5.9121    -0.5614 C.3     
  14 C14            1.3026    -4.9059     0.5999 C.3     
  15 C15           -2.3791    -2.8559     0.2208 C.1     
  16 N16           -3.3459    -3.4454     0.3119 N.1     
  17 C17           -1.1228     3.5822     0.1669 C.3     
  18 H18            2.1688    -2.5894    -0.2879 H       
  19 H19           -2.1204    -0.1977     0.2863 H       
  20 H20            2.8679     0.3434     0.7532 H       
  21 H21            3.2468    -0.5279    -0.7520 H       
  22 H22            2.3285     0.9958    -0.8127 H       
  23 H23           -0.8653    -4.7392     0.1847 H       
  24 H24           -0.1006    -5.2594    -2.0847 H       
  25 H25            1.3418    -4.1668    -1.9213 H       
  26 H26            0.7678    -6.8083    -0.3955 H       
  27 H27            2.3801    -6.1340    -0.8924 H       
  28 H28            2.1639    -4.2395     0.6473 H       
  29 H29            1.0661    -5.3626     1.5609 H       
  30 H30           -0.5877     3.8945     1.0637 H       
  31 H31           -0.6008     3.9531    -0.7152 H       
  32 H32           -2.1344     3.9876     0.1877 H       
@<TRIPOS>BOND
   1    1    2 1
   2    1    8 2
   3    1    9 1
   4    2    3 ar
   5    2    7 ar
   6    3    4 ar
   7    3   10 1
   8    4    5 ar
   9    4   18 1
  10    5    6 ar
  11    5   11 1
  12    6    7 ar
  13    6   15 1
  14    7   19 1
  15    9   17 1
  16   10   20 1
  17   10   21 1
  18   10   22 1
  19   11   12 1
  20   11   14 1
  21   11   23 1
  22   12   13 1
  23   12   24 1
  24   12   25 1
  25   13   14 1
  26   13   26 1
  27   13   27 1
  28   14   28 1
  29   14   29 1
  30   15   16 3
  31   17   30 1
  32   17   31 1
  33   17   32 1

#	End of record

