#	Name: ASD01885313
#	Creating user name:	WinNT
#	Creation time:	15. 06. 2019 19:49

#	Modifying user name:	WinNT
#	Modification time:	15. 06. 2019 19:49

#	Program:	/corina/corina34_cracker 3.40 0067  02.08.2006

@<TRIPOS>MOLECULE
ASD01885313
  55   59    0    0    0
SMALL
NO_CHARGES


@<TRIPOS>ATOM
   1 C1            -0.0164     1.3561     0.0095 C.ar    
   2 C2             0.0021    -0.0041     0.0020 C.ar    
   3 C3             1.2056    -0.7066    -0.0132 C.ar    
   4 C4             2.3988    -0.0488    -0.0206 C.ar    
   5 C5             2.4185     1.3521    -0.0133 C.ar    
   6 C6             1.1968     2.0713     0.0018 C.ar    
   7 C7             3.6407     2.0708    -0.0210 C.ar    
   8 C8             3.5790     3.4576    -0.0135 C.ar    
   9 C9             2.3316     4.0919     0.0013 C.ar    
  10 N10            1.2052     3.4045     0.0092 N.ar    
  11 C11            4.9419     1.3643    -0.0362 C.ar    
  12 C12            2.2743     5.5736     0.0097 C.2     
  13 O13            3.3022     6.2214     0.0038 O.2     
  14 N14            1.0819     6.2018     0.0240 N.am    
  15 C15           -1.2996    -0.7633     0.0109 C.3     
  16 C16            5.9187     1.7166    -0.9680 C.ar    
  17 C17            7.1293     1.0559    -0.9778 C.ar    
  18 C18            7.3763     0.0436    -0.0639 C.ar    
  19 C19            6.4090    -0.3103     0.8635 C.ar    
  20 C20            5.1974     0.3482     0.8850 C.ar    
  21 F21            8.5637    -0.6006    -0.0775 F       
  22 N22           -1.7364    -1.0026    -1.3712 N.3     
  23 C23           -0.8102    -1.9051    -2.0669 C.3     
  24 C24           -1.3707    -2.2467    -3.4494 C.3     
  25 C25           -1.5557    -0.9564    -4.2528 C.3     
  26 C26           -2.4858    -0.0143    -3.4835 C.3     
  27 C27           -1.8930     0.2625    -2.1001 C.3     
  28 N28           -2.6224     1.2457    -4.2182 N.pl3   
  29 C29           -1.6735     1.8621    -4.9441 C.2     
  30 N30           -2.1893     2.9572    -5.4403 N.2     
  31 C31           -3.4595     3.0736    -5.0550 C.2     
  32 N32           -3.7724     2.0467    -4.3091 N.2     
  33 H33           -0.9577     1.8854     0.0168 H       
  34 H34            1.1924    -1.7865    -0.0189 H       
  35 H35            3.3248    -0.6045    -0.0317 H       
  36 H36            4.4868     4.0426    -0.0187 H       
  37 H37            0.2613     5.6846     0.0287 H       
  38 H38            1.0444     7.1710     0.0295 H       
  39 H39           -1.1600    -1.7179     0.5182 H       
  40 H40           -2.0567    -0.1804     0.5354 H       
  41 H41            5.7270     2.5050    -1.6808 H       
  42 H42            7.8859     1.3276    -1.6990 H       
  43 H43            6.6059    -1.1003     1.5731 H       
  44 H44            4.4460     0.0748     1.6110 H       
  45 H45            0.1580    -1.4169    -2.1781 H       
  46 H46           -0.6908    -2.8204    -1.4872 H       
  47 H47           -0.6756    -2.9041    -3.9716 H       
  48 H48           -2.3326    -2.7474    -3.3386 H       
  49 H49           -0.5883    -0.4754    -4.3972 H       
  50 H50           -1.9953    -1.1908    -5.2223 H       
  51 H51           -3.4652    -0.4799    -3.3732 H       
  52 H52           -2.5600     0.9216    -1.5444 H       
  53 H53           -0.9198     0.7406    -2.2111 H       
  54 H54           -0.6617     1.5142    -5.0914 H       
  55 H55           -4.1239     3.8828    -5.3195 H       
@<TRIPOS>BOND
   1    1    2 ar
   2    1    6 ar
   3    1   33 1
   4    2    3 ar
   5    2   15 1
   6    3    4 ar
   7    3   34 1
   8    4    5 ar
   9    4   35 1
  10    5    7 ar
  11    5    6 ar
  12    6   10 ar
  13    7    8 ar
  14    7   11 1
  15    8    9 ar
  16    8   36 1
  17    9   10 ar
  18    9   12 1
  19   11   16 ar
  20   11   20 ar
  21   12   13 2
  22   12   14 am
  23   14   37 1
  24   14   38 1
  25   15   22 1
  26   15   39 1
  27   15   40 1
  28   16   17 ar
  29   16   41 1
  30   17   18 ar
  31   17   42 1
  32   18   19 ar
  33   18   21 1
  34   19   20 ar
  35   19   43 1
  36   20   44 1
  37   22   23 1
  38   22   27 1
  39   23   24 1
  40   23   45 1
  41   23   46 1
  42   24   25 1
  43   24   47 1
  44   24   48 1
  45   25   26 1
  46   25   49 1
  47   25   50 1
  48   26   27 1
  49   26   28 1
  50   26   51 1
  51   27   52 1
  52   27   53 1
  53   28   29 1
  54   28   32 1
  55   29   30 2
  56   29   54 1
  57   30   31 1
  58   31   32 2
  59   31   55 1

#	End of record

