#	Name: ASD08070184
#	Creating user name:	WinNT
#	Creation time:	15. 06. 2019 21:14

#	Modifying user name:	WinNT
#	Modification time:	15. 06. 2019 21:14

#	Program:	/corina/corina34_cracker 3.40 0067  02.08.2006

@<TRIPOS>MOLECULE
ASD08070184
  38   38    0    0    0
SMALL
NO_CHARGES


@<TRIPOS>ATOM
   1 C1            -0.0171     1.5074    -0.0954 C.ar    
   2 C2             2.4693     1.4955     0.0627 C.2     
   3 C3             1.1782     2.2156     0.0399 C.ar    
   4 C4             5.2726     1.1297     1.5370 C.3     
   5 C5             4.9056     1.4732     0.0919 C.3     
   6 N6             3.6263     2.1867     0.0693 N.am    
   7 C7             4.2489     0.1432     2.1025 C.3     
   8 O8             6.1885     3.5093     0.3133 O.3     
   9 C9             5.9951     2.3602    -0.5139 C.3     
  10 C10            7.1906     4.4083    -0.1657 C.3     
  11 O11            2.4872     0.2802     0.0754 O.2     
  12 C12            1.1493     3.6063     0.1531 C.ar    
  13 C13           -0.0589     4.2722     0.1306 C.ar    
  14 C14           -1.2399     3.5644    -0.0037 C.ar    
  15 C15           -1.2178     2.1858    -0.1221 C.ar    
  16 C16           -2.5559     4.2984    -0.0274 C.3     
  17 C17            0.0046     0.0056    -0.2181 C.3     
  18 H18            6.2645     0.6786     1.5625 H       
  19 H19            5.2715     2.0390     2.1381 H       
  20 H20            4.8198     0.5550    -0.4892 H       
  21 H21            3.6120     3.1565     0.0592 H       
  22 H22            4.2501    -0.7660     1.5014 H       
  23 H23            4.5104    -0.1014     3.1320 H       
  24 H24            3.2570     0.5944     2.0769 H       
  25 H25            6.9268     1.7983    -0.5788 H       
  26 H26            5.6920     2.6777    -1.5117 H       
  27 H27            8.1472     3.8889    -0.2234 H       
  28 H28            6.9124     4.7683    -1.1562 H       
  29 H29            7.2768     5.2536     0.5171 H       
  30 H30            2.0706     4.1600     0.2583 H       
  31 H31           -0.0827     5.3484     0.2185 H       
  32 H32           -2.1434     1.6391    -0.2267 H       
  33 H33           -2.8076     4.5599    -1.0552 H       
  34 H34           -3.3359     3.6593     0.3864 H       
  35 H35           -2.4759     5.2069     0.5695 H       
  36 H36            0.0656    -0.4393     0.7751 H       
  37 H37           -0.9066    -0.3318    -0.7120 H       
  38 H38            0.8705    -0.2984    -0.8063 H       
@<TRIPOS>BOND
   1    1   17 1
   2    1    3 ar
   3    1   15 ar
   4    2    3 1
   5    2   11 2
   6    2    6 am
   7    3   12 ar
   8    4    5 1
   9    4    7 1
  10    4   18 1
  11    4   19 1
  12    5    6 1
  13    5    9 1
  14    5   20 1
  15    6   21 1
  16    7   22 1
  17    7   23 1
  18    7   24 1
  19    8    9 1
  20    8   10 1
  21    9   25 1
  22    9   26 1
  23   10   27 1
  24   10   28 1
  25   10   29 1
  26   12   13 ar
  27   12   30 1
  28   13   14 ar
  29   13   31 1
  30   14   15 ar
  31   14   16 1
  32   15   32 1
  33   16   33 1
  34   16   34 1
  35   16   35 1
  36   17   36 1
  37   17   37 1
  38   17   38 1

#	End of record

