#	Name: ASD08150662
#	Creating user name:	WinNT
#	Creation time:	15. 06. 2019 21:16

#	Modifying user name:	WinNT
#	Modification time:	15. 06. 2019 21:16

#	Program:	/corina/corina34_cracker 3.40 0067  02.08.2006

@<TRIPOS>MOLECULE
ASD08150662
  80   85    0    0    0
SMALL
NO_CHARGES


@<TRIPOS>ATOM
   1 N1            -0.2269     0.0220    -9.2919 N.am    
   2 C2            -0.0645     0.7961    -8.0518 C.3     
   3 C3             0.9284     0.0606    -7.1454 C.3     
   4 N4             2.1707    -0.1910    -7.8878 N.3     
   5 C5             1.9350    -1.0754    -9.0368 C.3     
   6 C6             0.9835    -0.3865   -10.0208 C.3     
   7 C7            -1.4522    -0.3090    -9.7452 C.2     
   8 O8            -2.4413     0.0325    -9.1275 O.2     
   9 O9            -1.5803    -1.0181   -10.8825 O.3     
  10 C10            3.1602    -0.7135    -7.0474 C.ar    
  11 C11            4.0629     0.1385    -6.4241 C.ar    
  12 C12            5.0390    -0.3768    -5.5951 C.ar    
  13 C13            5.1183    -1.7475    -5.3841 C.ar    
  14 C14            4.2157    -2.5993    -6.0072 C.ar    
  15 C15            3.2359    -2.0832    -6.8320 C.ar    
  16 C16            3.9772     1.6255    -6.6534 C.3     
  17 F17            5.0535     2.2576    -6.0216 F       
  18 F18            4.0224     1.8890    -8.0266 F       
  19 F19            2.7761     2.1104    -6.1249 F       
  20 N20            6.1084    -2.2703    -4.5437 N.pl3   
  21 N21            2.2679    -1.2880     0.1869 N.ar    
  22 C22            3.0201    -1.9994    -0.6134 C.ar    
  23 C23            3.1282    -3.3929    -0.4754 C.ar    
  24 C24            2.4235    -4.0366     0.5311 C.ar    
  25 C25            1.6215    -3.2533     1.3795 C.ar    
  26 C26            0.8793    -3.8343     2.4212 C.ar    
  27 C27            0.1137    -3.0444     3.2238 C.ar    
  28 C28            0.0564    -1.6668     3.0250 C.ar    
  29 C29            0.7622    -1.0709     2.0249 C.ar    
  30 C30            1.5649    -1.8515     1.1756 C.ar    
  31 N31            6.3707    -6.3737    -3.9425 N.ar    
  32 C32            7.0355    -5.8063    -4.9220 C.ar    
  33 C33            6.9734    -4.4393    -5.1549 C.ar    
  34 C34            6.1909    -3.6387    -4.3373 C.ar    
  35 C35            5.4785    -4.2633    -3.2839 C.ar    
  36 C36            4.6684    -3.5221    -2.4166 C.ar    
  37 C37            3.9891    -4.1705    -1.3993 C.ar    
  38 C38            4.1106    -5.5589    -1.2371 C.ar    
  39 C39            4.8931    -6.2931    -2.0706 C.ar    
  40 C40            5.5958    -5.6642    -3.1139 C.ar    
  41 C41            7.7533    -3.8284    -6.2906 C.3     
  42 O42            8.4900    -4.8497    -6.9661 O.3     
  43 C43           -2.9301    -1.3388   -11.3108 C.3     
  44 C44           -3.7126    -0.0447   -11.5429 C.3     
  45 C45           -2.8750    -2.1418   -12.6120 C.3     
  46 C46           -3.6251    -2.1679   -10.2289 C.3     
  47 H47            0.3204     1.7883    -8.2874 H       
  48 H48           -1.0262     0.8838    -7.5463 H       
  49 H49            1.1452     0.6737    -6.2706 H       
  50 H50            0.4963    -0.8881    -6.8271 H       
  51 H51            2.8820    -1.2863    -9.5337 H       
  52 H52            1.4890    -2.0084    -8.6922 H       
  53 H53            0.7146    -1.0806   -10.8170 H       
  54 H54            1.4691     0.4920   -10.4456 H       
  55 H55            5.7411     0.2856    -5.1108 H       
  56 H56            4.2776    -3.6650    -5.8435 H       
  57 H57            2.5312    -2.7452    -7.3132 H       
  58 H58            6.7367    -1.6750    -4.1057 H       
  59 H59            3.5706    -1.5033    -1.3990 H       
  60 H60            2.4886    -5.1070     0.6588 H       
  61 H61            0.9155    -4.9012     2.5844 H       
  62 H62           -0.4566    -3.4917     4.0245 H       
  63 H63           -0.5585    -1.0616     3.6746 H       
  64 H64            0.7060    -0.0015     1.8852 H       
  65 H65            7.6486    -6.4206    -5.5647 H       
  66 H66            4.5741    -2.4533    -2.5395 H       
  67 H67            3.5751    -6.0507    -0.4385 H       
  68 H68            4.9756    -7.3609    -1.9317 H       
  69 H69            7.0651    -3.3539    -6.9901 H       
  70 H70            8.4436    -3.0822    -5.8973 H       
  71 H71            9.0167    -4.5278    -7.7104 H       
  72 H72           -3.2174     0.5460   -12.3137 H       
  73 H73           -4.7258    -0.2854   -11.8645 H       
  74 H74           -3.7518     0.5274   -10.6160 H       
  75 H75           -2.3176    -3.0638   -12.4467 H       
  76 H76           -3.8883    -2.3826   -12.9336 H       
  77 H77           -2.3799    -1.5511   -13.3828 H       
  78 H78           -3.6643    -1.5959    -9.3020 H       
  79 H79           -4.6384    -2.4087   -10.5505 H       
  80 H80           -3.0677    -3.0899   -10.0636 H       
@<TRIPOS>BOND
   1    1    2 1
   2    1    6 1
   3    1    7 am
   4    2    3 1
   5    2   47 1
   6    2   48 1
   7    3    4 1
   8    3   49 1
   9    3   50 1
  10    4    5 1
  11    4   10 1
  12    5    6 1
  13    5   51 1
  14    5   52 1
  15    6   53 1
  16    6   54 1
  17    7    8 2
  18    7    9 1
  19    9   43 1
  20   10   11 ar
  21   10   15 ar
  22   11   12 ar
  23   11   16 1
  24   12   13 ar
  25   12   55 1
  26   13   14 ar
  27   13   20 1
  28   14   15 ar
  29   14   56 1
  30   15   57 1
  31   16   17 1
  32   16   18 1
  33   16   19 1
  34   20   34 1
  35   20   58 1
  36   21   22 ar
  37   21   30 ar
  38   22   23 ar
  39   22   59 1
  40   23   24 ar
  41   23   37 1
  42   24   25 ar
  43   24   60 1
  44   25   26 ar
  45   25   30 ar
  46   26   27 ar
  47   26   61 1
  48   27   28 ar
  49   27   62 1
  50   28   29 ar
  51   28   63 1
  52   29   30 ar
  53   29   64 1
  54   31   32 ar
  55   31   40 ar
  56   32   33 ar
  57   32   65 1
  58   33   34 ar
  59   33   41 1
  60   34   35 ar
  61   35   36 ar
  62   35   40 ar
  63   36   37 ar
  64   36   66 1
  65   37   38 ar
  66   38   39 ar
  67   38   67 1
  68   39   40 ar
  69   39   68 1
  70   41   42 1
  71   41   69 1
  72   41   70 1
  73   42   71 1
  74   43   44 1
  75   43   46 1
  76   43   45 1
  77   44   72 1
  78   44   73 1
  79   44   74 1
  80   45   75 1
  81   45   76 1
  82   45   77 1
  83   46   78 1
  84   46   79 1
  85   46   80 1

#	End of record

