#	Name: ASD01811583
#	Creating user name:	WinNT
#	Creation time:	15. 06. 2019 19:27

#	Modifying user name:	WinNT
#	Modification time:	15. 06. 2019 19:27

#	Program:	/corina/corina34_cracker 3.40 0067  02.08.2006

@<TRIPOS>MOLECULE
ASD01811583
  63   67    0    0    0
SMALL
NO_CHARGES


@<TRIPOS>ATOM
   1 C1             0.6403     4.2913    -0.9997 C.2     
   2 C2             0.6938     5.7958    -0.9312 C.3     
   3 C3             1.7668     4.1961     1.1799 C.3     
   4 C4             3.0415     3.4483     1.4829 C.2     
   5 C5             3.3827     2.2684     0.9164 C.2     
   6 C6             2.5415     1.5394    -0.1024 C.3     
   7 C7             1.1088     2.0829    -0.0418 C.3     
   8 N8             1.1512     3.5523     0.0050 N.am    
   9 C9             4.9775     2.8009     2.2742 C.2     
  10 N10            4.0416     3.7949     2.3381 N.pl3   
  11 N11            4.5621     1.8939     1.4151 N.2     
  12 C12            6.2424     2.7528     3.0394 C.ar    
  13 C13            7.0659     1.6259     2.9615 C.ar    
  14 C14            8.2483     1.5800     3.6762 C.ar    
  15 C15            8.6234     2.6449     4.4700 C.ar    
  16 C16            7.8093     3.7767     4.5564 C.ar    
  17 C17            6.6183     3.8320     3.8344 C.ar    
  18 C18            9.9141     2.5862     5.2458 C.3     
  19 C19            8.2126     4.9155     5.4080 C.2     
  20 O20            9.3057     5.4267     5.2616 O.2     
  21 N21            7.3683     5.3872     6.3467 N.am    
  22 C22            7.7021     6.5941     7.1153 C.3     
  23 C23            7.5993     6.2714     8.6093 C.3     
  24 C24            6.2120     5.6989     8.9091 C.3     
  25 C25            6.0116     4.4029     8.1201 C.3     
  26 C26            6.0939     4.7077     6.6167 C.3     
  27 C27            6.0953     5.4119    10.3839 C.ar    
  28 C28            5.1210     6.0422    11.1353 C.ar    
  29 C29            5.0128     5.7795    12.4877 C.ar    
  30 C30            5.8807     4.8846    13.0902 C.ar    
  31 C31            6.8562     4.2539    12.3367 C.ar    
  32 C32            6.9591     4.5143    10.9834 C.ar    
  33 F33            5.7761     4.6273    14.4124 F       
  34 Cl34           6.6027     0.2814     1.9657 Cl      
  35 O35            0.1330     3.7455    -1.9567 O.2     
  36 H36            1.6195     6.1475    -1.3869 H       
  37 H37           -0.1574     6.2144    -1.4681 H       
  38 H38            0.6582     6.1135     0.1108 H       
  39 H39            1.0902     4.1368     2.0325 H       
  40 H40            1.9925     5.2387     0.9560 H       
  41 H41            2.9520     1.7023    -1.0989 H       
  42 H42            2.5374     0.4730     0.1232 H       
  43 H43            0.5600     1.7625    -0.9273 H       
  44 H44            0.6130     1.7039     0.8519 H       
  45 H45            4.0826     4.5936     2.8870 H       
  46 H46            8.8810     0.7070     3.6135 H       
  47 H47            5.9877     4.7067     3.8948 H       
  48 H48           10.7366     2.9090     4.6075 H       
  49 H49            9.8472     3.2437     6.1126 H       
  50 H50           10.0920     1.5635     5.5783 H       
  51 H51            8.7185     6.9086     6.8785 H       
  52 H52            7.0028     7.3918     6.8648 H       
  53 H53            8.3607     5.5386     8.8764 H       
  54 H54            7.7503     7.1817     9.1893 H       
  55 H55            5.4501     6.4223     8.6188 H       
  56 H56            6.7880     3.6878     8.3919 H       
  57 H57            5.0327     3.9835     8.3521 H       
  58 H58            5.2661     5.3547     6.3264 H       
  59 H59            6.0489     3.7771     6.0508 H       
  60 H60            4.4443     6.7405    10.6652 H       
  61 H61            4.2517     6.2723    13.0746 H       
  62 H62            7.5337     3.5557    12.8056 H       
  63 H63            7.7173     4.0194    10.3946 H       
@<TRIPOS>BOND
   1    1    2 1
   2    1    8 am
   3    1   35 2
   4    2   36 1
   5    2   37 1
   6    2   38 1
   7    3    4 1
   8    3    8 1
   9    3   39 1
  10    3   40 1
  11    4    5 2
  12    4   10 1
  13    5    6 1
  14    5   11 1
  15    6    7 1
  16    6   41 1
  17    6   42 1
  18    7    8 1
  19    7   43 1
  20    7   44 1
  21    9   10 1
  22    9   11 2
  23    9   12 1
  24   10   45 1
  25   12   13 ar
  26   12   17 ar
  27   13   14 ar
  28   13   34 1
  29   14   15 ar
  30   14   46 1
  31   15   16 ar
  32   15   18 1
  33   16   17 ar
  34   16   19 1
  35   17   47 1
  36   18   48 1
  37   18   49 1
  38   18   50 1
  39   19   20 2
  40   19   21 am
  41   21   22 1
  42   21   26 1
  43   22   23 1
  44   22   51 1
  45   22   52 1
  46   23   24 1
  47   23   53 1
  48   23   54 1
  49   24   25 1
  50   24   27 1
  51   24   55 1
  52   25   26 1
  53   25   56 1
  54   25   57 1
  55   26   58 1
  56   26   59 1
  57   27   28 ar
  58   27   32 ar
  59   28   29 ar
  60   28   60 1
  61   29   30 ar
  62   29   61 1
  63   30   31 ar
  64   30   33 1
  65   31   32 ar
  66   31   62 1
  67   32   63 1

#	End of record

