#	Name: ASD00060016
#	Creating user name:	WinNT
#	Creation time:	15. 06. 2019 18:29

#	Modifying user name:	WinNT
#	Modification time:	15. 06. 2019 18:29

#	Program:	/corina/corina34_cracker 3.40 0067  02.08.2006

@<TRIPOS>MOLECULE
ASD00060016
  32   34    0    0    0
SMALL
NO_CHARGES


@<TRIPOS>ATOM
   1 C1            -0.0169     1.3918     0.0097 C.ar    
   2 C2             0.0021    -0.0041     0.0020 C.ar    
   3 C3            -1.1849    -0.7069     0.0101 C.ar    
   4 C4            -2.3924    -0.0314     0.0252 C.ar    
   5 C5            -2.4182     1.3521     0.0325 C.ar    
   6 C6            -1.2385     2.0671     0.0308 C.ar    
   7 C7             1.2520     2.1519     0.0017 C.2     
   8 C8             1.6168     2.9844     1.1556 C.2     
   9 C9             2.0921     2.0792    -1.0887 C.2     
  10 C10            1.7421     1.2804    -2.1960 C.2     
  11 O11            2.5651     1.2091    -3.2642 O.3     
  12 O12            0.6977     0.6548    -2.1894 O.2     
  13 O13            1.8847     2.5207     2.3935 O.3     
  14 C14            2.1871     3.5334     3.2309 C.ar    
  15 C15            2.1120     4.7310     2.4948 C.ar    
  16 C16            1.7412     4.3389     1.1358 C.2     
  17 C17            2.5292     3.5832     4.5761 C.ar    
  18 C18            2.7905     4.7962     5.1769 C.ar    
  19 C19            2.7162     5.9783     4.4515 C.ar    
  20 C20            2.3794     5.9535     3.1159 C.ar    
  21 Cl21           3.0493     7.4933     5.2310 Cl      
  22 H22            0.9439    -0.5325    -0.0105 H       
  23 H23           -1.1716    -1.7868     0.0041 H       
  24 H24           -3.3189    -0.5864     0.0311 H       
  25 H25           -3.3641     1.8733     0.0439 H       
  26 H26           -1.2600     3.1468     0.0368 H       
  27 H27            3.0186     2.6342    -1.0945 H       
  28 H28            2.2407     0.6372    -3.9732 H       
  29 H29            1.5904     4.9927     0.2896 H       
  30 H30            2.5902     2.6714     5.1517 H       
  31 H31            3.0556     4.8276     6.2234 H       
  32 H32            2.3219     6.8732     2.5528 H       
@<TRIPOS>BOND
   1    1    2 ar
   2    1    7 1
   3    1    6 ar
   4    2    3 ar
   5    2   22 1
   6    3    4 ar
   7    3   23 1
   8    4    5 ar
   9    4   24 1
  10    5    6 ar
  11    5   25 1
  12    6   26 1
  13    7    8 1
  14    7    9 2
  15    8   13 1
  16    8   16 2
  17    9   10 1
  18    9   27 1
  19   10   11 1
  20   10   12 2
  21   11   28 1
  22   13   14 1
  23   14   15 ar
  24   14   17 ar
  25   15   16 1
  26   15   20 ar
  27   16   29 1
  28   17   18 ar
  29   17   30 1
  30   18   19 ar
  31   18   31 1
  32   19   20 ar
  33   19   21 1
  34   20   32 1

#	End of record

