#	Name: ASD03330777
#	Creating user name:	WinNT
#	Creation time:	15. 06. 2019 20:37

#	Modifying user name:	WinNT
#	Modification time:	15. 06. 2019 20:37

#	Program:	/corina/corina34_cracker 3.40 0067  02.08.2006

@<TRIPOS>MOLECULE
ASD03330777
  57   59    0    0    0
SMALL
NO_CHARGES


@<TRIPOS>ATOM
   1 C1            -0.0159     1.3546     0.0393 C.2     
   2 N2             0.0042    -0.0047     0.0504 N.pl3   
   3 C3             1.2781     1.7736    -0.0303 C.2     
   4 N4             2.0647     0.6762    -0.0780 N.2     
   5 C5             1.3084    -0.3957    -0.0360 C.2     
   6 C6             1.7895    -1.7937    -0.0755 C.ar    
   7 C7             1.7379     3.1734    -0.0504 C.2     
   8 O8             0.9287     4.0801    -0.0025 O.2     
   9 C9             3.5125     4.8407    -0.1418 C.3     
  10 N10            3.0553     3.4490    -0.1218 N.am    
  11 C11            4.8782     4.9190    -0.8271 C.3     
  12 C12            3.6295     5.3513     1.2712 C.2     
  13 O13            3.3577     4.6243     2.2032 O.2     
  14 C14           -1.1733    -0.8712     0.1522 C.3     
  15 C15           -2.2421    -0.3839    -0.8312 C.3     
  16 C16           -3.1086     0.6803    -0.1655 C.3     
  17 N17           -2.3245     1.4886     0.7704 N.3     
  18 C18           -1.2509     2.2169     0.0780 C.3     
  19 C19            2.7352    -2.1836    -1.0276 C.ar    
  20 C20            1.3056    -2.7271     0.8410 C.ar    
  21 C21            1.7596    -4.0317     0.7990 C.ar    
  22 C22            2.6934    -4.4132    -0.1508 C.ar    
  23 C23            3.1811    -3.4914    -1.0589 C.ar    
  24 C24           -3.1874     2.4109     1.5205 C.3     
  25 N25            4.0361     6.6159     1.4993 N.am    
  26 C26            4.7349     4.5189    -2.2969 C.3     
  27 C27            3.8591     5.5432    -3.0213 C.3     
  28 C28            6.1174     4.4765    -2.9510 C.3     
  29 F29            1.2922    -4.9368     1.6864 F       
  30 F30            3.2122    -1.2842    -1.9158 F       
  31 H31            2.7951     5.4509    -0.6904 H       
  32 H32            3.7007     2.7259    -0.1599 H       
  33 H33            5.2586     5.9385    -0.7635 H       
  34 H34            5.5727     4.2405    -0.3318 H       
  35 H35           -0.8937    -1.8960    -0.0920 H       
  36 H36           -1.5676    -0.8322     1.1676 H       
  37 H37           -1.7586     0.0406    -1.7110 H       
  38 H38           -2.8676    -1.2242    -1.1324 H       
  39 H39           -3.5300     1.3297    -0.9328 H       
  40 H40           -3.9203     0.1937     0.3753 H       
  41 H41           -1.0335     3.1412     0.6133 H       
  42 H42           -1.5654     2.4490    -0.9395 H       
  43 H43            0.5780    -2.4309     1.5821 H       
  44 H44            3.0450    -5.4340    -0.1794 H       
  45 H45            3.9088    -3.7951    -1.7969 H       
  46 H46           -3.9253     1.8404     2.0846 H       
  47 H47           -2.5797     2.9990     2.2081 H       
  48 H48           -3.6977     3.0776     0.8253 H       
  49 H49            4.2535     7.1973     0.7539 H       
  50 H50            4.1114     6.9446     2.4088 H       
  51 H51            4.2718     3.5343    -2.3619 H       
  52 H52            3.7571     5.2581    -4.0684 H       
  53 H53            2.8742     5.5734    -2.5553 H       
  54 H54            4.3222     6.5278    -2.9562 H       
  55 H55            6.7413     3.7468    -2.4349 H       
  56 H56            6.0153     4.1915    -3.9981 H       
  57 H57            6.5804     5.4611    -2.8860 H       
@<TRIPOS>BOND
   1    1    2 1
   2    1    3 2
   3    1   18 1
   4    2   14 1
   5    2    5 1
   6    3    4 1
   7    3    7 1
   8    4    5 2
   9    5    6 1
  10    6   20 ar
  11    6   19 ar
  12    7    8 2
  13    7   10 am
  14    9   10 1
  15    9   11 1
  16    9   12 1
  17    9   31 1
  18   10   32 1
  19   11   26 1
  20   11   33 1
  21   11   34 1
  22   12   13 2
  23   12   25 am
  24   14   15 1
  25   14   35 1
  26   14   36 1
  27   15   16 1
  28   15   37 1
  29   15   38 1
  30   16   17 1
  31   16   39 1
  32   16   40 1
  33   17   18 1
  34   17   24 1
  35   18   41 1
  36   18   42 1
  37   19   30 1
  38   19   23 ar
  39   20   21 ar
  40   20   43 1
  41   21   22 ar
  42   21   29 1
  43   22   23 ar
  44   22   44 1
  45   23   45 1
  46   24   46 1
  47   24   47 1
  48   24   48 1
  49   25   49 1
  50   25   50 1
  51   26   28 1
  52   26   27 1
  53   26   51 1
  54   27   52 1
  55   27   53 1
  56   27   54 1
  57   28   55 1
  58   28   56 1
  59   28   57 1

#	End of record

