#	Name: ASD08510003
#	Creating user name:	WinNT
#	Creation time:	15. 06. 2019 21:19

#	Modifying user name:	WinNT
#	Modification time:	15. 06. 2019 21:19

#	Program:	/corina/corina34_cracker 3.40 0067  02.08.2006

@<TRIPOS>MOLECULE
ASD08510003
  46   49    0    0    0
SMALL
NO_CHARGES


@<TRIPOS>ATOM
   1 C1            -0.0166     1.3756     0.0096 C.ar    
   2 C2             0.0021    -0.0041     0.0020 C.ar    
   3 C3             1.2219    -0.6819    -0.0133 C.ar    
   4 C4             2.4065     0.0158    -0.0205 C.ar    
   5 C5             1.1778     2.0938     0.0021 C.ar    
   6 O6            -1.1658    -0.7019     0.0099 O.3     
   7 C7            -2.3757     0.0583     0.0261 C.3     
   8 C8             2.5201    -2.6751    -0.0365 C.3     
   9 O9             1.2389    -2.0424    -0.0208 O.3     
  10 S10            1.4859     3.8288     0.0091 S.3     
  11 C11            2.4059     1.4277    -0.0129 C.ar    
  12 N12            3.4592     2.2701    -0.0176 N.2     
  13 C13            3.2191     3.5351    -0.0089 C.2     
  14 N14            4.1887     4.5241    -0.0131 N.am    
  15 C15            5.4938     4.1882    -0.0272 C.2     
  16 C16            6.5244     5.2394    -0.0316 C.2     
  17 O17            5.8202     3.0166    -0.0363 O.2     
  18 N18            6.2372     6.5438    -0.0165 N.2     
  19 C19            7.8506     4.9747    -0.0456 C.2     
  20 S20            8.7082     6.4534    -0.0462 S.3     
  21 C21            7.2483     7.3391    -0.0229 C.2     
  22 C22            7.1571     8.8433    -0.0094 C.3     
  23 O23            7.1455     9.3077     1.3420 O.3     
  24 C24            7.0663    10.6515     1.5321 C.ar    
  25 C25            6.9143    12.8694     0.6350 C.ar    
  26 C26            6.9953    11.5041     0.4403 C.ar    
  27 C27            7.0505    11.1708     2.8182 C.ar    
  28 C28            6.9695    12.5365     3.0100 C.ar    
  29 C29            6.9035    13.3867     1.9192 C.ar    
  30 F30            6.8243    14.7221     2.1082 F       
  31 H31           -0.9603     1.9009     0.0169 H       
  32 H32            3.3443    -0.5199    -0.0316 H       
  33 H33           -2.4011     0.6818     0.9197 H       
  34 H34           -2.4189     0.6914    -0.8602 H       
  35 H35           -3.2301    -0.6186     0.0309 H       
  36 H36            2.3908    -3.7574    -0.0410 H       
  37 H37            3.0649    -2.3705    -0.9301 H       
  38 H38            3.0819    -2.3800     0.8498 H       
  39 H39            3.9284     5.4585    -0.0058 H       
  40 H40            8.2950     3.9904    -0.0548 H       
  41 H41            8.0169     9.2641    -0.5308 H       
  42 H42            6.2403     9.1562    -0.5090 H       
  43 H43            6.8594    13.5335    -0.2149 H       
  44 H44            7.0037    11.1008    -0.5615 H       
  45 H45            7.1012    10.5078     3.6692 H       
  46 H46            6.9572    12.9412     4.0113 H       
@<TRIPOS>BOND
   1    1    2 ar
   2    1    5 ar
   3    1   31 1
   4    2    3 ar
   5    2    6 1
   6    3    4 ar
   7    3    9 1
   8    4   11 ar
   9    4   32 1
  10    5   10 1
  11    5   11 ar
  12    6    7 1
  13    7   33 1
  14    7   34 1
  15    7   35 1
  16    8    9 1
  17    8   36 1
  18    8   37 1
  19    8   38 1
  20   10   13 1
  21   11   12 1
  22   12   13 2
  23   13   14 1
  24   14   15 am
  25   14   39 1
  26   15   16 1
  27   15   17 2
  28   16   19 2
  29   16   18 1
  30   18   21 2
  31   19   20 1
  32   19   40 1
  33   20   21 1
  34   21   22 1
  35   22   23 1
  36   22   41 1
  37   22   42 1
  38   23   24 1
  39   24   27 ar
  40   24   26 ar
  41   25   26 ar
  42   25   29 ar
  43   25   43 1
  44   26   44 1
  45   27   28 ar
  46   27   45 1
  47   28   29 ar
  48   28   46 1
  49   29   30 1

#	End of record

