#	Name: ASD01812897
#	Creating user name:	WinNT
#	Creation time:	15. 06. 2019 19:29

#	Modifying user name:	WinNT
#	Modification time:	15. 06. 2019 19:29

#	Program:	/corina/corina34_cracker 3.40 0067  02.08.2006

@<TRIPOS>MOLECULE
ASD01812897
  56   60    0    0    0
SMALL
NO_CHARGES


@<TRIPOS>ATOM
   1 N1            -0.0158     1.3146     0.0093 N.ar    
   2 C2             0.0021    -0.0041     0.0020 C.ar    
   3 C3             1.1989    -0.7034    -0.0127 C.ar    
   4 C4             2.3830    -0.0016    -0.0202 C.ar    
   5 C5             2.3452     1.3975    -0.0128 C.ar    
   6 C6             1.0957     2.0332     0.0025 C.ar    
   7 C7             3.8374    -0.3894    -0.0358 C.3     
   8 N8             4.5957     0.8679    -0.0366 N.am    
   9 C9             3.7283     1.8957    -0.0233 C.2     
  10 C10            6.0561     0.9837    -0.0501 C.3     
  11 C11            6.5431     1.0309    -1.4754 C.ar    
  12 O12            1.0259     3.3855     0.0100 O.3     
  13 O13            4.0434     3.0701    -0.0199 O.2     
  14 C14            6.6710     2.2480    -2.1200 C.ar    
  15 C15            7.1165     2.2970    -3.4254 C.ar    
  16 C16            7.4377     1.1175    -4.0939 C.ar    
  17 C17            7.3070    -0.1057    -3.4398 C.ar    
  18 C18            6.8659    -0.1427    -2.1325 C.ar    
  19 C19           -0.2057     3.9609     0.0244 C.ar    
  20 C20           -0.8250     4.2494     1.2341 C.ar    
  21 C21           -2.0783     4.8349     1.2448 C.ar    
  22 C22           -2.7135     5.1320     0.0533 C.ar    
  23 C23           -2.0985     4.8449    -1.1514 C.ar    
  24 C24           -0.8439     4.2662    -1.1684 C.ar    
  25 F25           -0.2044     3.9582     2.3982 F       
  26 C26           -4.0790     5.7693     0.0675 C.3     
  27 C27            7.9169     1.1639    -5.4978 C.2     
  28 N28            8.0880     2.2495    -6.2222 N.2     
  29 C29            8.2746     0.0545    -6.2884 C.2     
  30 C30            8.6560     0.5150    -7.4997 C.2     
  31 N31            8.5560     1.8616    -7.4841 N.pl3   
  32 C32            8.8759     2.7603    -8.5959 C.3     
  33 F33           -4.4905     5.9608     1.3908 F       
  34 F34           -4.0239     7.0045    -0.5871 F       
  35 F35           -4.9902     4.9343    -0.5881 F       
  36 C36           -0.1725     3.9604    -2.4824 C.3     
  37 H37           -0.9309    -0.5480     0.0080 H       
  38 H38            1.2023    -1.7834    -0.0178 H       
  39 H39            4.0794    -0.9726     0.8527 H       
  40 H40            4.0627    -0.9636    -0.9345 H       
  41 H41            6.3529     1.8970     0.4657 H       
  42 H42            6.4935     0.1226     0.4550 H       
  43 H43            6.4214     3.1617    -1.6010 H       
  44 H44            7.2157     3.2478    -3.9279 H       
  45 H45            7.5542    -1.0230    -3.9535 H       
  46 H46            6.7684    -1.0900    -1.6231 H       
  47 H47           -2.5610     5.0598     2.1844 H       
  48 H48           -2.5976     5.0775    -2.0805 H       
  49 H49            8.2489    -0.9804    -5.9807 H       
  50 H50            8.9889    -0.0874    -8.3320 H       
  51 H51            9.9235     3.0550    -8.5351 H       
  52 H52            8.6971     2.2473    -9.5409 H       
  53 H53            8.2450     3.6474    -8.5391 H       
  54 H54           -0.4457     2.9556    -2.8048 H       
  55 H55           -0.4952     4.6828    -3.2322 H       
  56 H56            0.9089     4.0215    -2.3608 H       
@<TRIPOS>BOND
   1    1    2 ar
   2    1    6 ar
   3    2    3 ar
   4    2   37 1
   5    3    4 ar
   6    3   38 1
   7    4    7 1
   8    4    5 ar
   9    5    6 ar
  10    5    9 1
  11    6   12 1
  12    7    8 1
  13    7   39 1
  14    7   40 1
  15    8    9 am
  16    8   10 1
  17    9   13 2
  18   10   11 1
  19   10   41 1
  20   10   42 1
  21   11   14 ar
  22   11   18 ar
  23   12   19 1
  24   14   15 ar
  25   14   43 1
  26   15   16 ar
  27   15   44 1
  28   16   17 ar
  29   16   27 1
  30   17   18 ar
  31   17   45 1
  32   18   46 1
  33   19   20 ar
  34   19   24 ar
  35   20   21 ar
  36   20   25 1
  37   21   22 ar
  38   21   47 1
  39   22   23 ar
  40   22   26 1
  41   23   24 ar
  42   23   48 1
  43   24   36 1
  44   26   33 1
  45   26   34 1
  46   26   35 1
  47   27   29 1
  48   27   28 2
  49   28   31 1
  50   29   30 2
  51   29   49 1
  52   30   31 1
  53   30   50 1
  54   31   32 1
  55   32   51 1
  56   32   52 1
  57   32   53 1
  58   36   54 1
  59   36   55 1
  60   36   56 1

#	End of record

