#	Name: ASD05720267
#	Creating user name:	WinNT
#	Creation time:	15. 06. 2019 21:02

#	Modifying user name:	WinNT
#	Modification time:	15. 06. 2019 21:02

#	Program:	/corina/corina34_cracker 3.40 0067  02.08.2006

@<TRIPOS>MOLECULE
ASD05720267
  88   92    0    0    0
SMALL
NO_CHARGES


@<TRIPOS>ATOM
   1 C1             0.5119     1.0237     1.1164 C.2     
   2 N2             0.4122    -0.2391     0.6808 N.am    
   3 C3             1.6580    -0.6134    -0.0049 C.3     
   4 C4             2.5297     0.6535     0.0955 C.3     
   5 N5             1.6824     1.6071     0.8270 N.am    
   6 O6            -0.3811     1.5906     1.7157 O.2     
   7 C7             1.3817    -0.9606    -1.4691 C.3     
   8 C8             0.5224    -2.2245    -1.5401 C.3     
   9 C9             0.6397     0.1988    -2.1369 C.3     
  10 C10            2.0587     2.9775     1.1828 C.3     
  11 C11            2.7352     2.9807     2.5551 C.3     
  12 C12            3.9720     5.8792     4.6220 C.3     
  13 C13            3.5471     4.4348     4.3144 C.3     
  14 N14            3.1125     4.3548     2.9118 N.3     
  15 C15            4.1477     4.8698     2.0032 C.3     
  16 C16            4.5373     6.2888     2.4465 C.3     
  17 C17            3.2336     7.0972     2.6481 C.3     
  18 C18            2.8513     6.8202     4.1198 C.3     
  19 O19            5.1031     6.1846     3.7736 O.3     
  20 C20           -1.6778    -3.1433     0.6617 C.2     
  21 N21           -0.6243    -2.3357     0.5053 N.2     
  22 C22           -0.6921    -1.0636     0.8499 C.2     
  23 C23           -1.8851    -0.5415     1.3900 C.2     
  24 C24           -2.9530    -1.3558     1.5497 C.2     
  25 N25           -2.8523    -2.6692     1.1834 N.pl3   
  26 N26           -3.7636    -3.7303     1.2267 N.2     
  27 C27           -3.1914    -4.8116     0.7573 C.2     
  28 C28           -1.8788    -4.5014     0.3811 C.2     
  29 C29           -0.8882    -5.4341    -0.2016 C.ar    
  30 C30           -0.6489    -6.6680     0.4062 C.ar    
  31 C31            0.2725    -7.5353    -0.1368 C.ar    
  32 C32            0.9670    -7.1812    -1.2934 C.ar    
  33 C33            0.7285    -5.9487    -1.9011 C.ar    
  34 C34           -0.1968    -5.0827    -1.3625 C.ar    
  35 N35            3.4781    -9.0331    -3.1490 N.pl3   
  36 N36            2.6749    -7.8969    -2.9593 N.2     
  37 C37            1.9599    -8.1156    -1.8770 C.2     
  38 N38            2.2776    -9.3227    -1.3893 N.2     
  39 C39            3.1866    -9.8797    -2.1451 C.2     
  40 H40            2.1383    -1.4495     0.5036 H       
  41 H41            3.4427     0.4464     0.6537 H       
  42 H42            2.7656     1.0352    -0.8979 H       
  43 H43            2.3257    -1.1336    -1.9859 H       
  44 H44           -0.4947    -1.9904    -1.2258 H       
  45 H45            0.5093    -2.5979    -2.5641 H       
  46 H46            0.9403    -2.9855    -0.8812 H       
  47 H47           -0.3043     0.3718    -1.6201 H       
  48 H48            1.2519     1.0992    -2.0863 H       
  49 H49            0.4428    -0.0485    -3.1801 H       
  50 H50            2.7493     3.3700     0.4364 H       
  51 H51            1.1662     3.6023     1.2162 H       
  52 H52            2.0446     2.5881     3.3015 H       
  53 H53            3.6277     2.3559     2.5217 H       
  54 H54            4.1886     6.0259     5.6801 H       
  55 H55            4.3914     3.7641     4.4737 H       
  56 H56            2.7234     4.1493     4.9686 H       
  57 H57            5.0233     4.2217     2.0426 H       
  58 H58            3.7585     4.8991     0.9855 H       
  59 H59            5.2129     6.7682     1.7381 H       
  60 H60            3.4150     8.1608     2.4935 H       
  61 H61            2.4535     6.7393     1.9762 H       
  62 H62            1.8818     6.3253     4.1767 H       
  63 H63            2.8434     7.7467     4.6940 H       
  64 H64           -1.9455     0.4988     1.6739 H       
  65 H65           -3.8748    -0.9730     1.9622 H       
  66 H66           -3.6570    -5.7823     0.6714 H       
  67 H67           -1.1861    -6.9420     1.3021 H       
  68 H68            0.4577    -8.4899     0.3333 H       
  69 H69            1.2666    -5.6751    -2.7966 H       
  70 H70           -0.3844    -4.1301    -1.8354 H       
  71 H71            4.1151    -9.1803    -3.8656 H       
  72 H72            3.6281   -10.8531    -1.9903 H       
  73 C73           11.3843    15.1490    11.8269 C.2     
  74 C74           11.4047    13.6422    11.8186 C.3     
  75 O75           12.4223    15.7673    11.8203 O.2     
  76 O76           10.2129    15.8043    11.8360 O.3     
  77 F77           12.7299    13.1939    11.8036 F       
  78 F78           10.7626    13.1608    12.9645 F       
  79 F79           10.7407    13.1731    10.6801 F       
  80 H80           10.2504    16.7706    11.8411 H       
  81 C81           18.9013    23.7588    19.1113 C.2     
  82 C82           18.9217    22.2520    19.1030 C.3     
  83 O83           19.9394    24.3771    19.1047 O.2     
  84 O84           17.7299    24.4141    19.1204 O.3     
  85 F85           20.2469    21.8036    19.0880 F       
  86 F86           18.2796    21.7706    20.2489 F       
  87 F87           18.2578    21.7828    17.9645 F       
  88 H88           17.7674    25.3803    19.1255 H       
@<TRIPOS>BOND
   1    1    2 am
   2    1    5 am
   3    1    6 2
   4    2    3 1
   5    2   22 1
   6    3    4 1
   7    3    7 1
   8    3   40 1
   9    4    5 1
  10    4   41 1
  11    4   42 1
  12    5   10 1
  13    7    8 1
  14    7    9 1
  15    7   43 1
  16    8   44 1
  17    8   45 1
  18    8   46 1
  19    9   47 1
  20    9   48 1
  21    9   49 1
  22   10   11 1
  23   10   50 1
  24   10   51 1
  25   11   14 1
  26   11   52 1
  27   11   53 1
  28   12   13 1
  29   12   18 1
  30   12   19 1
  31   12   54 1
  32   13   14 1
  33   13   55 1
  34   13   56 1
  35   14   15 1
  36   15   16 1
  37   15   57 1
  38   15   58 1
  39   16   17 1
  40   16   19 1
  41   16   59 1
  42   17   18 1
  43   17   60 1
  44   17   61 1
  45   18   62 1
  46   18   63 1
  47   20   21 1
  48   20   25 1
  49   20   28 2
  50   21   22 2
  51   22   23 1
  52   23   24 2
  53   23   64 1
  54   24   25 1
  55   24   65 1
  56   25   26 1
  57   26   27 2
  58   27   28 1
  59   27   66 1
  60   28   29 1
  61   29   30 ar
  62   29   34 ar
  63   30   31 ar
  64   30   67 1
  65   31   32 ar
  66   31   68 1
  67   32   33 ar
  68   32   37 1
  69   33   34 ar
  70   33   69 1
  71   34   70 1
  72   35   36 1
  73   35   39 1
  74   35   71 1
  75   36   37 2
  76   37   38 1
  77   38   39 2
  78   39   72 1
  79   73   74 1
  80   73   75 2
  81   73   76 1
  82   74   77 1
  83   74   78 1
  84   74   79 1
  85   76   80 1
  86   81   82 1
  87   81   83 2
  88   81   84 1
  89   82   85 1
  90   82   86 1
  91   82   87 1
  92   84   88 1

#	End of record

