#	Name: ASD03950027
#	Creating user name:	WinNT
#	Creation time:	15. 06. 2019 20:48

#	Modifying user name:	WinNT
#	Modification time:	15. 06. 2019 20:48

#	Program:	/corina/corina34_cracker 3.40 0067  02.08.2006

@<TRIPOS>MOLECULE
ASD03950027
  76   80    0    0    0
SMALL
NO_CHARGES


@<TRIPOS>ATOM
   1 N1            -0.1353     1.7472    -0.7798 N.pl3   
   2 N2            -0.1808     0.3500    -0.7424 N.2     
   3 C3             1.0208    -0.1326    -0.6050 C.2     
   4 C4             1.9473     0.9952    -0.5443 C.ar    
   5 C5             3.3338     1.1006    -0.4061 C.ar    
   6 C6             3.9337     2.3517    -0.3829 C.ar    
   7 C7             3.1606     3.5084    -0.4968 C.ar    
   8 C8             1.7809     3.4207    -0.6343 C.ar    
   9 C9             1.1615     2.1573    -0.6596 C.ar    
  10 C10            0.9689     4.6465    -0.7542 C.2     
  11 O11           -0.2384     4.5667    -0.8745 O.2     
  12 N12            1.5653     5.8549    -0.7305 N.am    
  13 N13            0.8055    -4.3591    -0.5010 N.am    
  14 C14            1.0946    -3.7016     0.7807 C.3     
  15 C15            0.6906    -2.2273     0.6808 C.3     
  16 C16            1.3892    -1.5916    -0.5234 C.3     
  17 C17            0.9472    -2.3016    -1.8051 C.3     
  18 C18            1.3541    -3.7767    -1.7333 C.3     
  19 S19           -0.1154    -5.7344    -0.5550 S.o2    
  20 O20            0.3135    -6.3972    -1.7365 O.2     
  21 O21            0.0646    -6.3271     0.7239 O.2     
  22 C22           -1.8163    -5.1331    -0.7442 C.3     
  23 C23           -2.7743    -6.3243    -0.8072 C.3     
  24 C24           -4.2090    -5.8172    -0.9668 C.3     
  25 N25           -5.1288    -6.9609    -1.0273 N.3     
  26 C26           -6.5318    -6.5158    -0.9415 C.3     
  27 C27           -7.2571    -7.0458    -2.1963 C.3     
  28 C28           -6.3672    -8.2376    -2.6371 C.3     
  29 C29           -4.9511    -7.7179    -2.2847 C.3     
  30 C30            5.4066     2.4607    -0.2355 C.ar    
  31 C31            6.0148     3.7128    -0.2115 C.ar    
  32 C32            7.3915     3.8079    -0.0736 C.ar    
  33 C33            8.1593     2.6547     0.0401 C.ar    
  34 C34            7.5544     1.4127     0.0161 C.ar    
  35 C35            6.1835     1.3102    -0.1152 C.ar    
  36 N36            8.0064     5.0620    -0.0494 N.am    
  37 S37            7.9001     6.0103     1.3040 S.o2    
  38 O38            8.6445     7.1752     0.9750 O.2     
  39 O39            6.5066     6.0829     1.5725 O.2     
  40 C40            8.7479     5.0561     2.5930 C.3     
  41 H41           -0.9027     2.3320    -0.8795 H       
  42 H42            3.9376     0.2096    -0.3171 H       
  43 H43            3.6377     4.4771    -0.4775 H       
  44 H44            2.5285     5.9186    -0.6346 H       
  45 H45            1.0314     6.6609    -0.8094 H       
  46 H46            0.5249    -4.1835     1.5753 H       
  47 H47            2.1605    -3.7746     0.9966 H       
  48 H48           -0.3897    -2.1538     0.5552 H       
  49 H49            0.9879    -1.7061     1.5907 H       
  50 H50            2.4689    -1.6877    -0.4092 H       
  51 H51           -0.1355    -2.2274    -1.9072 H       
  52 H52            1.4271    -1.8332    -2.6644 H       
  53 H53            2.4412    -3.8558    -1.7224 H       
  54 H54            0.9556    -4.3081    -2.5975 H       
  55 H55           -2.0756    -4.5029     0.1065 H       
  56 H56           -1.8965    -4.5533    -1.6637 H       
  57 H57           -2.5150    -6.9546    -1.6579 H       
  58 H58           -2.6941    -6.9041     0.1123 H       
  59 H59           -4.4683    -5.1869    -0.1161 H       
  60 H60           -4.2892    -5.2374    -1.8863 H       
  61 H61           -6.9964    -6.9246    -0.0443 H       
  62 H62           -6.5747    -5.4268    -0.9206 H       
  63 H63           -8.2616    -7.3868    -1.9457 H       
  64 H64           -7.2910    -6.2820    -2.9733 H       
  65 H65           -6.6066    -9.1354    -2.0673 H       
  66 H66           -6.4610    -8.4200    -3.7077 H       
  67 H67           -4.5804    -7.0626    -3.0729 H       
  68 H68           -4.2676    -8.5530    -2.1316 H       
  69 H69            5.4163     4.6074    -0.3003 H       
  70 H70            9.2313     2.7297     0.1471 H       
  71 H71            8.1550     0.5195     0.1047 H       
  72 H72            5.7138     0.3378    -0.1290 H       
  73 H73            8.4957     5.3773    -0.8253 H       
  74 H74            9.7549     4.8075     2.2580 H       
  75 H75            8.8046     5.6490     3.5059 H       
  76 H76            8.1935     4.1384     2.7896 H       
@<TRIPOS>BOND
   1    1    2 1
   2    1    9 1
   3    1   41 1
   4    2    3 2
   5    3    4 1
   6    3   16 1
   7    4    5 ar
   8    4    9 ar
   9    5    6 ar
  10    5   42 1
  11    6    7 ar
  12    6   30 1
  13    7    8 ar
  14    7   43 1
  15    8    9 ar
  16    8   10 1
  17   10   11 2
  18   10   12 am
  19   12   44 1
  20   12   45 1
  21   13   14 1
  22   13   18 1
  23   13   19 am
  24   14   15 1
  25   14   46 1
  26   14   47 1
  27   15   16 1
  28   15   48 1
  29   15   49 1
  30   16   17 1
  31   16   50 1
  32   17   18 1
  33   17   51 1
  34   17   52 1
  35   18   53 1
  36   18   54 1
  37   19   20 2
  38   19   21 2
  39   19   22 1
  40   22   23 1
  41   22   55 1
  42   22   56 1
  43   23   24 1
  44   23   57 1
  45   23   58 1
  46   24   25 1
  47   24   59 1
  48   24   60 1
  49   25   26 1
  50   25   29 1
  51   26   27 1
  52   26   61 1
  53   26   62 1
  54   27   28 1
  55   27   63 1
  56   27   64 1
  57   28   29 1
  58   28   65 1
  59   28   66 1
  60   29   67 1
  61   29   68 1
  62   30   31 ar
  63   30   35 ar
  64   31   32 ar
  65   31   69 1
  66   32   33 ar
  67   32   36 1
  68   33   34 ar
  69   33   70 1
  70   34   35 ar
  71   34   71 1
  72   35   72 1
  73   36   37 am
  74   36   73 1
  75   37   38 2
  76   37   39 2
  77   37   40 1
  78   40   74 1
  79   40   75 1
  80   40   76 1

#	End of record

