#	Name: ASD01720167
#	Creating user name:	WinNT
#	Creation time:	15. 06. 2019 19:23

#	Modifying user name:	WinNT
#	Modification time:	15. 06. 2019 19:23

#	Program:	/corina/corina34_cracker 3.40 0067  02.08.2006

@<TRIPOS>MOLECULE
ASD01720167
  60   63    0    0    0
SMALL
NO_CHARGES


@<TRIPOS>ATOM
   1 C1             3.0037    -0.6739    -0.9836 C.ar    
   2 N2             2.1529    -0.8531     0.0083 N.ar    
   3 C3             2.2120    -0.1409     1.1175 C.ar    
   4 C4             3.1774     0.8303     1.2848 C.ar    
   5 C5             4.0997     1.0536     0.2585 C.ar    
   6 C6             4.0005     0.2767    -0.8989 C.ar    
   7 C7             5.1550     2.0877     0.3940 C.ar    
   8 C8             6.0389     2.0628     1.4760 C.ar    
   9 C9             7.0059     3.0503     1.5569 C.ar    
  10 C10            7.0656     4.0206     0.5736 C.ar    
  11 N11            6.2169     4.0185    -0.4364 N.ar    
  12 C12            5.2845     3.0963    -0.5588 C.ar    
  13 C13            8.1164     5.0976     0.6572 C.3     
  14 C14            7.6120     6.2341     1.5489 C.3     
  15 N15            8.3924     5.6158    -0.6850 N.pl3   
  16 C16            9.6161     6.1993    -0.9634 C.ar    
  17 N17            9.8483     6.6623    -2.1822 N.ar    
  18 C18           11.0129     7.2279    -2.4811 C.ar    
  19 C19           11.9910     7.3280    -1.4913 C.ar    
  20 C20           11.7084     6.8324    -0.2324 C.ar    
  21 N21           10.5242     6.2857    -0.0023 N.ar    
  22 N22           11.2534     7.7124    -3.7617 N.am    
  23 C23           12.4393     8.1266    -4.2282 C.2     
  24 O24           12.4045     8.5472    -5.4975 O.3     
  25 O25           13.4536     8.1206    -3.5594 O.2     
  26 C26           11.0467     8.4268    -6.0121 C.3     
  27 C27           10.2489     7.8481    -4.8276 C.3     
  28 C28            9.1467     8.8180    -4.3970 C.3     
  29 C29            9.7711    10.1600    -4.0095 C.3     
  30 C30            8.1691     9.0259    -5.5554 C.3     
  31 C31            4.3405     3.1402    -1.7327 C.3     
  32 C32            1.2113    -0.3915     2.2160 C.3     
  33 F33            0.4095    -1.4863     1.8757 F       
  34 F34            1.8877    -0.6622     3.4103 F       
  35 F35            0.4075     0.7415     2.3819 F       
  36 H36            2.9219    -1.2823    -1.8722 H       
  37 H37            3.2197     1.4097     2.1952 H       
  38 H38            4.6940     0.4178    -1.7147 H       
  39 H39            5.9692     1.2929     2.2303 H       
  40 H40            7.7058     3.0629     2.3794 H       
  41 H41            9.0303     4.6815     1.0811 H       
  42 H42            8.3720     7.0131     1.6093 H       
  43 H43            6.6981     6.6502     1.1250 H       
  44 H44            7.4067     5.8485     2.5475 H       
  45 H45            7.7175     5.5499    -1.3786 H       
  46 H46           12.9474     7.7823    -1.7041 H       
  47 H47           12.4438     6.8938     0.5562 H       
  48 H48           10.6582     9.4044    -6.2977 H       
  49 H49           11.0184     7.7410    -6.8588 H       
  50 H50            9.8261     6.8779    -5.0883 H       
  51 H51            8.6132     8.4049    -3.5410 H       
  52 H52           10.3046    10.5732    -4.8655 H       
  53 H53            8.9859    10.8510    -3.7027 H       
  54 H54           10.4676    10.0119    -3.1843 H       
  55 H55            8.7055     9.4246    -6.4164 H       
  56 H56            7.7127     8.0724    -5.8212 H       
  57 H57            7.3925     9.7288    -5.2537 H       
  58 H58            4.7053     2.4773    -2.5173 H       
  59 H59            3.3497     2.8158    -1.4145 H       
  60 H60            4.2836     4.1592    -2.1154 H       
@<TRIPOS>BOND
   1    1    2 ar
   2    1    6 ar
   3    1   36 1
   4    2    3 ar
   5    3   32 1
   6    3    4 ar
   7    4    5 ar
   8    4   37 1
   9    5    6 ar
  10    5    7 1
  11    6   38 1
  12    7    8 ar
  13    7   12 ar
  14    8    9 ar
  15    8   39 1
  16    9   10 ar
  17    9   40 1
  18   10   11 ar
  19   10   13 1
  20   11   12 ar
  21   12   31 1
  22   13   14 1
  23   13   15 1
  24   13   41 1
  25   14   42 1
  26   14   43 1
  27   14   44 1
  28   15   16 1
  29   15   45 1
  30   16   17 ar
  31   16   21 ar
  32   17   18 ar
  33   18   19 ar
  34   18   22 1
  35   19   20 ar
  36   19   46 1
  37   20   21 ar
  38   20   47 1
  39   22   23 am
  40   22   27 1
  41   23   24 1
  42   23   25 2
  43   24   26 1
  44   26   27 1
  45   26   48 1
  46   26   49 1
  47   27   28 1
  48   27   50 1
  49   28   29 1
  50   28   30 1
  51   28   51 1
  52   29   52 1
  53   29   53 1
  54   29   54 1
  55   30   55 1
  56   30   56 1
  57   30   57 1
  58   31   58 1
  59   31   59 1
  60   31   60 1
  61   32   33 1
  62   32   34 1
  63   32   35 1

#	End of record

