#	Name: ASD05842034
#	Creating user name:	WinNT
#	Creation time:	15. 06. 2019 21:04

#	Modifying user name:	WinNT
#	Modification time:	15. 06. 2019 21:04

#	Program:	/corina/corina34_cracker 3.40 0067  02.08.2006

@<TRIPOS>MOLECULE
ASD05842034
  42   44    0    0    0
SMALL
NO_CHARGES


@<TRIPOS>ATOM
   1 C1            -0.0167     1.3781     0.0096 C.ar    
   2 C2             0.0021    -0.0041     0.0020 C.ar    
   3 C3            -1.1855    -0.7115     0.0095 C.ar    
   4 C4            -2.3919    -0.0367     0.0251 C.ar    
   5 C5            -2.4106     1.3455     0.0336 C.ar    
   6 C6            -1.2230     2.0529     0.0305 C.ar    
   7 C7             1.2780     2.1493     0.0014 C.3     
   8 N8             1.6844     2.4066    -1.3824 N.pl3   
   9 C9             1.2384     3.6253    -2.0622 C.3     
  10 C10            2.2561     4.7429    -1.8255 C.3     
  11 C11            1.7973     5.9965    -2.5249 C.ar    
  12 C12            0.9931     6.9036    -1.8606 C.ar    
  13 C13            0.5722     8.0535    -2.5021 C.ar    
  14 C14            0.9560     8.2965    -3.8077 C.ar    
  15 C15            1.7610     7.3898    -4.4717 C.ar    
  16 C16            2.1854     6.2420    -3.8287 C.ar    
  17 C17            2.8887     1.7236    -3.3661 C.ar    
  18 C18            2.4972     1.4899    -2.0537 C.ar    
  19 C19            2.9275     0.3283    -1.4171 C.ar    
  20 C20            3.7325    -0.5499    -2.1242 C.ar    
  21 C21            4.0798    -0.2475    -3.4276 C.ar    
  22 N22            3.6557     0.8612    -4.0022 N.ar    
  23 H23            0.9446    -0.5313    -0.0101 H       
  24 H24           -1.1709    -1.7913     0.0029 H       
  25 H25           -3.3198    -0.5893     0.0302 H       
  26 H26           -3.3531     1.8728     0.0454 H       
  27 H27           -1.2376     3.1328     0.0372 H       
  28 H28            1.1397     3.0971     0.5217 H       
  29 H29            2.0505     1.5679     0.5048 H       
  30 H30            1.1514     3.4336    -3.1317 H       
  31 H31            0.2685     3.9275    -1.6672 H       
  32 H32            2.3431     4.9346    -0.7560 H       
  33 H33            3.2260     4.4407    -2.2205 H       
  34 H34            0.6932     6.7138    -0.8406 H       
  35 H35           -0.0567     8.7618    -1.9834 H       
  36 H36            0.6266     9.1945    -4.3092 H       
  37 H37            2.0605     7.5795    -5.4918 H       
  38 H38            2.8144     5.5337    -4.3474 H       
  39 H39            2.5575     2.6188    -3.8714 H       
  40 H40            2.6410     0.1175    -0.3974 H       
  41 H41            4.0851    -1.4603    -1.6623 H       
  42 H42            4.7074    -0.9287    -3.9830 H       
@<TRIPOS>BOND
   1    1    2 ar
   2    1    7 1
   3    1    6 ar
   4    2    3 ar
   5    2   23 1
   6    3    4 ar
   7    3   24 1
   8    4    5 ar
   9    4   25 1
  10    5    6 ar
  11    5   26 1
  12    6   27 1
  13    7    8 1
  14    7   28 1
  15    7   29 1
  16    8    9 1
  17    8   18 1
  18    9   10 1
  19    9   30 1
  20    9   31 1
  21   10   11 1
  22   10   32 1
  23   10   33 1
  24   11   12 ar
  25   11   16 ar
  26   12   13 ar
  27   12   34 1
  28   13   14 ar
  29   13   35 1
  30   14   15 ar
  31   14   36 1
  32   15   16 ar
  33   15   37 1
  34   16   38 1
  35   17   18 ar
  36   17   22 ar
  37   17   39 1
  38   18   19 ar
  39   19   20 ar
  40   19   40 1
  41   20   21 ar
  42   20   41 1
  43   21   22 ar
  44   21   42 1

#	End of record

