#	Name: ASD09740117
#	Creating user name:	WinNT
#	Creation time:	15. 06. 2019 21:22

#	Modifying user name:	WinNT
#	Modification time:	15. 06. 2019 21:22

#	Program:	/corina/corina34_cracker 3.40 0067  02.08.2006

@<TRIPOS>MOLECULE
ASD09740117
  29   31    0    0    0
SMALL
NO_CHARGES


@<TRIPOS>ATOM
   1 N1            -0.0144     1.2086     0.0087 N.2     
   2 O2             0.0021    -0.0041     0.0020 O.3     
   3 C3             1.2063     1.6794    -0.0004 C.2     
   4 N4             2.0453     0.6226    -0.0141 N.2     
   5 C5             1.2696    -0.4439    -0.0124 C.2     
   6 C6             1.7125    -1.8561    -0.0235 C.ar    
   7 C7             1.5964     3.1117     0.0035 C.ar    
   8 C8             0.6174     4.1027     0.0187 C.ar    
   9 C9             0.9856     5.4330     0.0228 C.ar    
  10 C10            2.3237     5.7828     0.0119 C.ar    
  11 C11            3.2998     4.8028    -0.0032 C.ar    
  12 C12            2.9428     3.4696    -0.0021 C.ar    
  13 C13            0.7832    -2.9000    -0.0203 C.ar    
  14 N14            2.5356    -4.4686    -0.0440 N.ar    
  15 C15            3.4436    -3.5114    -0.0530 C.ar    
  16 C16            3.0735    -2.1827    -0.0433 C.ar    
  17 C17            1.2418    -4.2059    -0.0310 C.ar    
  18 F18            0.3543    -5.2246    -0.0276 F       
  19 C19            2.7197     7.2368     0.0159 C.3     
  20 F20            2.8548     7.6797     1.3361 F       
  21 F21            3.9380     7.3903    -0.6544 F       
  22 F22            1.7338     7.9904    -0.6301 F       
  23 H23           -0.4278     3.8307     0.0269 H       
  24 H24            0.2274     6.2021     0.0342 H       
  25 H25            4.3432     5.0814    -0.0121 H       
  26 H26            3.7057     2.7052    -0.0136 H       
  27 H27           -0.2764    -2.6910    -0.0094 H       
  28 H28            4.4917    -3.7720    -0.0636 H       
  29 H29            3.8231    -1.4053    -0.0512 H       
@<TRIPOS>BOND
   1    1    2 1
   2    1    3 2
   3    2    5 1
   4    3    4 1
   5    3    7 1
   6    4    5 2
   7    5    6 1
   8    6   13 ar
   9    6   16 ar
  10    7    8 ar
  11    7   12 ar
  12    8    9 ar
  13    8   23 1
  14    9   10 ar
  15    9   24 1
  16   10   11 ar
  17   10   19 1
  18   11   12 ar
  19   11   25 1
  20   12   26 1
  21   13   17 ar
  22   13   27 1
  23   14   15 ar
  24   14   17 ar
  25   15   16 ar
  26   15   28 1
  27   16   29 1
  28   17   18 1
  29   19   20 1
  30   19   21 1
  31   19   22 1

#	End of record

