#	Name: ASD02500205
#	Creating user name:	WinNT
#	Creation time:	15. 06. 2019 20:22

#	Modifying user name:	WinNT
#	Modification time:	15. 06. 2019 20:22

#	Program:	/corina/corina34_cracker 3.40 0067  02.08.2006

@<TRIPOS>MOLECULE
ASD02500205
  59   63    0    0    0
SMALL
NO_CHARGES


@<TRIPOS>ATOM
   1 N1            -3.5383     5.6234     0.0318 N.ar    
   2 C2            -4.6545     6.2750    -0.1870 C.ar    
   3 C3            -5.7774     6.0969     0.6184 C.ar    
   4 C4            -5.7322     5.2239     1.6677 C.ar    
   5 C5            -4.5320     4.5255     1.8994 C.ar    
   6 C6            -4.4101     3.6124     2.9588 C.ar    
   7 C7            -3.2320     2.9569     3.1500 C.ar    
   8 C8            -2.1448     3.1804     2.3081 C.ar    
   9 C9            -2.2280     4.0585     1.2715 C.ar    
  10 C10           -3.4274     4.7545     1.0417 C.ar    
  11 S11           -0.8373     4.3227     0.2224 S.o2    
  12 O12           -0.6516     5.7296     0.1488 O.2     
  13 O13            0.1741     3.4273     0.6637 O.2     
  14 N14           -1.2690     3.8279    -1.2978 N.am    
  15 C15           -1.4936     2.4795    -1.5525 C.ar    
  16 C16           -1.1835     1.9473    -2.8013 C.ar    
  17 C17           -1.4045     0.6135    -3.0564 C.ar    
  18 C18           -1.9411    -0.2077    -2.0602 C.ar    
  19 C19           -2.2513     0.3295    -0.8076 C.ar    
  20 C20           -2.0226     1.6633    -0.5568 C.ar    
  21 C21           -2.1798    -1.6382    -2.3306 C.2     
  22 O22           -2.6542    -1.9848    -3.3951 O.2     
  23 N23           -1.8719    -2.5608    -1.3976 N.am    
  24 C24           -2.0169    -3.9944    -1.6870 C.3     
  25 C25           -0.6734    -4.6858    -1.4237 C.3     
  26 N26           -0.1863    -4.2764    -0.0989 N.am    
  27 C27           -0.0414    -2.8428     0.1905 C.3     
  28 C28           -1.3795    -2.1516    -0.0748 C.3     
  29 C29            0.1215    -5.1991     0.8340 C.2     
  30 O30            0.5956    -4.8523     1.8991 O.2     
  31 S31           -0.3278    -9.1058     0.7941 S.3     
  32 C32           -0.6756    -8.3629    -0.7037 C.2     
  33 N33           -0.5102    -7.0895    -0.6256 N.2     
  34 C34           -0.1160    -6.6271     0.5638 C.2     
  35 C35            0.0442    -7.5926     1.4967 C.2     
  36 C36           -0.6056     2.8333    -3.8747 C.3     
  37 H37           -4.7049     6.9687    -1.0132 H       
  38 H38           -6.6827     6.6489     0.4133 H       
  39 H39           -6.5930     5.0738     2.3024 H       
  40 H40           -5.2458     3.4313     3.6185 H       
  41 H41           -3.1392     2.2546     3.9652 H       
  42 H42           -1.2208     2.6486     2.4809 H       
  43 H43           -1.3653     4.4787    -2.0106 H       
  44 H44           -1.1641     0.2014    -4.0253 H       
  45 H45           -2.6659    -0.3023    -0.0361 H       
  46 H46           -2.2577     2.0780     0.4123 H       
  47 H47           -2.7819    -4.4228    -1.0395 H       
  48 H48           -2.2997    -4.1301    -2.7309 H       
  49 H49           -0.8080    -5.7672    -1.4458 H       
  50 H50            0.0466    -4.3886    -2.1861 H       
  51 H51            0.2414    -2.7071     1.2344 H       
  52 H52            0.7237    -2.4144    -0.4570 H       
  53 H53           -1.2415    -1.0705    -0.0542 H       
  54 H54           -2.0981    -2.4458     0.6902 H       
  55 H55           -0.9901    -8.8889    -1.5930 H       
  56 H56            0.3561    -7.4337     2.5184 H       
  57 H57            0.4821     2.8272    -3.8043 H       
  58 H58           -0.9084     2.4625    -4.8539 H       
  59 H59           -0.9725     3.8511    -3.7422 H       
@<TRIPOS>BOND
   1    1    2 ar
   2    1   10 ar
   3    2    3 ar
   4    2   37 1
   5    3    4 ar
   6    3   38 1
   7    4    5 ar
   8    4   39 1
   9    5    6 ar
  10    5   10 ar
  11    6    7 ar
  12    6   40 1
  13    7    8 ar
  14    7   41 1
  15    8    9 ar
  16    8   42 1
  17    9   10 ar
  18    9   11 1
  19   11   12 2
  20   11   13 2
  21   11   14 am
  22   14   15 1
  23   14   43 1
  24   15   16 ar
  25   15   20 ar
  26   16   17 ar
  27   16   36 1
  28   17   18 ar
  29   17   44 1
  30   18   19 ar
  31   18   21 1
  32   19   20 ar
  33   19   45 1
  34   20   46 1
  35   21   22 2
  36   21   23 am
  37   23   24 1
  38   23   28 1
  39   24   25 1
  40   24   47 1
  41   24   48 1
  42   25   26 1
  43   25   49 1
  44   25   50 1
  45   26   27 1
  46   26   29 am
  47   27   28 1
  48   27   51 1
  49   27   52 1
  50   28   53 1
  51   28   54 1
  52   29   30 2
  53   29   34 1
  54   31   32 1
  55   31   35 1
  56   32   33 2
  57   32   55 1
  58   33   34 1
  59   34   35 2
  60   35   56 1
  61   36   57 1
  62   36   58 1
  63   36   59 1

#	End of record

