#	Name: ASD03090663
#	Creating user name:	WinNT
#	Creation time:	15. 06. 2019 20:29

#	Modifying user name:	WinNT
#	Modification time:	15. 06. 2019 20:29

#	Program:	/corina/corina34_cracker 3.40 0067  02.08.2006

@<TRIPOS>MOLECULE
ASD03090663
  35   36    0    0    0
SMALL
NO_CHARGES


@<TRIPOS>ATOM
   1 N1            -0.3192     1.5891    -0.0835 N.am    
   2 C2             0.2348     0.4047    -0.4103 C.2     
   3 S3             1.8023     0.3532    -1.0966 S.2     
   4 N4            -0.4454    -0.7391    -0.1969 N.am    
   5 C5             0.0804    -1.9581    -0.6377 C.ar    
   6 C6             0.0322    -3.0754     0.1861 C.ar    
   7 C7             0.5522    -4.2773    -0.2519 C.ar    
   8 C8             1.1209    -4.3692    -1.5093 C.ar    
   9 C9             1.1705    -3.2589    -2.3317 C.ar    
  10 C10            0.6466    -2.0552    -1.9019 C.ar    
  11 C11            0.5003    -5.4901     0.6411 C.3     
  12 F12           -0.6898    -6.1885     0.4105 F       
  13 F13            1.5904    -6.3214     0.3624 F       
  14 F14            0.5521    -5.0861     1.9795 F       
  15 C15            0.4268     2.7686    -0.2050 C.ar    
  16 C16           -0.1394     3.8909    -0.7953 C.ar    
  17 C17            0.5963     5.0532    -0.9143 C.ar    
  18 C18            1.9010     5.0999    -0.4449 C.ar    
  19 C19            2.4673     3.9793     0.1443 C.ar    
  20 C20            1.7305     2.8178     0.2696 C.ar    
  21 C21           -1.5562     3.8401    -1.3061 C.3     
  22 O22            2.6251     6.2448    -0.5629 O.3     
  23 H23           -1.2357     1.6253     0.2322 H       
  24 H24           -1.2995    -0.7170     0.2624 H       
  25 H25           -0.4112    -3.0042     1.1684 H       
  26 H26            1.5275    -5.3102    -1.8493 H       
  27 H27            1.6156    -3.3338    -3.3129 H       
  28 H28            0.6816    -1.1894    -2.5465 H       
  29 H29            0.1561     5.9261    -1.3733 H       
  30 H30            3.4831     4.0163     0.5091 H       
  31 H31            2.1700     1.9467     0.7327 H       
  32 H32           -2.2400     4.1380    -0.5112 H       
  33 H33           -1.6625     4.5207    -2.1509 H       
  34 H34           -1.7910     2.8248    -1.6257 H       
  35 H35            2.5410     6.8430     0.1922 H       
@<TRIPOS>BOND
   1    1    2 am
   2    1   15 1
   3    1   23 1
   4    2    3 2
   5    2    4 am
   6    4    5 1
   7    4   24 1
   8    5    6 ar
   9    5   10 ar
  10    6    7 ar
  11    6   25 1
  12    7    8 ar
  13    7   11 1
  14    8    9 ar
  15    8   26 1
  16    9   10 ar
  17    9   27 1
  18   10   28 1
  19   11   12 1
  20   11   13 1
  21   11   14 1
  22   15   16 ar
  23   15   20 ar
  24   16   17 ar
  25   16   21 1
  26   17   18 ar
  27   17   29 1
  28   18   19 ar
  29   18   22 1
  30   19   20 ar
  31   19   30 1
  32   20   31 1
  33   21   32 1
  34   21   33 1
  35   21   34 1
  36   22   35 1

#	End of record

