#	Name: ASD02562099
#	Creating user name:	WinNT
#	Creation time:	15. 06. 2019 20:25

#	Modifying user name:	WinNT
#	Modification time:	15. 06. 2019 20:25

#	Program:	/corina/corina34_cracker 3.40 0067  02.08.2006

@<TRIPOS>MOLECULE
ASD02562099
  47   50    0    0    0
SMALL
NO_CHARGES


@<TRIPOS>ATOM
   1 C1             0.2214     2.1011    -1.2601 C.ar    
   2 N2             0.5901     1.1267    -2.0756 N.ar    
   3 C3            -0.1585     0.8038    -3.1253 C.ar    
   4 C4            -1.3495     1.5108    -3.3601 C.ar    
   5 C5            -1.7016     2.5381    -2.4675 C.ar    
   6 N6            -0.8976     2.7912    -1.4413 N.ar    
   7 N7            -2.8651     3.2674    -2.6514 N.pl3   
   8 N8             1.0289     2.4080    -0.1756 N.pl3   
   9 C9            -3.2520     4.2110    -1.7043 C.ar    
  10 C10            2.1763     1.6572     0.0733 C.ar    
  11 C11            3.4322     2.2380    -0.0783 C.ar    
  12 N12           -2.5593     4.3372    -0.5831 N.ar    
  13 C13           -3.9825     6.0479     0.1674 C.ar    
  14 C14           -4.7326     5.9510    -0.9973 C.ar    
  15 C15           -4.3595     5.0170    -1.9469 C.ar    
  16 C16            2.0631     0.3304     0.4785 C.ar    
  17 C17            3.1935    -0.4145     0.7258 C.ar    
  18 C18            4.4586     0.1640     0.5694 C.ar    
  19 C19            4.5678     1.5002     0.1665 C.ar    
  20 C20            3.5484     3.6766    -0.5117 C.3     
  21 C21            0.7006    -0.2912     0.6470 C.3     
  22 C22            5.6688    -0.6276     0.8330 C.2     
  23 C23            6.8879    -0.0677     0.6815 C.2     
  24 C24            8.0668    -0.8389     0.9383 C.1     
  25 N25            9.0021    -1.4507     1.1420 N.1     
  26 N26           -0.0645    -0.1243    -4.1314 N.pl3   
  27 C27           -1.1589     0.0280    -4.9316 C.2     
  28 N28           -1.9111     0.9875    -4.4773 N.2     
  29 C29           -2.8919     5.2194     0.3401 C.ar    
  30 H30           -3.4100     3.1204    -3.4403 H       
  31 H31            0.7953     3.1453     0.4098 H       
  32 H32           -4.2474     6.7668     0.9286 H       
  33 H33           -5.5905     6.5875    -1.1561 H       
  34 H34           -4.9202     4.9151    -2.8643 H       
  35 H35            3.1047    -1.4439     1.0405 H       
  36 H36            5.5419     1.9504     0.0446 H       
  37 H37            3.5575     4.3213     0.3673 H       
  38 H38            4.4731     3.8137    -1.0723 H       
  39 H39            2.6987     3.9356    -1.1434 H       
  40 H40            0.4302    -0.8262    -0.2634 H       
  41 H41            0.7201    -0.9875     1.4854 H       
  42 H42           -0.0339     0.4904     0.8409 H       
  43 H43            5.5827    -1.6571     1.1478 H       
  44 H44            6.9739     0.9618     0.3668 H       
  45 H45            0.6493    -0.7699    -4.2520 H       
  46 H46           -1.3698    -0.5609    -5.8120 H       
  47 H47           -2.3036     5.2939     1.2427 H       
@<TRIPOS>BOND
   1    1    2 ar
   2    1    8 1
   3    1    6 ar
   4    2    3 ar
   5    3    4 ar
   6    3   26 1
   7    4    5 ar
   8    4   28 1
   9    5    6 ar
  10    5    7 1
  11    7    9 1
  12    7   30 1
  13    8   10 1
  14    8   31 1
  15    9   12 ar
  16    9   15 ar
  17   10   11 ar
  18   10   16 ar
  19   11   20 1
  20   11   19 ar
  21   12   29 ar
  22   13   14 ar
  23   13   29 ar
  24   13   32 1
  25   14   15 ar
  26   14   33 1
  27   15   34 1
  28   16   17 ar
  29   16   21 1
  30   17   18 ar
  31   17   35 1
  32   18   19 ar
  33   18   22 1
  34   19   36 1
  35   20   37 1
  36   20   38 1
  37   20   39 1
  38   21   40 1
  39   21   41 1
  40   21   42 1
  41   22   23 2
  42   22   43 1
  43   23   24 1
  44   23   44 1
  45   24   25 3
  46   26   27 1
  47   26   45 1
  48   27   28 2
  49   27   46 1
  50   29   47 1

#	End of record

