#	Name: ASD01918152
#	Creating user name:	WinNT
#	Creation time:	15. 06. 2019 20:10

#	Modifying user name:	WinNT
#	Modification time:	15. 06. 2019 20:10

#	Program:	/corina/corina34_cracker 3.40 0067  02.08.2006

@<TRIPOS>MOLECULE
ASD01918152
  43   46    0    0    0
SMALL
NO_CHARGES


@<TRIPOS>ATOM
   1 N1             4.8223    -0.4071    -2.1422 N.ar    
   2 C2             5.2893     0.2909    -3.1601 C.ar    
   3 C3             5.1752     1.6740    -3.1852 C.ar    
   4 C4             4.5616     2.3203    -2.1235 C.ar    
   5 C5             4.0816     1.5501    -1.0681 C.ar    
   6 C6             4.2325     0.1730    -1.1145 C.ar    
   7 O7             3.4733     2.1408    -0.0057 O.3     
   8 C8             3.4529     3.4998     0.0441 C.2     
   9 N9             2.2006     5.5116    -0.0209 N.pl3   
  10 C10            2.2696     4.1558    -0.0651 C.2     
  11 C11            4.6521     4.2023     0.2130 C.2     
  12 C12            4.6231     5.5916     0.2634 C.2     
  13 C13            3.3300     6.2636     0.1366 C.2     
  14 C14            5.8626     6.3667     0.4403 C.2     
  15 N15            5.8147     7.7128     0.4868 N.am    
  16 O16            6.9295     5.7922     0.5445 O.2     
  17 N17            1.1370     6.4218    -0.1069 N.2     
  18 C18            1.6506     7.6250    -0.0084 C.2     
  19 N19            2.9659     7.5361     0.1433 N.2     
  20 C20            6.9701     8.4418     0.7595 C.ar    
  21 F21            5.6563     2.3812    -4.2309 F       
  22 F22            5.8861    -0.3483    -4.1899 F       
  23 N23            8.1315     7.8151     0.8649 N.ar    
  24 C24            6.8938     9.8215     0.9127 C.ar    
  25 C25            8.0493    10.5336     1.1829 C.ar    
  26 C26            9.2457     9.8382     1.2909 C.ar    
  27 C27            9.2489     8.4675     1.1216 C.ar    
  28 C28           10.5454     7.7073     1.2323 C.3     
  29 C29           10.3995     6.5997     2.2777 C.3     
  30 H30            4.4588     3.3954    -2.1153 H       
  31 H31            3.8630    -0.4322    -0.2998 H       
  32 H32            1.3609     3.5858    -0.1904 H       
  33 H33            5.5883     3.6716     0.3034 H       
  34 H34            4.9759     8.1740     0.3303 H       
  35 H35            1.0882     8.5465    -0.0391 H       
  36 H36            5.9458    10.3307     0.8218 H       
  37 H37            8.0208    11.6061     1.3067 H       
  38 H38           10.1654    10.3641     1.5011 H       
  39 H39           10.7910     7.2654     0.2667 H       
  40 H40           11.3414     8.3885     1.5333 H       
  41 H41           10.1538     7.0416     3.2434 H       
  42 H42            9.6035     5.9186     1.9768 H       
  43 H43           11.3372     6.0499     2.3578 H       
@<TRIPOS>BOND
   1    1    2 ar
   2    1    6 ar
   3    2    3 ar
   4    2   22 1
   5    3    4 ar
   6    3   21 1
   7    4    5 ar
   8    4   30 1
   9    5    6 ar
  10    5    7 1
  11    6   31 1
  12    7    8 1
  13    8   11 1
  14    8   10 2
  15    9   10 1
  16    9   17 1
  17    9   13 1
  18   10   32 1
  19   11   12 2
  20   11   33 1
  21   12   13 1
  22   12   14 1
  23   13   19 2
  24   14   15 am
  25   14   16 2
  26   15   20 1
  27   15   34 1
  28   17   18 2
  29   18   19 1
  30   18   35 1
  31   20   24 ar
  32   20   23 ar
  33   23   27 ar
  34   24   25 ar
  35   24   36 1
  36   25   26 ar
  37   25   37 1
  38   26   27 ar
  39   26   38 1
  40   27   28 1
  41   28   29 1
  42   28   39 1
  43   28   40 1
  44   29   41 1
  45   29   42 1
  46   29   43 1

#	End of record

