#	Name: ASD02508208
#	Creating user name:	WinNT
#	Creation time:	15. 06. 2019 20:24

#	Modifying user name:	WinNT
#	Modification time:	15. 06. 2019 20:24

#	Program:	/corina/corina34_cracker 3.40 0067  02.08.2006

@<TRIPOS>MOLECULE
ASD02508208
  33   35    0    0    0
SMALL
NO_CHARGES


@<TRIPOS>ATOM
   1 C1             0.2483     0.6125    -0.3445 C.ar    
   2 C2             0.0011    -0.7453    -0.5455 C.ar    
   3 C3            -1.2922    -1.2320    -0.4367 C.ar    
   4 C4            -2.3284    -0.3718    -0.1303 C.ar    
   5 C5            -2.0822     0.9756     0.0686 C.ar    
   6 C6            -0.7960     1.4689    -0.0324 C.ar    
   7 S7            -3.9717    -0.9926     0.0075 S.o2    
   8 N8            -4.2470    -1.2990     1.6115 N.am    
   9 C9            -3.4672    -2.2409     2.2865 C.ar    
  10 N10            1.6196     0.7979    -0.5178 N.am    
  11 C11            2.1571    -0.4032    -0.8091 C.2     
  12 O12            1.1896    -1.3334    -0.8270 O.3     
  13 O13           -4.8360     0.0768    -0.3509 O.2     
  14 O14           -3.9809    -2.2528    -0.6490 O.2     
  15 C15            2.3435     2.0664    -0.4041 C.3     
  16 O16            3.3359    -0.6119    -1.0227 O.2     
  17 C17           -2.9431    -1.9424     3.5378 C.ar    
  18 C18           -3.2188    -3.4802     1.7105 C.ar    
  19 C19           -2.4473    -4.4092     2.3806 C.ar    
  20 C20           -1.9227    -4.1069     3.6239 C.ar    
  21 C21           -2.1724    -2.8760     4.2025 C.ar    
  22 H22           -1.4893    -2.2825    -0.5916 H       
  23 H23           -2.8975     1.6425     0.3072 H       
  24 H24           -0.6056     2.5205     0.1235 H       
  25 H25           -4.9499    -0.8243     2.0822 H       
  26 H26            2.6734     2.2055     0.6255 H       
  27 H27            3.2106     2.0504    -1.0644 H       
  28 H28            1.6852     2.8872    -0.6887 H       
  29 H29           -3.1378    -0.9813     3.9903 H       
  30 H30           -3.6288    -3.7172     0.7398 H       
  31 H31           -2.2537    -5.3730     1.9333 H       
  32 H32           -1.3203    -4.8355     4.1461 H       
  33 H33           -1.7612    -2.6431     5.1736 H       
@<TRIPOS>BOND
   1    1    2 ar
   2    1   10 1
   3    1    6 ar
   4    2    3 ar
   5    2   12 1
   6    3    4 ar
   7    3   22 1
   8    4    5 ar
   9    4    7 1
  10    5    6 ar
  11    5   23 1
  12    6   24 1
  13    7    8 am
  14    7   13 2
  15    7   14 2
  16    8    9 1
  17    8   25 1
  18    9   17 ar
  19    9   18 ar
  20   10   11 am
  21   10   15 1
  22   11   12 1
  23   11   16 2
  24   15   26 1
  25   15   27 1
  26   15   28 1
  27   17   21 ar
  28   17   29 1
  29   18   19 ar
  30   18   30 1
  31   19   20 ar
  32   19   31 1
  33   20   21 ar
  34   20   32 1
  35   21   33 1

#	End of record

