#	Name: ASD03240717
#	Creating user name:	WinNT
#	Creation time:	15. 06. 2019 20:35

#	Modifying user name:	WinNT
#	Modification time:	15. 06. 2019 20:35

#	Program:	/corina/corina34_cracker 3.40 0067  02.08.2006

@<TRIPOS>MOLECULE
ASD03240717
  69   74    0    0    0
SMALL
NO_CHARGES


@<TRIPOS>ATOM
   1 N1            -0.0178     1.4642     0.0101 N.3     
   2 C2             0.0021    -0.0041     0.0020 C.3     
   3 C3             0.7039    -0.5130     1.2631 C.3     
   4 C4             2.1331     0.0352     1.3025 C.3     
   5 C5             2.0858     1.5651     1.2611 C.3     
   6 C6             1.3439     2.0138     0.0000 C.3     
   7 C7             2.8099    -0.4136     2.5720 C.2     
   8 O8             2.2116    -1.1015     3.3649 O.2     
   9 O9             4.0773    -0.0491     2.8218 O.3     
  10 C10           -0.8045     1.9863    -1.1153 C.3     
  11 C11           -1.0092     3.4690    -0.9402 C.ar    
  12 C12           -0.0910     4.3584    -1.4693 C.ar    
  13 C13           -0.2730     5.7171    -1.3127 C.ar    
  14 C14           -1.3857     6.1934    -0.6192 C.ar    
  15 C15           -2.3079     5.2916    -0.0881 C.ar    
  16 C16           -2.1175     3.9353    -0.2560 C.ar    
  17 C17            0.2757    11.9092     0.1996 C.2     
  18 N18           -0.9399    12.4844     0.2013 N.2     
  19 C19           -2.0370    11.7884     0.0495 C.2     
  20 C20           -1.9409    10.3410    -0.1283 C.ar    
  21 C21           -0.6623     9.7434    -0.1287 C.ar    
  22 N22            0.4396    10.5599     0.0390 N.pl3   
  23 C23           -3.0775     9.5434    -0.2957 C.ar    
  24 C24           -2.8941     8.1738    -0.4578 C.ar    
  25 C25           -1.5868     7.6504    -0.4471 C.ar    
  26 N26           -0.5336     8.4377    -0.2864 N.ar    
  27 N27            1.8119    10.2859     0.0849 N.2     
  28 C28            2.4617    11.4107     0.2650 C.2     
  29 C29            1.5451    12.4513     0.3479 C.2     
  30 C30           -4.0604     7.2766    -0.6389 C.ar    
  31 C31           -5.1405     7.3471     0.2395 C.ar    
  32 C32           -6.2236     6.5098     0.0657 C.ar    
  33 C33           -6.2387     5.6014    -0.9775 C.ar    
  34 C34           -5.1695     5.5267    -1.8521 C.ar    
  35 C35           -4.0837     6.3632    -1.6918 C.ar    
  36 C36            3.9584    11.5507     0.3705 C.3     
  37 C37            4.6654    -0.5178     4.0639 C.3     
  38 C38            6.1030    -0.0056     4.1728 C.3     
  39 H39           -1.0204    -0.3810    -0.0218 H       
  40 H40            0.5390    -0.3552    -0.8792 H       
  41 H41            0.1597    -0.1738     2.1445 H       
  42 H42            0.7324    -1.6025     1.2493 H       
  43 H43            2.6892    -0.3354     0.4414 H       
  44 H44            1.5633     1.9370     2.1425 H       
  45 H45            3.1015     1.9603     1.2458 H       
  46 H46            1.8745     1.6533    -0.8812 H       
  47 H47            1.2960     3.1025    -0.0252 H       
  48 H48           -0.2719     1.8007    -2.0480 H       
  49 H49           -1.7729     1.4868    -1.1444 H       
  50 H50            0.7703     3.9884    -2.0056 H       
  51 H51            0.4446     6.4104    -1.7258 H       
  52 H52           -3.1712     5.6543     0.4501 H       
  53 H53           -2.8330     3.2363     0.1512 H       
  54 H54           -3.0004    12.2766     0.0553 H       
  55 H55           -4.0666     9.9770    -0.2984 H       
  56 H56            1.7784    13.4950     0.4987 H       
  57 H57           -5.1296     8.0554     1.0547 H       
  58 H58           -7.0610     6.5635     0.7456 H       
  59 H59           -7.0883     4.9479    -1.1095 H       
  60 H60           -5.1865     4.8153    -2.6645 H       
  61 H61           -3.2514     6.3071    -2.3778 H       
  62 H62            4.3790    11.7134    -0.6218 H       
  63 H63            4.1997    12.3991     1.0109 H       
  64 H64            4.3792    10.6410     0.7988 H       
  65 H65            4.0820    -0.1447     4.9056 H       
  66 H66            4.6661    -1.6077     4.0770 H       
  67 H67            6.6864    -0.3787     3.3310 H       
  68 H68            6.1023     1.0843     4.1596 H       
  69 H69            6.5444    -0.3575     5.1052 H       
@<TRIPOS>BOND
   1    1    2 1
   2    1    6 1
   3    1   10 1
   4    2    3 1
   5    2   39 1
   6    2   40 1
   7    3    4 1
   8    3   41 1
   9    3   42 1
  10    4    5 1
  11    4    7 1
  12    4   43 1
  13    5    6 1
  14    5   44 1
  15    5   45 1
  16    6   46 1
  17    6   47 1
  18    7    8 2
  19    7    9 1
  20    9   37 1
  21   10   11 1
  22   10   48 1
  23   10   49 1
  24   11   12 ar
  25   11   16 ar
  26   12   13 ar
  27   12   50 1
  28   13   14 ar
  29   13   51 1
  30   14   15 ar
  31   14   25 1
  32   15   16 ar
  33   15   52 1
  34   16   53 1
  35   17   18 1
  36   17   22 1
  37   17   29 2
  38   18   19 2
  39   19   20 1
  40   19   54 1
  41   20   21 ar
  42   20   23 ar
  43   21   22 1
  44   21   26 ar
  45   22   27 1
  46   23   24 ar
  47   23   55 1
  48   24   25 ar
  49   24   30 1
  50   25   26 ar
  51   27   28 2
  52   28   29 1
  53   28   36 1
  54   29   56 1
  55   30   31 ar
  56   30   35 ar
  57   31   32 ar
  58   31   57 1
  59   32   33 ar
  60   32   58 1
  61   33   34 ar
  62   33   59 1
  63   34   35 ar
  64   34   60 1
  65   35   61 1
  66   36   62 1
  67   36   63 1
  68   36   64 1
  69   37   38 1
  70   37   65 1
  71   37   66 1
  72   38   67 1
  73   38   68 1
  74   38   69 1

#	End of record

