#	Name: ASD01913109
#	Creating user name:	WinNT
#	Creation time:	15. 06. 2019 20:00

#	Modifying user name:	WinNT
#	Modification time:	15. 06. 2019 20:00

#	Program:	/corina/corina34_cracker 3.40 0067  02.08.2006

@<TRIPOS>MOLECULE
ASD01913109
  54   57    0    0    0
SMALL
NO_CHARGES


@<TRIPOS>ATOM
   1 C1            -0.0169     1.3949     0.0097 C.ar    
   2 C2             0.0021    -0.0041     0.0020 C.ar    
   3 C3             1.2233    -0.6890    -0.0061 C.ar    
   4 C4             2.3942     0.0109    -0.0067 C.ar    
   5 C5             2.3733     1.4099    -0.0134 C.ar    
   6 C6             1.1573     2.0946     0.0023 C.ar    
   7 C7             3.7173    -0.7090     0.0201 C.3     
   8 C8             4.7596     0.0814    -0.7669 C.3     
   9 N9             4.7888     1.4783    -0.3396 N.am    
  10 C10            3.6533     2.1445    -0.0582 C.2     
  11 O11            3.6815     3.3409     0.1565 O.2     
  12 C12           -1.2287    -0.7361     0.0030 C.1     
  13 C13           -2.2376    -1.3363     0.0037 C.1     
  14 C14           -3.4684    -2.0684     0.0047 C.ar    
  15 C15           -3.4542    -3.4660    -0.0030 C.ar    
  16 C16           -4.6435    -4.1642    -0.0021 C.ar    
  17 C17           -5.8489    -3.4844     0.0059 C.ar    
  18 C18           -5.8709    -2.1007     0.0135 C.ar    
  19 C19           -4.6897    -1.3889     0.0190 C.ar    
  20 C20            6.0764     2.1660    -0.2151 C.3     
  21 C21            6.4264     2.8183    -1.5278 C.2     
  22 O22            5.6744     2.7186    -2.4741 O.2     
  23 N23            7.5751     3.5125    -1.6502 N.am    
  24 C24            7.9359     4.1569    -2.9221 C.3     
  25 C25            8.2911     5.6211    -2.6425 C.3     
  26 N26            9.3252     5.6804    -1.6009 N.3     
  27 C27            8.8341     5.1301    -0.3305 C.3     
  28 C28            8.4983     3.6509    -0.5136 C.3     
  29 C29            9.8168     7.0535    -1.4248 C.3     
  30 H30           -0.9595     1.9221     0.0170 H       
  31 H31            1.2381    -1.7689    -0.0116 H       
  32 H32            1.1441     3.1745     0.0081 H       
  33 H33            4.0492    -0.8170     1.0526 H       
  34 H34            3.6005    -1.6969    -0.4255 H       
  35 H35            5.7420    -0.3628    -0.6064 H       
  36 H36            4.5164     0.0367    -1.8285 H       
  37 H37           -2.5142    -3.9978    -0.0100 H       
  38 H38           -4.6341    -5.2441    -0.0080 H       
  39 H39           -6.7771    -4.0365     0.0059 H       
  40 H40           -6.8154    -1.5770     0.0194 H       
  41 H41           -4.7083    -0.3091     0.0249 H       
  42 H42            6.0081     2.9272     0.5621 H       
  43 H43            6.8495     1.4447     0.0497 H       
  44 H44            8.7954     3.6487    -3.3592 H       
  45 H45            7.0908     4.1099    -3.6090 H       
  46 H46            8.6665     6.0849    -3.5547 H       
  47 H47            7.4020     6.1526    -2.3031 H       
  48 H48            9.6034     5.2378     0.4341 H       
  49 H49            7.9375     5.6685    -0.0233 H       
  50 H50            8.0272     3.2677     0.3916 H       
  51 H51            9.4104     3.0912    -0.7202 H       
  52 H52            8.9898     7.7010    -1.1335 H       
  53 H53           10.5813     7.0688    -0.6480 H       
  54 H54           10.2442     7.4094    -2.3622 H       
@<TRIPOS>BOND
   1    1    2 ar
   2    1    6 ar
   3    1   30 1
   4    2    3 ar
   5    2   12 1
   6    3    4 ar
   7    3   31 1
   8    4    5 ar
   9    4    7 1
  10    5    6 ar
  11    5   10 1
  12    6   32 1
  13    7    8 1
  14    7   33 1
  15    7   34 1
  16    8    9 1
  17    8   35 1
  18    8   36 1
  19    9   10 am
  20    9   20 1
  21   10   11 2
  22   12   13 3
  23   13   14 1
  24   14   15 ar
  25   14   19 ar
  26   15   16 ar
  27   15   37 1
  28   16   17 ar
  29   16   38 1
  30   17   18 ar
  31   17   39 1
  32   18   19 ar
  33   18   40 1
  34   19   41 1
  35   20   21 1
  36   20   42 1
  37   20   43 1
  38   21   22 2
  39   21   23 am
  40   23   24 1
  41   23   28 1
  42   24   25 1
  43   24   44 1
  44   24   45 1
  45   25   26 1
  46   25   46 1
  47   25   47 1
  48   26   27 1
  49   26   29 1
  50   27   28 1
  51   27   48 1
  52   27   49 1
  53   28   50 1
  54   28   51 1
  55   29   52 1
  56   29   53 1
  57   29   54 1

#	End of record

