#	Name: ASD01913566
#	Creating user name:	WinNT
#	Creation time:	15. 06. 2019 20:01

#	Modifying user name:	WinNT
#	Modification time:	15. 06. 2019 20:01

#	Program:	/corina/corina34_cracker 3.40 0067  02.08.2006

@<TRIPOS>MOLECULE
ASD01913566
  38   40    0    0    0
SMALL
NO_CHARGES


@<TRIPOS>ATOM
   1 C1            -2.8580     0.7512     0.9599 C.ar    
   2 C2            -2.4189    -0.0653    -0.0796 C.ar    
   3 C3            -3.2180    -0.2091    -1.2070 C.ar    
   4 N4            -4.3747     0.4161    -1.2950 N.ar    
   5 C5            -4.8185     1.1960    -0.3284 C.ar    
   6 C6            -4.0803     1.3889     0.8243 C.ar    
   7 C7            -1.1583    -2.1183     0.1073 C.ar    
   8 C8             0.0535    -2.8068     0.0804 C.ar    
   9 C9             0.0500    -4.1856     0.1852 C.ar    
  10 N10           -1.0776    -4.8531     0.3094 N.ar    
  11 C11           -2.2557    -4.2392     0.3398 C.ar    
  12 C12           -2.3355    -2.8548     0.2400 C.ar    
  13 C13           -3.4954    -5.0373     0.4812 C.2     
  14 N14           -3.4253    -6.3797     0.5784 N.am    
  15 N15           -1.1925    -0.7296     0.0100 N.pl3   
  16 O16           -4.5758    -4.4816     0.5096 O.2     
  17 C17           -4.5877    -7.1280     0.7110 C.2     
  18 S18           -6.1689    -6.4798     0.7645 S.3     
  19 C19           -6.8390    -8.1006     0.9304 C.2     
  20 C20           -5.8259    -8.9693     0.9305 C.2     
  21 N21           -4.6322    -8.4202     0.8067 N.2     
  22 C22            0.0571     0.0350     0.0015 C.3     
  23 C23           -6.0289   -10.4572     1.0569 C.3     
  24 H24           -2.2623     0.8804     1.8515 H       
  25 H25           -2.8877    -0.8393    -2.0196 H       
  26 H26           -5.7719     1.6911    -0.4392 H       
  27 H27           -4.4525     2.0292     1.6104 H       
  28 H28            0.9846    -2.2693    -0.0215 H       
  29 H29            0.9867    -4.7228     0.1644 H       
  30 H30           -3.2938    -2.3574     0.2648 H       
  31 H31           -2.5629    -6.8232     0.5558 H       
  32 H32           -7.8867    -8.3479     1.0176 H       
  33 H33            0.3306     0.2956     1.0239 H       
  34 H34            0.8487    -0.5675    -0.4441 H       
  35 H35           -0.0782     0.9458    -0.5818 H       
  36 H36           -6.1445   -10.8937     0.0648 H       
  37 H37           -5.1645   -10.9011     1.5507 H       
  38 H38           -6.9244   -10.6530     1.6466 H       
@<TRIPOS>BOND
   1    1    2 ar
   2    1    6 ar
   3    1   24 1
   4    2    3 ar
   5    2   15 1
   6    3    4 ar
   7    3   25 1
   8    4    5 ar
   9    5    6 ar
  10    5   26 1
  11    6   27 1
  12    7    8 ar
  13    7   12 ar
  14    7   15 1
  15    8    9 ar
  16    8   28 1
  17    9   10 ar
  18    9   29 1
  19   10   11 ar
  20   11   12 ar
  21   11   13 1
  22   12   30 1
  23   13   14 am
  24   13   16 2
  25   14   17 1
  26   14   31 1
  27   15   22 1
  28   17   18 1
  29   17   21 2
  30   18   19 1
  31   19   20 2
  32   19   32 1
  33   20   21 1
  34   20   23 1
  35   22   33 1
  36   22   34 1
  37   22   35 1
  38   23   36 1
  39   23   37 1
  40   23   38 1

#	End of record

