#	Name: ASD03240602
#	Creating user name:	WinNT
#	Creation time:	15. 06. 2019 20:35

#	Modifying user name:	WinNT
#	Modification time:	15. 06. 2019 20:35

#	Program:	/corina/corina34_cracker 3.40 0067  02.08.2006

@<TRIPOS>MOLECULE
ASD03240602
  58   64    0    0    0
SMALL
NO_CHARGES


@<TRIPOS>ATOM
   1 C1            -0.0166     1.3755     0.0096 C.ar    
   2 C2             0.0021    -0.0041     0.0020 C.ar    
   3 N3             1.1422    -0.6683    -0.0058 N.ar    
   4 C4             2.3145    -0.0481    -0.0058 C.ar    
   5 C5             2.3702     1.3442    -0.0124 C.ar    
   6 C6             1.1860     2.0698     0.0019 C.ar    
   7 N7             3.4819    -0.8058     0.0219 N.pl3   
   8 C8             4.3590    -0.7196     1.0996 C.ar    
   9 C9             4.9953     0.4886     1.4037 C.ar    
  10 C10            4.7639     1.6832     0.5621 C.2     
  11 N11            3.5938     2.0276    -0.0512 N.pl3   
  12 C12            4.6048    -1.8395     1.8829 C.ar    
  13 C13            5.4646    -1.7544     2.9613 C.ar    
  14 C14            6.0857    -0.5565     3.2701 C.ar    
  15 C15            5.8561     0.5647     2.4983 C.ar    
  16 N16            5.6754     2.5934     0.2854 N.2     
  17 C17            5.1446     3.5397    -0.5051 C.2     
  18 C18            3.8216     3.2031    -0.7358 C.2     
  19 C19            2.8483     3.9531    -1.5531 C.ar    
  20 C20            2.7489     5.3410    -1.4285 C.ar    
  21 C21            2.0259     3.2792    -2.4593 C.ar    
  22 C22            1.1188     3.9867    -3.2202 C.ar    
  23 C23            1.0225     5.3608    -3.0880 C.ar    
  24 C24            1.8373     6.0355    -2.1959 C.ar    
  25 C25            5.8477     4.7301    -1.0345 C.ar    
  26 C26            0.0292     6.1267    -3.9233 C.3     
  27 N27           -1.0497     5.2785    -4.4472 N.3     
  28 C28            5.5590     5.2345    -2.3069 C.ar    
  29 N29            6.2026     6.2962    -2.7484 N.ar    
  30 N30            7.0962     6.8961    -2.0505 N.ar    
  31 C31            7.4382     6.4961    -0.8392 C.ar    
  32 C32            6.8217     5.3945    -0.2756 C.ar    
  33 C33           -0.4716     7.4180    -3.2550 C.3     
  34 C34           -0.3850     8.0762    -4.6422 C.3     
  35 C35            0.6819     7.0221    -4.9897 C.3     
  36 H36           -0.9556     1.9091     0.0170 H       
  37 H37           -0.9306    -0.5486     0.0028 H       
  38 H38            1.2002     3.1497     0.0068 H       
  39 H39            3.6862    -1.4001    -0.7170 H       
  40 H40            4.1234    -2.7776     1.6493 H       
  41 H41            5.6530    -2.6282     3.5674 H       
  42 H42            6.7520    -0.4988     4.1181 H       
  43 H43            6.3420     1.4981     2.7412 H       
  44 H44            3.3842     5.8688    -0.7326 H       
  45 H45            2.1005     2.2069    -2.5640 H       
  46 H46            0.4824     3.4670    -3.9212 H       
  47 H47            1.7565     7.1079    -2.0976 H       
  48 H48           -0.6768     4.4565    -4.8981 H       
  49 H49           -1.6991     5.0274    -3.7170 H       
  50 H50            4.8130     4.7562    -2.9242 H       
  51 H51            8.1966     7.0318    -0.2875 H       
  52 H52            7.0875     5.0518     0.7135 H       
  53 H53           -1.4885     7.3441    -2.8696 H       
  54 H54            0.2278     7.8340    -2.5299 H       
  55 H55           -1.2987     7.9805    -5.2287 H       
  56 H56           -0.0010     9.0961    -4.6183 H       
  57 H57            1.6972     7.3294    -4.7390 H       
  58 H58            0.5951     6.6307    -6.0033 H       
@<TRIPOS>BOND
   1    1    2 ar
   2    1    6 ar
   3    1   36 1
   4    2    3 ar
   5    2   37 1
   6    3    4 ar
   7    4    5 ar
   8    4    7 1
   9    5    6 ar
  10    5   11 1
  11    6   38 1
  12    7    8 1
  13    7   39 1
  14    8    9 ar
  15    8   12 ar
  16    9   10 1
  17    9   15 ar
  18   10   11 1
  19   10   16 2
  20   11   18 1
  21   12   13 ar
  22   12   40 1
  23   13   14 ar
  24   13   41 1
  25   14   15 ar
  26   14   42 1
  27   15   43 1
  28   16   17 1
  29   17   18 2
  30   17   25 1
  31   18   19 1
  32   19   20 ar
  33   19   21 ar
  34   20   24 ar
  35   20   44 1
  36   21   22 ar
  37   21   45 1
  38   22   23 ar
  39   22   46 1
  40   23   24 ar
  41   23   26 1
  42   24   47 1
  43   25   28 ar
  44   25   32 ar
  45   26   27 1
  46   26   33 1
  47   26   35 1
  48   27   48 1
  49   27   49 1
  50   28   29 ar
  51   28   50 1
  52   29   30 ar
  53   30   31 ar
  54   31   32 ar
  55   31   51 1
  56   32   52 1
  57   33   34 1
  58   33   53 1
  59   33   54 1
  60   34   35 1
  61   34   55 1
  62   34   56 1
  63   35   57 1
  64   35   58 1

#	End of record

