#	Name: ASD01940178
#	Creating user name:	WinNT
#	Creation time:	15. 06. 2019 20:11

#	Modifying user name:	WinNT
#	Modification time:	15. 06. 2019 20:11

#	Program:	/corina/corina34_cracker 3.40 0067  02.08.2006

@<TRIPOS>MOLECULE
ASD01940178
  62   63    0    0    0
SMALL
NO_CHARGES


@<TRIPOS>ATOM
   1 C1            -1.3200     0.7001     0.2991 C.ar    
   2 C2            -1.6053     0.9963     1.6228 C.ar    
   3 C3            -2.4804     2.0243     1.9321 C.ar    
   4 C4            -3.0743     2.7605     0.9203 C.ar    
   5 C5            -2.7929     2.4691    -0.4089 C.ar    
   6 C6            -1.9089     1.4397    -0.7209 C.ar    
   7 N7            -1.6214     1.1415    -2.0629 N.am    
   8 S8            -0.0481     1.0255    -2.5666 S.o2    
   9 O9             0.0807     2.0423    -3.5508 O.2     
  10 O10            0.7088     1.0691    -1.3647 O.2     
  11 F11           -2.7559     2.3092     3.2236 F       
  12 F12           -3.9277     3.7622     1.2259 F       
  13 N13           -3.3941     3.2132    -1.4335 N.pl3   
  14 C14           -4.7583     3.0616    -1.6995 C.ar    
  15 C15           -5.5316     4.1699    -2.0311 C.ar    
  16 C16           -5.3436     1.8042    -1.6390 C.ar    
  17 C17           -6.6920     1.6576    -1.9028 C.ar    
  18 C18           -7.4592     2.7607    -2.2274 C.ar    
  19 C19           -6.8799     4.0152    -2.2938 C.ar    
  20 F20           -4.9658     5.3950    -2.0959 F       
  21 C21           -8.9292     2.5955    -2.5153 C.3     
  22 C22            0.0630    -0.6165    -3.3296 C.3     
  23 C23           -0.3325    -1.6926    -2.3164 C.3     
  24 C24           -0.8566    -0.6888    -4.5612 C.3     
  25 C25            1.4987    -0.8685    -3.8348 C.3     
  26 O26           -0.4599    -0.3102    -0.0021 O.3     
  27 C27            0.1696    -0.9750     1.0950 C.3     
  28 C28           -0.3982    -3.0519    -3.0156 C.3     
  29 C29           -0.8810    -4.0688    -2.0671 C.1     
  30 C30           -1.2661    -4.8798    -1.3106 C.1     
  31 C31           -1.7488    -5.8967    -0.3621 C.3     
  32 C32            1.3043    -1.6549    -5.1549 C.3     
  33 C33            0.0521    -0.9816    -5.7730 C.3     
  34 H34           -1.1445     0.4243     2.4145 H       
  35 H35           -2.3443     1.0034    -2.6947 H       
  36 H36           -2.8637     3.8333    -1.9579 H       
  37 H37           -4.7454     0.9413    -1.3862 H       
  38 H38           -7.1472     0.6793    -1.8557 H       
  39 H39           -7.4823     4.8750    -2.5473 H       
  40 H40           -9.4949     2.7015    -1.5897 H       
  41 H41           -9.2483     3.3583    -3.2256 H       
  42 H42           -9.1076     1.6072    -2.9390 H       
  43 H43            0.4089    -1.7302    -1.5182 H       
  44 H44           -1.3087    -1.4534    -1.8946 H       
  45 H45           -1.5840    -1.4910    -4.4375 H       
  46 H46           -1.3696     0.2628    -4.7005 H       
  47 H47            2.0074     0.0765    -4.0251 H       
  48 H48            2.0575    -1.4653    -3.1139 H       
  49 H49           -0.5926    -1.3570     1.7742 H       
  50 H50            0.7711    -1.8035     0.7211 H       
  51 H51            0.8105    -0.2717     1.6267 H       
  52 H52           -1.0813    -2.9920    -3.8629 H       
  53 H53            0.5955    -3.3273    -3.3689 H       
  54 H54           -1.7957    -6.8650    -0.8602 H       
  55 H55           -1.0657    -5.9566     0.4852 H       
  56 H56           -2.7426    -5.6213    -0.0088 H       
  57 H57            2.1695    -1.5352    -5.8069 H       
  58 H58            1.1148    -2.7090    -4.9523 H       
  59 H59           -0.4437    -1.6611    -6.4662 H       
  60 H60            0.3268    -0.0547    -6.2766 H       
  61 H61            7.1695    10.3950     8.2236 H       
  62 H62            7.1695    11.1550     8.2236 H       
@<TRIPOS>BOND
   1    1    2 ar
   2    1   26 1
   3    1    6 ar
   4    2    3 ar
   5    2   34 1
   6    3    4 ar
   7    3   11 1
   8    4    5 ar
   9    4   12 1
  10    5    6 ar
  11    5   13 1
  12    6    7 1
  13    7    8 am
  14    7   35 1
  15    8    9 2
  16    8   10 2
  17    8   22 1
  18   13   14 1
  19   13   36 1
  20   14   15 ar
  21   14   16 ar
  22   15   20 1
  23   15   19 ar
  24   16   17 ar
  25   16   37 1
  26   17   18 ar
  27   17   38 1
  28   18   19 ar
  29   18   21 1
  30   19   39 1
  31   21   40 1
  32   21   41 1
  33   21   42 1
  34   22   23 1
  35   22   24 1
  36   22   25 1
  37   23   28 1
  38   23   43 1
  39   23   44 1
  40   24   33 1
  41   24   45 1
  42   24   46 1
  43   25   32 1
  44   25   47 1
  45   25   48 1
  46   26   27 1
  47   27   49 1
  48   27   50 1
  49   27   51 1
  50   28   29 1
  51   28   52 1
  52   28   53 1
  53   29   30 3
  54   30   31 1
  55   31   54 1
  56   31   55 1
  57   31   56 1
  58   32   33 1
  59   32   57 1
  60   32   58 1
  61   33   59 1
  62   33   60 1
  63   61   62 1

#	End of record

