#	Name: ASD01200267
#	Creating user name:	WinNT
#	Creation time:	15. 06. 2019 19:08

#	Modifying user name:	WinNT
#	Modification time:	15. 06. 2019 19:08

#	Program:	/corina/corina34_cracker 3.40 0067  02.08.2006

@<TRIPOS>MOLECULE
ASD01200267
  56   58    0    0    0
SMALL
NO_CHARGES


@<TRIPOS>ATOM
   1 C1            -0.0840     1.4353     0.0232 C.ar    
   2 C2             0.0197     0.0528    -0.0174 C.ar    
   3 C3            -1.1226    -0.7343     0.0244 C.ar    
   4 C4            -2.3717    -0.1414     0.1070 C.ar    
   5 C5            -2.4804     1.2491     0.1486 C.ar    
   6 C6            -1.3291     2.0362     0.1120 C.ar    
   7 O7             1.0378     2.2014    -0.0185 O.3     
   8 C8             0.8545     3.6164    -0.0985 C.3     
   9 C9             2.0869     4.2547    -0.7423 C.3     
  10 O10            3.2196     4.0678     0.1086 O.3     
  11 C11            0.6613     4.1859     1.3084 C.3     
  12 C12           -3.8115     1.8864     0.2362 C.2     
  13 N13           -4.9223     1.1240     0.2761 N.am    
  14 O14           -3.9042     3.0980     0.2724 O.2     
  15 C15           -6.1836     1.7278     0.3591 C.2     
  16 N16           -7.3362     1.1022     0.4051 N.2     
  17 N17           -8.3520     2.0634     0.4849 N.pl3   
  18 C18           -7.7744     3.2833     0.4853 C.2     
  19 C19           -6.4353     3.1082     0.4138 C.2     
  20 C20           -9.7899     1.7921     0.5551 C.3     
  21 O21           -1.0156    -2.0883    -0.0161 O.3     
  22 C22           -1.4845    -2.7327    -1.1169 C.ar    
  23 C23           -1.5158    -4.1190    -1.1607 C.ar    
  24 N24           -1.9695    -4.7482    -2.2266 N.ar    
  25 C25           -2.4083    -4.0949    -3.2845 C.ar    
  26 C26           -2.4089    -2.7126    -3.3153 C.ar    
  27 C27           -1.9456    -2.0114    -2.2141 C.ar    
  28 S28           -3.0015    -4.9955    -4.6779 S.o2    
  29 C29           -4.7733    -5.2130    -4.3556 C.3     
  30 C30           -5.4098    -5.9910    -5.5090 C.3     
  31 O31           -2.7986    -4.1163    -5.7757 O.2     
  32 O32           -2.3243    -6.2426    -4.6033 O.2     
  33 H33            0.9921    -0.4126    -0.0822 H       
  34 H34           -3.2603    -0.7545     0.1388 H       
  35 H35           -1.4088     3.1128     0.1444 H       
  36 H36           -0.0258     3.8351    -0.7030 H       
  37 H37            2.2764     3.7858    -1.7078 H       
  38 H38            1.9113     5.3211    -0.8845 H       
  39 H39            4.0385     4.4481    -0.2375 H       
  40 H40            0.5215     5.2652     1.2474 H       
  41 H41           -0.2167     3.7311     1.7671 H       
  42 H42            1.5415     3.9672     1.9129 H       
  43 H43           -4.8483     0.1573     0.2472 H       
  44 H44           -8.2899     4.2309     0.5372 H       
  45 H45           -5.6918     3.8913     0.3958 H       
  46 H46          -10.0915     1.6984     1.5984 H       
  47 H47          -10.3375     2.6123     0.0909 H       
  48 H48          -10.0107     0.8637     0.0283 H       
  49 H49           -1.1646    -4.6885    -0.3130 H       
  50 H50           -2.7699    -2.1857    -4.1862 H       
  51 H51           -1.9345    -0.9315    -2.2104 H       
  52 H52           -4.9083    -5.7661    -3.4261 H       
  53 H53           -5.2495    -4.2363    -4.2696 H       
  54 H54           -5.2748    -5.4379    -6.4385 H       
  55 H55           -4.9336    -6.9677    -5.5950 H       
  56 H56           -6.4745    -6.1216    -5.3153 H       
@<TRIPOS>BOND
   1    1    2 ar
   2    1    7 1
   3    1    6 ar
   4    2    3 ar
   5    2   33 1
   6    3    4 ar
   7    3   21 1
   8    4    5 ar
   9    4   34 1
  10    5    6 ar
  11    5   12 1
  12    6   35 1
  13    7    8 1
  14    8    9 1
  15    8   11 1
  16    8   36 1
  17    9   10 1
  18    9   37 1
  19    9   38 1
  20   10   39 1
  21   11   40 1
  22   11   41 1
  23   11   42 1
  24   12   13 am
  25   12   14 2
  26   13   15 1
  27   13   43 1
  28   15   16 2
  29   15   19 1
  30   16   17 1
  31   17   18 1
  32   17   20 1
  33   18   19 2
  34   18   44 1
  35   19   45 1
  36   20   46 1
  37   20   47 1
  38   20   48 1
  39   21   22 1
  40   22   23 ar
  41   22   27 ar
  42   23   24 ar
  43   23   49 1
  44   24   25 ar
  45   25   26 ar
  46   25   28 1
  47   26   27 ar
  48   26   50 1
  49   27   51 1
  50   28   29 1
  51   28   31 2
  52   28   32 2
  53   29   30 1
  54   29   52 1
  55   29   53 1
  56   30   54 1
  57   30   55 1
  58   30   56 1

#	End of record

