#	Name: ASD01150298
#	Creating user name:	WinNT
#	Creation time:	15. 06. 2019 19:04

#	Modifying user name:	WinNT
#	Modification time:	15. 06. 2019 19:04

#	Program:	/corina/corina34_cracker 3.40 0067  02.08.2006

@<TRIPOS>MOLECULE
ASD01150298
  66   69    0    0    0
SMALL
NO_CHARGES


@<TRIPOS>ATOM
   1 C1            -0.0158     1.3123     0.0093 C.2     
   2 N2             0.0021    -0.0041     0.0020 N.2     
   3 C3            -1.2464    -0.4793     0.0119 C.2     
   4 C4            -2.1134     0.6063     0.0263 C.2     
   5 N5            -1.3045     1.7452     0.0298 N.pl3   
   6 N6             1.0958     2.1231     0.0030 N.3     
   7 C7             2.3292     1.3253    -0.0137 C.3     
   8 C8             1.0586     3.0587    -1.1289 C.3     
   9 C9            -1.7378     3.0773     0.0433 C.ar    
  10 N10           -1.6125    -1.8199     0.0079 N.am    
  11 C11           -3.5221     0.5666     0.0397 C.2     
  12 O12           -4.2300     1.7166     0.0524 O.3     
  13 O13           -4.1011    -0.5048     0.0397 O.2     
  14 C14           -5.6543     1.6016     0.0656 C.3     
  15 C15           -6.0926     0.8352     1.3151 C.3     
  16 C16           -6.2786     2.9983     0.0788 C.3     
  17 C17           -6.1166     0.8481    -1.1832 C.3     
  18 C18           -1.4627     3.8873     1.1370 C.ar    
  19 C19           -1.8909     5.2004     1.1470 C.ar    
  20 C20           -2.5933     5.7084     0.0696 C.ar    
  21 C21           -2.8692     4.9040    -1.0208 C.ar    
  22 C22           -2.4384     3.5919    -1.0395 C.ar    
  23 C23           -0.6642    -2.7774    -0.0066 C.2     
  24 C24           -1.0524    -4.1990    -0.0108 C.2     
  25 O25            0.5119    -2.4683    -0.0162 O.2     
  26 C26           -2.3708    -4.7088    -0.0014 C.2     
  27 N27           -2.3009    -6.0116    -0.0092 N.2     
  28 N28           -0.9548    -6.3938    -0.0237 N.pl3   
  29 C29           -0.1965    -5.2825    -0.0307 C.2     
  30 C30           -0.4774    -7.7114    -0.0353 C.ar    
  31 C31           -1.1598    -8.7047     0.6544 C.ar    
  32 C32           -0.6868   -10.0022     0.6411 C.ar    
  33 C33            0.4651   -10.3126    -0.0581 C.ar    
  34 C34            1.1469    -9.3257    -0.7460 C.ar    
  35 C35            0.6757    -8.0273    -0.7412 C.ar    
  36 C36            1.3095    -5.2298    -0.0465 C.3     
  37 F37            1.7617    -5.2123    -1.3703 F       
  38 F38            1.7426    -4.0726     0.6096 F       
  39 F39            1.8224    -6.3557     0.6066 F       
  40 H40            2.3464     0.7017    -0.9074 H       
  41 H41            3.1923     1.9909    -0.0183 H       
  42 H42            2.3639     0.6915     0.8724 H       
  43 H43            0.1696     3.6849    -1.0537 H       
  44 H44            1.9487     3.6875    -1.1100 H       
  45 H45            1.0299     2.4978    -2.0631 H       
  46 H46           -2.5506    -2.0664     0.0156 H       
  47 H47           -5.7632     1.3720     2.2048 H       
  48 H48           -7.1790     0.7474     1.3251 H       
  49 H49           -5.6478    -0.1599     1.3057 H       
  50 H50           -5.9664     3.5443    -0.8114 H       
  51 H51           -7.3650     2.9106     0.0888 H       
  52 H52           -5.9492     3.5351     0.9684 H       
  53 H53           -5.6718    -0.1470    -1.1926 H       
  54 H54           -7.2030     0.7603    -1.1732 H       
  55 H55           -5.8044     1.3941    -2.0734 H       
  56 H56           -0.9148     3.4910     1.9790 H       
  57 H57           -1.6773     5.8310     1.9974 H       
  58 H58           -2.9274     6.7354     0.0800 H       
  59 H59           -3.4183     5.3035    -1.8606 H       
  60 H60           -2.6542     2.9642    -1.8914 H       
  61 H61           -3.2775    -4.1223     0.0107 H       
  62 H62           -2.0593    -8.4628     1.2010 H       
  63 H63           -1.2169   -10.7752     1.1777 H       
  64 H64            0.8332   -11.3279    -0.0668 H       
  65 H65            2.0465    -9.5711    -1.2910 H       
  66 H66            1.2085    -7.2570    -1.2789 H       
@<TRIPOS>BOND
   1    1    2 2
   2    1    6 1
   3    1    5 1
   4    2    3 1
   5    3    4 2
   6    3   10 1
   7    4    5 1
   8    4   11 1
   9    5    9 1
  10    6    7 1
  11    6    8 1
  12    7   40 1
  13    7   41 1
  14    7   42 1
  15    8   43 1
  16    8   44 1
  17    8   45 1
  18    9   18 ar
  19    9   22 ar
  20   10   23 am
  21   10   46 1
  22   11   12 1
  23   11   13 2
  24   12   14 1
  25   14   15 1
  26   14   16 1
  27   14   17 1
  28   15   47 1
  29   15   48 1
  30   15   49 1
  31   16   50 1
  32   16   51 1
  33   16   52 1
  34   17   53 1
  35   17   54 1
  36   17   55 1
  37   18   19 ar
  38   18   56 1
  39   19   20 ar
  40   19   57 1
  41   20   21 ar
  42   20   58 1
  43   21   22 ar
  44   21   59 1
  45   22   60 1
  46   23   24 1
  47   23   25 2
  48   24   26 1
  49   24   29 2
  50   26   27 2
  51   26   61 1
  52   27   28 1
  53   28   29 1
  54   28   30 1
  55   29   36 1
  56   30   31 ar
  57   30   35 ar
  58   31   32 ar
  59   31   62 1
  60   32   33 ar
  61   32   63 1
  62   33   34 ar
  63   33   64 1
  64   34   35 ar
  65   34   65 1
  66   35   66 1
  67   36   37 1
  68   36   38 1
  69   36   39 1

#	End of record

