#	Name: ASD03090279
#	Creating user name:	WinNT
#	Creation time:	15. 06. 2019 20:28

#	Modifying user name:	WinNT
#	Modification time:	15. 06. 2019 20:28

#	Program:	/corina/corina34_cracker 3.40 0067  02.08.2006

@<TRIPOS>MOLECULE
ASD03090279
  55   58    0    0    0
SMALL
NO_CHARGES


@<TRIPOS>ATOM
   1 C1            -0.2698     0.9562    -0.8423 C.ar    
   2 C2            -0.1359    -0.1801    -0.0548 C.ar    
   3 C3             1.1004    -0.7659     0.1149 C.ar    
   4 C4             2.2230    -0.2173    -0.5065 C.ar    
   5 C5             2.0898     0.9244    -1.2971 C.ar    
   6 C6             0.8464     1.5096    -1.4623 C.ar    
   7 C7             3.5504    -0.8442    -0.3271 C.2     
   8 N8             7.0647    -0.8700    -0.4208 N.pl3   
   9 C9             7.4934     0.3408    -0.9746 C.ar    
  10 C10            6.7248     0.9735    -1.9427 C.ar    
  11 C11            7.1499     2.1694    -2.4879 C.ar    
  12 C12            8.3414     2.7372    -2.0698 C.ar    
  13 C13            9.1098     2.1077    -1.1048 C.ar    
  14 C14            8.6859     0.9150    -0.5528 C.ar    
  15 N15            4.7158    -0.2731    -0.5596 N.2     
  16 C16            5.6998    -1.1329    -0.2892 C.2     
  17 N17            5.1781    -2.2661     0.1200 N.2     
  18 N18            3.7835    -2.1023     0.1099 N.pl3   
  19 C19            2.7798    -3.1001     0.4884 C.3     
  20 F20            8.7553     3.9069    -2.6044 F       
  21 C21            2.5432    -3.0380     1.9987 C.3     
  22 C22            1.5107    -4.0644     2.3881 C.2     
  23 N23            1.1403    -4.1920     3.6776 N.am    
  24 O24            1.0131    -4.7755     1.5410 O.2     
  25 C25            0.1366    -5.1898     4.0561 C.3     
  26 C26            1.7414    -3.3330     4.7009 C.3     
  27 O27            0.7335     2.6277    -2.2307 O.3     
  28 C28           -0.5824     2.9714    -2.6778 C.3     
  29 C29           -1.5397     2.8615    -1.4834 C.3     
  30 O30           -1.5011     1.5132    -1.0019 O.3     
  31 C31           10.4068     2.7278    -0.6525 C.3     
  32 F32           10.9982     1.9146     0.3202 F       
  33 F33           11.2710     2.8510    -1.7457 F       
  34 F34           10.1551     3.9934    -0.1120 F       
  35 H35           -1.0037    -0.6061     0.4267 H       
  36 H36            1.2001    -1.6489     0.7288 H       
  37 H37            2.9565     1.3518    -1.7794 H       
  38 H38            7.7156    -1.5269    -0.1282 H       
  39 H39            5.7954     0.5307    -2.2694 H       
  40 H40            6.5526     2.6616    -3.2411 H       
  41 H41            9.2855     0.4245     0.1997 H       
  42 H42            1.8461    -2.8927    -0.0344 H       
  43 H43            3.1352    -4.0941     0.2169 H       
  44 H44            3.4768    -3.2454     2.5216 H       
  45 H45            2.1878    -2.0440     2.2702 H       
  46 H46            0.6319    -6.1309     4.2951 H       
  47 H47           -0.4148    -4.8378     4.9280 H       
  48 H48           -0.5541    -5.3431     3.2269 H       
  49 H49            2.4600    -2.6597     4.2337 H       
  50 H50            0.9612    -2.7494     5.1895 H       
  51 H51            2.2502    -3.9508     5.4408 H       
  52 H52           -0.5860     3.9925    -3.0591 H       
  53 H53           -0.8948     2.2838    -3.4637 H       
  54 H54           -1.2233     3.5442    -0.6948 H       
  55 H55           -2.5527     3.1092    -1.8003 H       
@<TRIPOS>BOND
   1    1    2 ar
   2    1    6 ar
   3    1   30 1
   4    2    3 ar
   5    2   35 1
   6    3    4 ar
   7    3   36 1
   8    4    5 ar
   9    4    7 1
  10    5    6 ar
  11    5   37 1
  12    6   27 1
  13    7   15 2
  14    7   18 1
  15    8    9 1
  16    8   16 1
  17    8   38 1
  18    9   10 ar
  19    9   14 ar
  20   10   11 ar
  21   10   39 1
  22   11   12 ar
  23   11   40 1
  24   12   13 ar
  25   12   20 1
  26   13   14 ar
  27   13   31 1
  28   14   41 1
  29   15   16 1
  30   16   17 2
  31   17   18 1
  32   18   19 1
  33   19   21 1
  34   19   42 1
  35   19   43 1
  36   21   22 1
  37   21   44 1
  38   21   45 1
  39   22   23 am
  40   22   24 2
  41   23   25 1
  42   23   26 1
  43   25   46 1
  44   25   47 1
  45   25   48 1
  46   26   49 1
  47   26   50 1
  48   26   51 1
  49   27   28 1
  50   28   29 1
  51   28   52 1
  52   28   53 1
  53   29   30 1
  54   29   54 1
  55   29   55 1
  56   31   32 1
  57   31   33 1
  58   31   34 1

#	End of record

