#	Name: ASD02030567
#	Creating user name:	WinNT
#	Creation time:	15. 06. 2019 20:15

#	Modifying user name:	WinNT
#	Modification time:	15. 06. 2019 20:15

#	Program:	/corina/corina34_cracker 3.40 0067  02.08.2006

@<TRIPOS>MOLECULE
ASD02030567
  44   46    0    0    0
SMALL
NO_CHARGES


@<TRIPOS>ATOM
   1 C1            -0.0166     1.3755     0.0096 C.ar    
   2 C2             0.0021    -0.0041     0.0020 C.ar    
   3 C3            -1.2718    -0.8086     0.0299 C.3     
   4 C4            -2.4944     0.1043    -0.0855 C.3     
   5 C5            -2.5691     0.7300    -1.4472 C.ar    
   6 C6            -1.8995     1.9541    -1.3913 C.ar    
   7 C7            -1.3496     2.1035     0.0083 C.3     
   8 C8             1.1589     2.0973     0.0023 C.ar    
   9 C9             2.3727     1.4334    -0.0230 C.ar    
  10 C10            2.3989     0.0516    -0.0400 C.ar    
  11 C11            1.2189    -0.6668    -0.0272 C.ar    
  12 C12           -3.1572     0.2886    -2.6165 C.ar    
  13 C13           -3.0617     1.1249    -3.7231 C.ar    
  14 C14           -2.4119     2.3399    -3.6609 C.ar    
  15 C15           -1.8126     2.7855    -2.4872 C.ar    
  16 C16           -1.2465     3.5585     0.4700 C.3     
  17 N17           -2.2700     1.2608     0.8331 N.3     
  18 H18           -3.4118    -0.4340     0.1525 H       
  19 H19           -1.2698    -1.5123    -0.8025 H       
  20 H20           -1.3254    -1.3629     0.9669 H       
  21 H21            1.1320     3.1769     0.0158 H       
  22 H22            3.2963     1.9930    -0.0297 H       
  23 H23            3.3452    -0.4684    -0.0633 H       
  24 H24            1.2447    -1.7465    -0.0397 H       
  25 H25           -3.6678    -0.6617    -2.6686 H       
  26 H26           -3.5080     0.8147    -4.6564 H       
  27 H27           -2.3671     2.9597    -4.5442 H       
  28 H28           -1.3041     3.7370    -2.4371 H       
  29 H29           -2.2364     4.0147     0.4575 H       
  30 H30           -0.8445     3.5907     1.4827 H       
  31 H31           -0.5853     4.1067    -0.2010 H       
  32 H32           -3.1342     1.7466     1.0208 H       
  33 C33            9.3178    12.2484     7.3287 C.2     
  34 C34           10.4050    13.0320     7.4166 C.2     
  35 C35           11.7321    12.4293     7.6472 C.2     
  36 C36            9.4530    10.8452     6.8925 C.2     
  37 O37           11.8263    11.2436     7.8921 O.2     
  38 O38           12.8395    13.1947     7.5859 O.3     
  39 O39           10.5208    10.4368     6.4827 O.2     
  40 O40            8.3916    10.0169     6.9491 O.3     
  41 H41            8.3452    12.6441     7.5814 H       
  42 H42           10.3080    14.1031     7.3186 H       
  43 H43           13.6862    12.7552     7.7440 H       
  44 H44            8.5287     9.1067     6.6526 H       
@<TRIPOS>BOND
   1    1    2 ar
   2    1    8 ar
   3    1    7 1
   4    2    3 1
   5    2   11 ar
   6    3    4 1
   7    3   19 1
   8    3   20 1
   9    4    5 1
  10    4   17 1
  11    4   18 1
  12    5    6 ar
  13    5   12 ar
  14    6    7 1
  15    6   15 ar
  16    7   16 1
  17    7   17 1
  18    8    9 ar
  19    8   21 1
  20    9   10 ar
  21    9   22 1
  22   10   11 ar
  23   10   23 1
  24   11   24 1
  25   12   13 ar
  26   12   25 1
  27   13   14 ar
  28   13   26 1
  29   14   15 ar
  30   14   27 1
  31   15   28 1
  32   16   29 1
  33   16   30 1
  34   16   31 1
  35   17   32 1
  36   33   36 1
  37   33   34 2
  38   33   41 1
  39   34   35 1
  40   34   42 1
  41   35   37 2
  42   35   38 1
  43   36   39 2
  44   36   40 1
  45   38   43 1
  46   40   44 1

#	End of record

