#	Name: ASD01150097
#	Creating user name:	WinNT
#	Creation time:	15. 06. 2019 19:03

#	Modifying user name:	WinNT
#	Modification time:	15. 06. 2019 19:03

#	Program:	/corina/corina34_cracker 3.40 0067  02.08.2006

@<TRIPOS>MOLECULE
ASD01150097
  38   39    0    0    0
SMALL
NO_CHARGES


@<TRIPOS>ATOM
   1 C1            -0.0166     1.3722     0.0096 C.2     
   2 N2             0.0021    -0.0041     0.0020 N.am    
   3 C3            -1.1494    -0.7003     0.0093 C.2     
   4 N4            -2.3394    -0.0729     0.0240 N.am    
   5 C5            -2.4056     1.2730     0.0319 C.2     
   6 C6            -1.2182     2.0268     0.0303 C.2     
   7 C7             1.2829    -0.7150    -0.0145 C.3     
   8 C8             1.7431    -0.9702     1.4221 C.3     
   9 C9             3.0808    -1.7127     1.4048 C.3     
  10 N10           -1.2654     3.4402     0.0385 N.pl3   
  11 N11            1.1617     2.0830     0.0022 N.pl3   
  12 O12           -1.1138    -1.9159     0.0020 O.2     
  13 O13           -3.4885     1.8339     0.0448 O.2     
  14 C14           -3.5748    -0.8603     0.0311 C.3     
  15 C15           -3.9850    -1.1384     1.4543 C.ar    
  16 C16           -4.8166    -0.2562     2.1186 C.ar    
  17 C17           -5.1932    -0.5107     3.4238 C.ar    
  18 C18           -4.7378    -1.6486     4.0656 C.ar    
  19 C19           -3.9056    -2.5312     3.4002 C.ar    
  20 C20           -3.5342    -2.2785     2.0931 C.ar    
  21 Cl21          -5.2100    -1.9687     5.7052 Cl      
  22 H22            1.1635    -1.6667    -0.5323 H       
  23 H23            2.0274    -0.1104    -0.5326 H       
  24 H24            1.8625    -0.0185     1.9399 H       
  25 H25            0.9987    -1.5748     1.9401 H       
  26 H26            2.9614    -2.6644     0.8870 H       
  27 H27            3.8253    -1.1081     0.8868 H       
  28 H28            3.4087    -1.8945     2.4283 H       
  29 H29           -2.1211     3.8968     0.0452 H       
  30 H30           -0.4420     3.9530     0.0373 H       
  31 H31            2.0109     1.6143    -0.0085 H       
  32 H32            1.1432     3.0528     0.0075 H       
  33 H33           -4.3642    -0.3021    -0.4721 H       
  34 H34           -3.4077    -1.8031    -0.4897 H       
  35 H35           -5.1717     0.6323     1.6177 H       
  36 H36           -5.8426     0.1788     3.9428 H       
  37 H37           -3.5498    -3.4197     3.9007 H       
  38 H38           -2.8846    -2.9673     1.5736 H       
@<TRIPOS>BOND
   1    1    2 1
   2    1   11 1
   3    1    6 2
   4    2    3 am
   5    2    7 1
   6    3    4 am
   7    3   12 2
   8    4    5 am
   9    4   14 1
  10    5    6 1
  11    5   13 2
  12    6   10 1
  13    7    8 1
  14    7   22 1
  15    7   23 1
  16    8    9 1
  17    8   24 1
  18    8   25 1
  19    9   26 1
  20    9   27 1
  21    9   28 1
  22   10   29 1
  23   10   30 1
  24   11   31 1
  25   11   32 1
  26   14   15 1
  27   14   33 1
  28   14   34 1
  29   15   16 ar
  30   15   20 ar
  31   16   17 ar
  32   16   35 1
  33   17   18 ar
  34   17   36 1
  35   18   19 ar
  36   18   21 1
  37   19   20 ar
  38   19   37 1
  39   20   38 1

#	End of record

