#	Name: ASD03240688
#	Creating user name:	WinNT
#	Creation time:	15. 06. 2019 20:35

#	Modifying user name:	WinNT
#	Modification time:	15. 06. 2019 20:35

#	Program:	/corina/corina34_cracker 3.40 0067  02.08.2006

@<TRIPOS>MOLECULE
ASD03240688
  60   66    0    0    0
SMALL
NO_CHARGES


@<TRIPOS>ATOM
   1 C1            -0.0188     1.5343     0.0105 C.3     
   2 C2             0.0021    -0.0041     0.0020 C.3     
   3 C3             1.3856     0.0950    -0.6636 C.3     
   4 C4             1.5137     1.4741    -0.0045 C.3     
   5 O5             2.1457     2.4688    -0.8135 O.3     
   6 C6             3.1762     3.0781    -0.0074 C.3     
   7 C7             3.4466     2.0106     1.0826 C.3     
   8 O8             2.1228     1.4602     1.2929 O.3     
   9 N9             0.0365    -0.5993     1.3446 N.3     
  10 C10           -1.0515    -0.6170    -0.8843 C.ar    
  11 C11           -1.5838    -1.8540    -0.5674 C.ar    
  12 C12           -2.5489    -2.4202    -1.3746 C.ar    
  13 C13           -2.9878    -1.7427    -2.5122 C.ar    
  14 C14           -2.4473    -0.4958    -2.8263 C.ar    
  15 C15           -1.4864     0.0623    -2.0083 C.ar    
  16 C16           -5.9153    -6.1891    -5.2980 C.2     
  17 N17           -6.8495    -5.4607    -5.9346 N.2     
  18 C18           -6.9069    -4.1584    -5.8260 C.2     
  19 C19           -5.9269    -3.4719    -4.9869 C.ar    
  20 C20           -4.9488    -4.2420    -4.3218 C.ar    
  21 N21           -4.9670    -5.6124    -4.4973 N.pl3   
  22 C22           -5.9370    -2.0821    -4.8310 C.ar    
  23 C23           -4.9665    -1.5111    -4.0138 C.ar    
  24 C24           -4.0231    -2.3450    -3.3831 C.ar    
  25 N25           -4.0452    -3.6585    -3.5543 N.ar    
  26 N26           -4.1548    -6.6338    -3.9901 N.2     
  27 C27           -4.5815    -7.7834    -4.4552 C.2     
  28 C28           -5.6756    -7.5564    -5.2806 C.2     
  29 C29           -4.9257    -0.0431    -3.8100 C.ar    
  30 C30           -4.9584     0.8167    -4.9067 C.ar    
  31 C31           -4.9206     2.1822    -4.7109 C.ar    
  32 C32           -4.8499     2.6982    -3.4293 C.ar    
  33 C33           -4.8168     1.8497    -2.3372 C.ar    
  34 C34           -4.8603     0.4826    -2.5206 C.ar    
  35 C35           -3.9795    -9.1305    -4.1487 C.3     
  36 H36           -0.4478     1.9704    -0.8917 H       
  37 H37           -0.4304     1.9607     0.9253 H       
  38 H38            2.1032    -0.6358    -0.2908 H       
  39 H39            1.3450     0.1331    -1.7522 H       
  40 H40            4.0728     3.2585    -0.6005 H       
  41 H41            2.8171     4.0043     0.4412 H       
  42 H42            4.1333     1.2465     0.7184 H       
  43 H43            3.8265     2.4717     1.9943 H       
  44 H44            0.0493    -1.6069     1.2932 H       
  45 H45            0.8238    -0.2541     1.8730 H       
  46 H46           -1.2428    -2.3777     0.3135 H       
  47 H47           -2.9635    -3.3861    -1.1264 H       
  48 H48           -2.7828     0.0334    -3.7059 H       
  49 H49           -1.0701     1.0295    -2.2482 H       
  50 H50           -7.6679    -3.5983    -6.3490 H       
  51 H51           -6.6747    -1.4711    -5.3298 H       
  52 H52           -6.2396    -8.3088    -5.8118 H       
  53 H53           -5.0128     0.4149    -5.9077 H       
  54 H54           -4.9458     2.8493    -5.5598 H       
  55 H55           -4.8202     3.7675    -3.2808 H       
  56 H56           -4.7613     2.2581    -1.3390 H       
  57 H57           -4.8389    -0.1787    -1.6670 H       
  58 H58           -4.4603    -9.5509    -3.2654 H       
  59 H59           -4.1311    -9.7977    -4.9972 H       
  60 H60           -2.9116    -9.0172    -3.9619 H       
@<TRIPOS>BOND
   1    1    2 1
   2    1    4 1
   3    1   36 1
   4    1   37 1
   5    2    3 1
   6    2    9 1
   7    2   10 1
   8    3    4 1
   9    3   38 1
  10    3   39 1
  11    4    5 1
  12    4    8 1
  13    5    6 1
  14    6    7 1
  15    6   40 1
  16    6   41 1
  17    7    8 1
  18    7   42 1
  19    7   43 1
  20    9   44 1
  21    9   45 1
  22   10   11 ar
  23   10   15 ar
  24   11   12 ar
  25   11   46 1
  26   12   13 ar
  27   12   47 1
  28   13   14 ar
  29   13   24 1
  30   14   15 ar
  31   14   48 1
  32   15   49 1
  33   16   17 1
  34   16   21 1
  35   16   28 2
  36   17   18 2
  37   18   19 1
  38   18   50 1
  39   19   20 ar
  40   19   22 ar
  41   20   21 1
  42   20   25 ar
  43   21   26 1
  44   22   23 ar
  45   22   51 1
  46   23   24 ar
  47   23   29 1
  48   24   25 ar
  49   26   27 2
  50   27   28 1
  51   27   35 1
  52   28   52 1
  53   29   30 ar
  54   29   34 ar
  55   30   31 ar
  56   30   53 1
  57   31   32 ar
  58   31   54 1
  59   32   33 ar
  60   32   55 1
  61   33   34 ar
  62   33   56 1
  63   34   57 1
  64   35   58 1
  65   35   59 1
  66   35   60 1

#	End of record

