#	Name: ASD01150485
#	Creating user name:	WinNT
#	Creation time:	15. 06. 2019 19:04

#	Modifying user name:	WinNT
#	Modification time:	15. 06. 2019 19:04

#	Program:	/corina/corina34_cracker 3.40 0067  02.08.2006

@<TRIPOS>MOLECULE
ASD01150485
  38   40    0    0    0
SMALL
NO_CHARGES


@<TRIPOS>ATOM
   1 C1             0.4657     1.3871    -0.9645 C.ar    
   2 C2             0.4834     0.0062    -0.9690 C.ar    
   3 C3             1.9184     0.0121     0.9511 C.ar    
   4 C4             1.9053     1.3930     0.9611 C.ar    
   5 C5             1.1777     2.0861     0.0020 C.ar    
   6 N6             1.1623     3.4852     0.0092 N.am    
   7 C7            -0.0113     4.1355    -0.0781 C.2     
   8 N8            -0.0630     5.4805    -0.0744 N.am    
   9 C9             1.0745     6.2002     0.0182 C.2     
  10 C10            2.3615     5.4949     0.1145 C.2     
  11 N11            2.3686     4.1879     0.1129 N.2     
  12 O12            1.0361     7.4166     0.0217 O.2     
  13 C13           -1.3553     6.1636    -0.1717 C.3     
  14 O14           -1.0435     3.4978    -0.1621 O.2     
  15 C15           -1.9093     6.3898     1.2114 C.ar    
  16 C16           -1.8760     7.6528     1.7710 C.ar    
  17 C17           -2.3839     7.8612     3.0398 C.ar    
  18 C18           -2.9258     6.8054     3.7508 C.ar    
  19 C19           -2.9600     5.5404     3.1920 C.ar    
  20 C20           -2.4570     5.3330     1.9193 C.ar    
  21 O21            3.5243     6.1909     0.2090 O.3     
  22 C22            4.7305     5.4299     0.2986 C.3     
  23 C23            1.2084    -0.6807    -0.0125 C.ar    
  24 Cl24          -3.5624     7.0679     5.3444 Cl      
  25 F25           -2.4901     4.0981     1.3723 F       
  26 H26           -0.0974     1.9230    -1.7142 H       
  27 H27           -0.0700    -0.5378    -1.7201 H       
  28 H28            2.4839    -0.5274     1.6964 H       
  29 H29            2.4599     1.9335     1.7138 H       
  30 H30           -1.2224     7.1233    -0.6713 H       
  31 H31           -2.0491     5.5487    -0.7449 H       
  32 H32           -1.4525     8.4775     1.2171 H       
  33 H33           -2.3574     8.8487     3.4763 H       
  34 H34           -3.3830     4.7159     3.7468 H       
  35 H35            5.5824     6.1063     0.3688 H       
  36 H36            4.6955     4.7965     1.1850 H       
  37 H37            4.8337     4.8066    -0.5896 H       
  38 H38            1.2200    -1.7606    -0.0178 H       
@<TRIPOS>BOND
   1    1    2 ar
   2    1    5 ar
   3    1   26 1
   4    2   23 ar
   5    2   27 1
   6    3    4 ar
   7    3   23 ar
   8    3   28 1
   9    4    5 ar
  10    4   29 1
  11    5    6 1
  12    6    7 am
  13    6   11 1
  14    7    8 am
  15    7   14 2
  16    8    9 am
  17    8   13 1
  18    9   10 1
  19    9   12 2
  20   10   11 2
  21   10   21 1
  22   13   15 1
  23   13   30 1
  24   13   31 1
  25   15   16 ar
  26   15   20 ar
  27   16   17 ar
  28   16   32 1
  29   17   18 ar
  30   17   33 1
  31   18   19 ar
  32   18   24 1
  33   19   20 ar
  34   19   34 1
  35   20   25 1
  36   21   22 1
  37   22   35 1
  38   22   36 1
  39   22   37 1
  40   23   38 1

#	End of record

