#	Name: ASD00843418
#	Creating user name:	WinNT
#	Creation time:	15. 06. 2019 18:46

#	Modifying user name:	WinNT
#	Modification time:	15. 06. 2019 18:46

#	Program:	/corina/corina34_cracker 3.40 0067  02.08.2006

@<TRIPOS>MOLECULE
ASD00843418
  97  102    0    0    0
SMALL
NO_CHARGES


@<TRIPOS>ATOM
   1 F1             5.7490    -2.5512    -1.8559 F       
   2 N2             1.0093     1.0805    -0.2098 N.ar    
   3 C3             1.1602    -0.1998    -0.5049 C.ar    
   4 C4             0.9723    -1.1766     0.4648 C.ar    
   5 C5             0.6242    -0.7932     1.7480 C.ar    
   6 C6             0.4755     0.5606     2.0172 C.ar    
   7 C7             0.6779     1.4767     1.0045 C.ar    
   8 C8             1.1449    -2.6344     0.1238 C.3     
   9 C9             0.7493    -3.5041     1.2979 C.2     
  10 C10            0.3194    -2.9954    -1.1128 C.3     
  11 C11           -1.1195    -2.6087    -0.8868 C.2     
  12 N12           -2.0563    -2.9352    -1.7991 N.am    
  13 O13           -1.4344    -2.0037     0.1160 O.2     
  14 C14           -3.4447    -2.4720    -1.6543 C.3     
  15 C15           -3.8780    -1.8142    -2.9687 C.3     
  16 N16           -3.6473    -2.7477    -4.0792 N.3     
  17 C17           -2.2186    -3.0553    -4.2286 C.3     
  18 C18           -1.7160    -3.7590    -2.9690 C.3     
  19 C19           -4.2069    -2.2238    -5.3323 C.3     
  20 C20           -3.8403    -3.1599    -6.4872 C.3     
  21 C21           -4.4768    -2.6420    -7.7790 C.3     
  22 N22           -5.9351    -2.5821    -7.6178 N.3     
  23 C23           -6.3131    -1.6528    -6.5454 C.3     
  24 C24           -5.7315    -2.1413    -5.2168 C.3     
  25 C25           -6.5901    -2.2212    -8.8822 C.3     
  26 O26           -0.3469    -3.5629     1.8138 O.2     
  27 N27            1.8403    -4.1994     1.6608 N.am    
  28 C28            2.6047    -2.9571    -0.0978 C.ar    
  29 C29            2.9463    -3.9017     0.8619 C.ar    
  30 C30            3.5356    -2.5045    -1.0054 C.ar    
  31 C31            4.8321    -2.9928    -0.9675 C.ar    
  32 C32            5.1846    -3.9352    -0.0148 C.ar    
  33 C33            4.2508    -4.3891     0.8955 C.ar    
  34 Cl34           6.8080    -4.5482     0.0345 Cl      
  35 C35            1.4462    -6.8594     2.2470 C.ar    
  36 C36            0.1795    -7.0722     1.7222 C.ar    
  37 C37            2.3775    -7.8805     2.2432 C.ar    
  38 C38            2.0501    -9.1152     1.7169 C.ar    
  39 C39            0.7843    -9.3330     1.1908 C.ar    
  40 C40           -0.1516    -8.3106     1.1938 C.ar    
  41 O41            0.4627   -10.5479     0.6737 O.3     
  42 O42           -0.7359    -6.0678     1.7266 O.3     
  43 C43           -2.0198    -6.3578     1.1701 C.3     
  44 C44            1.4762   -11.5549     0.7041 C.3     
  45 C45           -8.1086    -2.2903    -8.7079 C.3     
  46 C46           -6.1864    -0.7995    -9.2781 C.3     
  47 S47            1.8702    -5.2838     2.9120 S.o2    
  48 O48            3.2251    -5.3763     3.3305 O.2     
  49 O49            0.8103    -4.9183     3.7851 O.2     
  50 O50            1.5012    -0.5627    -1.7670 O.3     
  51 C51            1.6329     0.4847    -2.7301 C.3     
  52 C52            2.1202    -0.1008    -4.0570 C.3     
  53 F53            3.3182    -0.7928    -3.8494 F       
  54 F54            1.1554    -0.9795    -4.5612 F       
  55 H55            0.4713    -1.5303     2.5224 H       
  56 H56            0.2042     0.8935     3.0081 H       
  57 H57            0.5638     2.5311     1.2088 H       
  58 H58            0.7081    -2.4591    -1.9785 H       
  59 H59            0.3834    -4.0688    -1.2917 H       
  60 H60           -4.0933    -3.3211    -1.4385 H       
  61 H61           -3.5058    -1.7458    -0.8438 H       
  62 H62           -4.9377    -1.5639    -2.9181 H       
  63 H63           -3.2968    -0.9063    -3.1300 H       
  64 H64           -2.0749    -3.7052    -5.0918 H       
  65 H65           -1.6605    -2.1302    -4.3723 H       
  66 H66           -0.6350    -3.8861    -3.0273 H       
  67 H67           -2.1975    -4.7324    -2.8765 H       
  68 H68           -3.8010    -1.2308    -5.5254 H       
  69 H69           -2.7567    -3.1895    -6.6018 H       
  70 H70           -4.2118    -4.1625    -6.2750 H       
  71 H71           -4.0943    -1.6450    -7.9979 H       
  72 H72           -4.2295    -3.3142    -8.6006 H       
  73 H73           -5.9221    -0.6605    -6.7701 H       
  74 H74           -7.3996    -1.6066    -6.4711 H       
  75 H75           -6.1328    -3.1277    -4.9846 H       
  76 H76           -5.9991    -1.4430    -4.4238 H       
  77 H77           -6.2820    -2.9171    -9.6626 H       
  78 H78            3.2558    -1.7701    -1.7463 H       
  79 H79            4.5326    -5.1238     1.6353 H       
  80 H80            3.3629    -7.7129     2.6521 H       
  81 H81            2.7798    -9.9114     1.7145 H       
  82 H82           -1.1372    -8.4783     0.7852 H       
  83 H83           -1.9061    -6.6460     0.1250 H       
  84 H84           -2.4798    -7.1758     1.7246 H       
  85 H85           -2.6527    -5.4729     1.2362 H       
  86 H86            1.0895   -12.4730     0.2617 H       
  87 H87            2.3429   -11.2153     0.1370 H       
  88 H88            1.7691   -11.7444     1.7367 H       
  89 H89           -8.5946    -2.0226    -9.6460 H       
  90 H90           -8.3962    -3.3032    -8.4258 H       
  91 H91           -8.4168    -1.5945    -7.9275 H       
  92 H92           -5.1047    -0.7503    -9.4023 H       
  93 H93           -6.6724    -0.5318   -10.2163 H       
  94 H94           -6.4946    -0.1037    -8.4978 H       
  95 H95            0.6660     0.9655    -2.8784 H       
  96 H96            2.3530     1.2200    -2.3711 H       
  97 H97            2.2856     0.7059    -4.7711 H       
@<TRIPOS>BOND
   1    1   31 1
   2    2    3 ar
   3    2    7 ar
   4    3    4 ar
   5    3   50 1
   6    4    5 ar
   7    4    8 1
   8    5    6 ar
   9    5   55 1
  10    6    7 ar
  11    6   56 1
  12    7   57 1
  13    8    9 1
  14    8   10 1
  15    8   28 1
  16    9   26 2
  17    9   27 am
  18   10   11 1
  19   10   58 1
  20   10   59 1
  21   11   12 am
  22   11   13 2
  23   12   14 1
  24   12   18 1
  25   14   15 1
  26   14   60 1
  27   14   61 1
  28   15   16 1
  29   15   62 1
  30   15   63 1
  31   16   17 1
  32   16   19 1
  33   17   18 1
  34   17   64 1
  35   17   65 1
  36   18   66 1
  37   18   67 1
  38   19   20 1
  39   19   24 1
  40   19   68 1
  41   20   21 1
  42   20   69 1
  43   20   70 1
  44   21   22 1
  45   21   71 1
  46   21   72 1
  47   22   23 1
  48   22   25 1
  49   23   24 1
  50   23   73 1
  51   23   74 1
  52   24   75 1
  53   24   76 1
  54   25   45 1
  55   25   46 1
  56   25   77 1
  57   27   47 am
  58   27   29 1
  59   28   29 ar
  60   28   30 ar
  61   29   33 ar
  62   30   31 ar
  63   30   78 1
  64   31   32 ar
  65   32   33 ar
  66   32   34 1
  67   33   79 1
  68   35   36 ar
  69   35   37 ar
  70   35   47 1
  71   36   42 1
  72   36   40 ar
  73   37   38 ar
  74   37   80 1
  75   38   39 ar
  76   38   81 1
  77   39   40 ar
  78   39   41 1
  79   40   82 1
  80   41   44 1
  81   42   43 1
  82   43   83 1
  83   43   84 1
  84   43   85 1
  85   44   86 1
  86   44   87 1
  87   44   88 1
  88   45   89 1
  89   45   90 1
  90   45   91 1
  91   46   92 1
  92   46   93 1
  93   46   94 1
  94   47   48 2
  95   47   49 2
  96   50   51 1
  97   51   52 1
  98   51   95 1
  99   51   96 1
 100   52   53 1
 101   52   54 1
 102   52   97 1

#	End of record

