#	Name: ASD01812636
#	Creating user name:	WinNT
#	Creation time:	15. 06. 2019 19:28

#	Modifying user name:	WinNT
#	Modification time:	15. 06. 2019 19:28

#	Program:	/corina/corina34_cracker 3.40 0067  02.08.2006

@<TRIPOS>MOLECULE
ASD01812636
  49   53    0    0    0
SMALL
NO_CHARGES


@<TRIPOS>ATOM
   1 O1            -0.0163     1.3521     0.0095 O.3     
   2 C2             0.0021    -0.0041     0.0020 C.ar    
   3 C3             1.2105    -0.6847    -0.0132 C.ar    
   4 C4             1.2312    -2.0655    -0.0203 C.ar    
   5 C5             0.0448    -2.7828    -0.0128 C.ar    
   6 C6            -1.1604    -2.1223     0.0018 C.ar    
   7 C7            -1.2004    -0.7252     0.0155 C.ar    
   8 C8            -2.5947    -2.5892     0.0125 C.3     
   9 N9            -3.4200    -1.3759     0.0266 N.am    
  10 C10           -2.6104    -0.3028     0.0371 C.2     
  11 C11           -4.8845    -1.3402     0.0398 C.3     
  12 C12           -5.3740    -1.3358     1.4651 C.ar    
  13 O13           -2.9891     0.8526     0.0481 O.2     
  14 C14           -5.5688    -0.1358     2.1241 C.ar    
  15 C15           -6.0174    -0.1286     3.4304 C.ar    
  16 C16           -6.2727    -1.3278     4.0819 C.ar    
  17 C17           -6.0761    -2.5310     3.4176 C.ar    
  18 C18           -5.6328    -2.5316     2.1095 C.ar    
  19 N19           -6.7276    -1.3238     5.4078 N.pl3   
  20 C20           -7.0076    -2.4145     6.1565 C.2     
  21 N21           -6.9668    -0.1892     6.1939 N.2     
  22 C22           -7.3803    -0.5863     7.3704 C.2     
  23 C23           -7.4151    -1.9851     7.3733 C.2     
  24 C24            1.1738     2.0059     0.0016 C.ar    
  25 C25            1.7787     2.3510    -1.2142 C.ar    
  26 C26            3.0034     3.0236    -1.2108 C.ar    
  27 C27            3.6097     3.3438    -0.0126 C.ar    
  28 C28            3.0082     3.0007     1.1887 C.ar    
  29 C29            1.7933     2.3399     1.1981 C.ar    
  30 F30            4.7941     3.9937    -0.0105 F       
  31 F31            1.2114     2.0143     2.3731 F       
  32 C32            1.1453     2.0158    -2.4540 C.1     
  33 N33            0.6427     1.7498    -3.4375 N.1     
  34 H34            2.1388    -0.1327    -0.0198 H       
  35 H35            2.1759    -2.5889    -0.0321 H       
  36 H36            0.0677    -3.8626    -0.0188 H       
  37 H37           -2.8048    -3.1749    -0.8824 H       
  38 H38           -2.7883    -3.1845     0.9048 H       
  39 H39           -5.2305    -0.4387    -0.4659 H       
  40 H40           -5.2741    -2.2181    -0.4754 H       
  41 H41           -5.3697     0.7967     1.6169 H       
  42 H42           -6.1690     0.8089     3.9447 H       
  43 H43           -6.2739    -3.4654     3.9218 H       
  44 H44           -5.4843    -3.4671     1.5906 H       
  45 H45           -6.9218    -3.4435     5.8400 H       
  46 H46           -7.6461     0.0551     8.1976 H       
  47 H47           -7.7123    -2.6115     8.2013 H       
  48 H48            3.4753     3.2922    -2.1443 H       
  49 H49            3.4890     3.2544     2.1219 H       
@<TRIPOS>BOND
   1    1    2 1
   2    1   24 1
   3    2    3 ar
   4    2    7 ar
   5    3    4 ar
   6    3   34 1
   7    4    5 ar
   8    4   35 1
   9    5    6 ar
  10    5   36 1
  11    6    8 1
  12    6    7 ar
  13    7   10 1
  14    8    9 1
  15    8   37 1
  16    8   38 1
  17    9   10 am
  18    9   11 1
  19   10   13 2
  20   11   12 1
  21   11   39 1
  22   11   40 1
  23   12   14 ar
  24   12   18 ar
  25   14   15 ar
  26   14   41 1
  27   15   16 ar
  28   15   42 1
  29   16   17 ar
  30   16   19 1
  31   17   18 ar
  32   17   43 1
  33   18   44 1
  34   19   21 1
  35   19   20 1
  36   20   23 2
  37   20   45 1
  38   21   22 2
  39   22   23 1
  40   22   46 1
  41   23   47 1
  42   24   25 ar
  43   24   29 ar
  44   25   26 ar
  45   25   32 1
  46   26   27 ar
  47   26   48 1
  48   27   28 ar
  49   27   30 1
  50   28   29 ar
  51   28   49 1
  52   29   31 1
  53   32   33 3

#	End of record

