#	Name: ASD01915231
#	Creating user name:	WinNT
#	Creation time:	15. 06. 2019 20:05

#	Modifying user name:	WinNT
#	Modification time:	15. 06. 2019 20:05

#	Program:	/corina/corina34_cracker 3.40 0067  02.08.2006

@<TRIPOS>MOLECULE
ASD01915231
  31   32    0    0    0
SMALL
NO_CHARGES


@<TRIPOS>ATOM
   1 C1            -0.0168     1.3892    -0.0230 C.ar    
   2 C2             0.0039    -0.0071    -0.0250 C.ar    
   3 C3            -1.1820    -0.7191    -0.0308 C.ar    
   4 C4            -2.3940    -0.0537    -0.0351 C.ar    
   5 C5            -2.4269     1.3432    -0.0331 C.ar    
   6 C6            -1.2352     2.0654    -0.0210 C.ar    
   7 F7            -1.1559    -2.0698    -0.0328 F       
   8 C8             1.2516     2.1487    -0.0168 C.2     
   9 N9             2.4293     1.4934    -0.0131 N.am    
  10 O10            1.2323     3.3642    -0.0150 O.2     
  11 C11            3.6285     2.2078    -0.1264 C.ar    
  12 C12            4.7715     1.7635     0.5347 C.ar    
  13 C13            5.9551     2.4742     0.4186 C.ar    
  14 C14            6.0003     3.6211    -0.3519 C.ar    
  15 C15            4.8662     4.0630    -1.0081 C.ar    
  16 C16            3.6830     3.3569    -0.9021 C.ar    
  17 O17            4.7253     0.6355     1.2926 O.3     
  18 C18            5.9355     0.2399     1.9414 C.3     
  19 C19           -3.6828     2.0312    -0.0376 C.1     
  20 N20           -4.6790     2.5770    -0.0411 N.1     
  21 H21            0.9477    -0.5321    -0.0224 H       
  22 H22           -3.3169    -0.6146    -0.0404 H       
  23 H23           -1.2557     3.1452    -0.0194 H       
  24 H24            2.4464     0.5269     0.0680 H       
  25 H25            6.8426     2.1322     0.9303 H       
  26 H26            6.9239     4.1738    -0.4413 H       
  27 H27            4.9062     4.9600    -1.6084 H       
  28 H28            2.7989     3.7041    -1.4160 H       
  29 H29            5.7606    -0.6726     2.5115 H       
  30 H30            6.7066     0.0584     1.1928 H       
  31 H31            6.2624     1.0321     2.6150 H       
@<TRIPOS>BOND
   1    1    2 ar
   2    1    8 1
   3    1    6 ar
   4    2    3 ar
   5    2   21 1
   6    3    4 ar
   7    3    7 1
   8    4    5 ar
   9    4   22 1
  10    5    6 ar
  11    5   19 1
  12    6   23 1
  13    8    9 am
  14    8   10 2
  15    9   11 1
  16    9   24 1
  17   11   12 ar
  18   11   16 ar
  19   12   13 ar
  20   12   17 1
  21   13   14 ar
  22   13   25 1
  23   14   15 ar
  24   14   26 1
  25   15   16 ar
  26   15   27 1
  27   16   28 1
  28   17   18 1
  29   18   29 1
  30   18   30 1
  31   18   31 1
  32   19   20 3

#	End of record

