#	Name: ASD05380198
#	Creating user name:	WinNT
#	Creation time:	15. 06. 2019 20:59

#	Modifying user name:	WinNT
#	Modification time:	15. 06. 2019 20:59

#	Program:	/corina/corina34_cracker 3.40 0067  02.08.2006

@<TRIPOS>MOLECULE
ASD05380198
  64   68    0    0    0
SMALL
NO_CHARGES


@<TRIPOS>ATOM
   1 C1             0.1957     1.7595     1.0489 C.ar    
   2 C2             0.0054     0.4630     0.5897 C.ar    
   3 C3             1.0544    -0.2628     0.0709 C.ar    
   4 C4             2.3258     0.3100     0.0049 C.ar    
   5 C5             2.5158     1.6295     0.4731 C.ar    
   6 C6             1.4411     2.3466     0.9944 C.ar    
   7 N7             3.3868    -0.3692    -0.4981 N.2     
   8 C8             4.5693     0.1636    -0.5590 C.2     
   9 N9             4.8434     1.4260    -0.1320 N.am    
  10 C10            3.8666     2.2037     0.3902 C.2     
  11 C11            5.6954    -0.6582    -1.1313 C.3     
  12 C12            6.5441     2.6114    -1.3734 C.ar    
  13 C13            6.1482     1.9249    -0.2332 C.ar    
  14 C14            7.8314     3.1025    -1.4700 C.ar    
  15 C15            8.7257     2.9108    -0.4329 C.ar    
  16 C16            8.3344     2.2280     0.7041 C.ar    
  17 C17            7.0486     1.7344     0.8068 C.ar    
  18 N18            5.5173    -2.0620    -0.7520 N.pl3   
  19 C19            6.6119    -2.9060    -0.6895 C.ar    
  20 N20            7.8306    -2.4584    -0.9706 N.ar    
  21 C21            8.8861    -3.2604    -0.9129 C.ar    
  22 C22            6.4590    -4.2539    -0.3216 C.ar    
  23 O23            4.0975     3.3350     0.7758 O.2     
  24 C24            7.6047    -5.0653    -0.2742 C.ar    
  25 N25            5.4042    -5.0311     0.0269 N.2     
  26 C26            5.8199    -6.2377     0.2788 C.2     
  27 N27            7.1716    -6.3100     0.1071 N.pl3   
  28 N28            8.7861    -4.5362    -0.5762 N.ar    
  29 C29            5.6907    -0.5376    -2.6566 C.3     
  30 N30           10.1354    -2.7446    -1.2160 N.pl3   
  31 O31            4.4046    -0.9049    -3.1595 O.3     
  32 C32            4.2927    -0.8264    -4.5820 C.3     
  33 C33            5.3144    -1.7653    -5.2265 C.3     
  34 C34            2.8819    -1.2395    -5.0061 C.3     
  35 C35            4.5619     0.6095    -5.0363 C.3     
  36 C36            1.6392     3.7544     1.4944 C.3     
  37 H37           -0.6406     2.3141     1.4482 H       
  38 H38           -0.9774     0.0182     0.6403 H       
  39 H39            0.8943    -1.2706    -0.2829 H       
  40 H40            6.6457    -0.2941    -0.7410 H       
  41 H41            5.8476     2.7572    -2.1858 H       
  42 H42            8.1399     3.6366    -2.3566 H       
  43 H43            9.7320     3.2952    -0.5111 H       
  44 H44            9.0353     2.0796     1.5123 H       
  45 H45            6.7435     1.2012     1.6950 H       
  46 H46            4.6320    -2.3998    -0.5446 H       
  47 H47            5.1886    -7.0606     0.5800 H       
  48 H48            7.7247    -7.0970     0.2314 H       
  49 H49            5.9116     0.4914    -2.9403 H       
  50 H50            6.4477    -1.2005    -3.0758 H       
  51 H51           10.2275    -1.8117    -1.4651 H       
  52 H52           10.9181    -3.3164    -1.1790 H       
  53 H53            5.1226    -2.7883    -4.9028 H       
  54 H54            5.2291    -1.7055    -6.3115 H       
  55 H55            6.3195    -1.4710    -4.9243 H       
  56 H56            2.1540    -0.5706    -4.5469 H       
  57 H57            2.7965    -1.1797    -6.0911 H       
  58 H58            2.6901    -2.2625    -4.6824 H       
  59 H59            5.5670     0.9038    -4.7342 H       
  60 H60            4.4765     0.6694    -6.1213 H       
  61 H61            3.8340     1.2784    -4.5772 H       
  62 H62            1.5886     4.4484     0.6554 H       
  63 H63            0.8579     3.9974     2.2146 H       
  64 H64            2.6142     3.8355     1.9748 H       
@<TRIPOS>BOND
   1    1    2 ar
   2    1    6 ar
   3    1   37 1
   4    2    3 ar
   5    2   38 1
   6    3    4 ar
   7    3   39 1
   8    4    5 ar
   9    4    7 1
  10    5    6 ar
  11    5   10 1
  12    6   36 1
  13    7    8 2
  14    8    9 1
  15    8   11 1
  16    9   10 am
  17    9   13 1
  18   10   23 2
  19   11   18 1
  20   11   29 1
  21   11   40 1
  22   12   13 ar
  23   12   14 ar
  24   12   41 1
  25   13   17 ar
  26   14   15 ar
  27   14   42 1
  28   15   16 ar
  29   15   43 1
  30   16   17 ar
  31   16   44 1
  32   17   45 1
  33   18   19 1
  34   18   46 1
  35   19   20 ar
  36   19   22 ar
  37   20   21 ar
  38   21   30 1
  39   21   28 ar
  40   22   24 ar
  41   22   25 1
  42   24   28 ar
  43   24   27 1
  44   25   26 2
  45   26   27 1
  46   26   47 1
  47   27   48 1
  48   29   31 1
  49   29   49 1
  50   29   50 1
  51   30   51 1
  52   30   52 1
  53   31   32 1
  54   32   33 1
  55   32   34 1
  56   32   35 1
  57   33   53 1
  58   33   54 1
  59   33   55 1
  60   34   56 1
  61   34   57 1
  62   34   58 1
  63   35   59 1
  64   35   60 1
  65   35   61 1
  66   36   62 1
  67   36   63 1
  68   36   64 1

#	End of record

