#	Name: ASD05430730
#	Creating user name:	WinNT
#	Creation time:	15. 06. 2019 21:00

#	Modifying user name:	WinNT
#	Modification time:	15. 06. 2019 21:00

#	Program:	/corina/corina34_cracker 3.40 0067  02.08.2006

@<TRIPOS>MOLECULE
ASD05430730
  56   60    0    0    0
SMALL
NO_CHARGES


@<TRIPOS>ATOM
   1 C1            -0.0521     1.2236     0.0691 C.2     
   2 C2            -0.0956    -0.1633    -0.1379 C.2     
   3 C3            -1.3509    -0.7900    -0.2796 C.2     
   4 C4            -2.4780    -0.0536    -0.2145 C.2     
   5 N5            -2.4379     1.2952    -0.0137 N.am    
   6 C6            -1.2673     1.9471     0.1337 C.2     
   7 O7            -1.2547     3.1531     0.3126 O.2     
   8 C8            -3.6924     2.0494     0.0486 C.3     
   9 C9            -4.4791     1.8384    -1.2465 C.3     
  10 C10           -4.5112     1.5666     1.2181 C.ar    
  11 C11           -3.8818     1.1330     2.3696 C.ar    
  12 C12           -4.6331     0.6892     3.4448 C.ar    
  13 C13           -6.0150     0.6799     3.3659 C.ar    
  14 C14           -6.6443     1.1144     2.2121 C.ar    
  15 C15           -5.8910     1.5631     1.1403 C.ar    
  16 C16            1.3111     1.5829     0.1759 C.2     
  17 C17            2.0450     0.4491     0.0369 C.2     
  18 N18            1.1930    -0.6173    -0.1545 N.pl3   
  19 C19            3.5202     0.3709     0.0833 C.ar    
  20 C20            4.1605    -0.8594    -0.0737 C.ar    
  21 C21            5.5410    -0.9278    -0.0295 C.ar    
  22 C22            6.2897     0.2306     0.1715 C.ar    
  23 C23            5.6521     1.4538     0.3280 C.ar    
  24 C24            4.2762     1.5286     0.2786 C.ar    
  25 N25            7.6901     0.1602     0.2162 N.pl3   
  26 C26            8.4318    -0.6966     0.9645 C.2     
  27 N27            9.6955    -0.4590     0.7386 N.2     
  28 C28            9.8078     0.5414    -0.1475 C.2     
  29 C29            8.5680     0.9393    -0.4918 C.2     
  30 C30           11.0982     1.1165    -0.6722 C.3     
  31 F31           -7.9930     1.1054     2.1337 F       
  32 F32           -4.0176     0.2650     4.5701 F       
  33 O33            6.1677    -2.1246    -0.1816 O.3     
  34 C34            5.3380    -3.2704    -0.3835 C.3     
  35 H35           -1.4091    -1.8564    -0.4402 H       
  36 H36           -3.4347    -0.5425    -0.3242 H       
  37 H37           -3.4730     3.1099     0.1718 H       
  38 H38           -4.6985     0.7778    -1.3697 H       
  39 H39           -5.4125     2.3995    -1.2002 H       
  40 H40           -3.8869     2.1876    -2.0924 H       
  41 H41           -2.8035     1.1400     2.4307 H       
  42 H42           -6.6018     0.3336     4.2039 H       
  43 H43           -6.3818     1.9024     0.2401 H       
  44 H44            1.6982     2.5780     0.3379 H       
  45 H45            1.4640    -1.5401    -0.2802 H       
  46 H46            3.5789    -1.7561    -0.2290 H       
  47 H47            6.2352     2.3494     0.4839 H       
  48 H48            3.7826     2.4815     0.4003 H       
  49 H49            8.0416    -1.4483     1.6346 H       
  50 H50            8.3143     1.7258    -1.1870 H       
  51 H51           11.3994     0.5747    -1.5688 H       
  52 H52           10.9546     2.1693    -0.9150 H       
  53 H53           11.8739     1.0213     0.0876 H       
  54 H54            4.6745    -3.3939     0.4725 H       
  55 H55            4.7437    -3.1340    -1.2870 H       
  56 H56            5.9627    -4.1572    -0.4899 H       
@<TRIPOS>BOND
   1    1    2 2
   2    1   16 1
   3    1    6 1
   4    2    3 1
   5    2   18 1
   6    3    4 2
   7    3   35 1
   8    4    5 1
   9    4   36 1
  10    5    6 am
  11    5    8 1
  12    6    7 2
  13    8    9 1
  14    8   10 1
  15    8   37 1
  16    9   38 1
  17    9   39 1
  18    9   40 1
  19   10   11 ar
  20   10   15 ar
  21   11   12 ar
  22   11   41 1
  23   12   13 ar
  24   12   32 1
  25   13   14 ar
  26   13   42 1
  27   14   15 ar
  28   14   31 1
  29   15   43 1
  30   16   17 2
  31   16   44 1
  32   17   18 1
  33   17   19 1
  34   18   45 1
  35   19   20 ar
  36   19   24 ar
  37   20   21 ar
  38   20   46 1
  39   21   22 ar
  40   21   33 1
  41   22   23 ar
  42   22   25 1
  43   23   24 ar
  44   23   47 1
  45   24   48 1
  46   25   26 1
  47   25   29 1
  48   26   27 2
  49   26   49 1
  50   27   28 1
  51   28   29 2
  52   28   30 1
  53   29   50 1
  54   30   51 1
  55   30   52 1
  56   30   53 1
  57   33   34 1
  58   34   54 1
  59   34   55 1
  60   34   56 1

#	End of record

