#	Name: ASD03430802
#	Creating user name:	WinNT
#	Creation time:	15. 06. 2019 20:41

#	Modifying user name:	WinNT
#	Modification time:	15. 06. 2019 20:41

#	Program:	/corina/corina34_cracker 3.40 0067  02.08.2006

@<TRIPOS>MOLECULE
ASD03430802
  47   52    0    0    0
SMALL
NO_CHARGES


@<TRIPOS>ATOM
   1 O1            -0.4599     0.1058     0.2047 O.3     
   2 C2            -0.1952    -1.2314     0.1767 C.ar    
   3 C3             1.0965    -1.4790    -0.2821 C.ar    
   4 C4             1.7197    -0.1374    -0.5566 C.3     
   5 C5             0.7788     0.8395     0.1622 C.3     
   6 O6            -1.1658    -4.7842     0.7100 O.3     
   7 C7            -0.5411    -3.6096     0.4180 C.ar    
   8 C8             0.7465    -3.8305    -0.0549 C.ar    
   9 C9             0.9607    -5.3312    -0.0802 C.3     
  10 C10           -0.4872    -5.8619     0.0434 C.3     
  11 C11            1.5592    -2.7723    -0.3989 C.ar    
  12 C12           -1.0059    -2.3039     0.5269 C.ar    
  13 N13            3.9052     0.2641    -1.0922 N.am    
  14 C14            3.1254    -0.0443    -0.0368 C.2     
  15 C15            1.8178     0.1585    -2.0238 C.ar    
  16 C16            0.8954     0.2295    -3.0438 C.ar    
  17 C17            1.3060     0.5326    -4.3297 C.ar    
  18 C18            2.6448     0.7644    -4.5880 C.ar    
  19 C19            3.5726     0.6945    -3.5698 C.ar    
  20 C20            3.1682     0.3904    -2.2722 C.ar    
  21 O21            3.4880    -0.2130     1.1082 O.2     
  22 C22            5.3567     0.4455    -1.0113 C.3     
  23 C23            6.9619    -2.7235    -1.8784 C.2     
  24 N24            6.9893    -2.7792    -0.5737 N.2     
  25 C25            6.4271    -1.6691    -0.0713 C.2     
  26 C26            6.0365    -0.8964    -1.1020 C.2     
  27 N27            6.3754    -1.5644    -2.2496 N.pl3   
  28 C28            6.1451    -1.1070    -3.6221 C.3     
  29 Cl29           7.5828    -3.9343    -2.9564 Cl      
  30 H30            0.6643     1.7594    -0.4112 H       
  31 H31            1.1374     1.0521     1.1693 H       
  32 H32            1.4115    -5.6446    -1.0219 H       
  33 H33            1.5672    -5.6526     0.7665 H       
  34 H34           -0.5158    -6.7686     0.6477 H       
  35 H35           -0.9188    -6.0394    -0.9416 H       
  36 H36            2.5600    -2.9563    -0.7609 H       
  37 H37           -2.0073    -2.1214     0.8879 H       
  38 H38           -0.1496     0.0479    -2.8398 H       
  39 H39            0.5829     0.5879    -5.1299 H       
  40 H40            2.9653     1.0009    -5.5919 H       
  41 H41            4.6164     0.8759    -3.7796 H       
  42 H42            5.6902     1.0781    -1.8338 H       
  43 H43            5.6114     0.9185    -0.0628 H       
  44 H44            6.3082    -1.4366     0.9766 H       
  45 H45            5.1321    -1.3692    -3.9274 H       
  46 H46            6.2706    -0.0253    -3.6705 H       
  47 H47            6.8613    -1.5861    -4.2897 H       
@<TRIPOS>BOND
   1    1    2 1
   2    1    5 1
   3    2    3 ar
   4    2   12 ar
   5    3    4 1
   6    3   11 ar
   7    4    5 1
   8    4   14 1
   9    4   15 1
  10    5   30 1
  11    5   31 1
  12    6    7 1
  13    6   10 1
  14    7    8 ar
  15    7   12 ar
  16    8    9 1
  17    8   11 ar
  18    9   10 1
  19    9   32 1
  20    9   33 1
  21   10   34 1
  22   10   35 1
  23   11   36 1
  24   12   37 1
  25   13   14 am
  26   13   20 1
  27   13   22 1
  28   14   21 2
  29   15   16 ar
  30   15   20 ar
  31   16   17 ar
  32   16   38 1
  33   17   18 ar
  34   17   39 1
  35   18   19 ar
  36   18   40 1
  37   19   20 ar
  38   19   41 1
  39   22   26 1
  40   22   42 1
  41   22   43 1
  42   23   24 2
  43   23   27 1
  44   23   29 1
  45   24   25 1
  46   25   26 2
  47   25   44 1
  48   26   27 1
  49   27   28 1
  50   28   45 1
  51   28   46 1
  52   28   47 1

#	End of record

