#	Name: ASD03081100
#	Creating user name:	WinNT
#	Creation time:	15. 06. 2019 20:26

#	Modifying user name:	WinNT
#	Modification time:	15. 06. 2019 20:26

#	Program:	/corina/corina34_cracker 3.40 0067  02.08.2006

@<TRIPOS>MOLECULE
ASD03081100
  14   14    0    0    0
SMALL
NO_CHARGES


@<TRIPOS>ATOM
   1 C1            -0.0158     1.3145     0.0093 C.ar    
   2 N2             0.0021    -0.0041     0.0020 N.ar    
   3 C3             1.1442    -0.6685    -0.0125 C.ar    
   4 C4             2.3452     0.0499    -0.0202 C.ar    
   5 C5             2.2777     1.4477    -0.0120 C.ar    
   6 N6             1.0917     2.0303     0.0025 N.ar    
   7 C7             3.6483    -0.6480    -0.0359 C.2     
   8 O8             3.6870    -1.8629    -0.0424 O.2     
   9 N9             4.7934     0.0627    -0.0431 N.am    
  10 H10           -0.9678     1.8244     0.0165 H       
  11 H11            1.1508    -1.7485    -0.0180 H       
  12 H12            3.1803     2.0408    -0.0171 H       
  13 H13            4.7625     1.0322    -0.0379 H       
  14 H14            5.6484    -0.3952    -0.0534 H       
@<TRIPOS>BOND
   1    1    2 ar
   2    1    6 ar
   3    1   10 1
   4    2    3 ar
   5    3    4 ar
   6    3   11 1
   7    4    5 ar
   8    4    7 1
   9    5    6 ar
  10    5   12 1
  11    7    8 2
  12    7    9 am
  13    9   13 1
  14    9   14 1

#	End of record

