#	Name: ASD08150973
#	Creating user name:	WinNT
#	Creation time:	15. 06. 2019 21:16

#	Modifying user name:	WinNT
#	Modification time:	15. 06. 2019 21:16

#	Program:	/corina/corina34_cracker 3.40 0067  02.08.2006

@<TRIPOS>MOLECULE
ASD08150973
  61   66    0    0    0
SMALL
NO_CHARGES


@<TRIPOS>ATOM
   1 N1            -1.3425     2.3155     0.9907 N.2     
   2 C2            -1.4776     1.0312     1.1523 C.2     
   3 N3            -0.2588     0.4236     1.0926 N.pl3   
   4 C4             0.6789     1.4025     0.8806 C.ar    
   5 N5             1.9999     1.4214     0.7377 N.ar    
   6 C6             2.6372     2.5562     0.5394 C.ar    
   7 N7             2.0125     3.7176     0.4729 N.ar    
   8 C8             0.6923     3.7977     0.6044 C.ar    
   9 C9            -0.0323     2.6128     0.8173 C.ar    
  10 N10            0.0465     5.0196     0.5337 N.pl3   
  11 C11            0.8188     6.2445     0.3117 C.3     
  12 C12            1.0638     6.4283    -1.1874 C.3     
  13 N13            0.6401    10.6379     2.4426 N.ar    
  14 C14           -0.0242    11.6684     2.9067 C.ar    
  15 C15           -1.4153    11.7264     2.8557 C.ar    
  16 C16           -2.1210    10.6914     2.3115 C.ar    
  17 C17           -1.4036     9.5869     1.8143 C.ar    
  18 C18           -2.0627     8.4868     1.2405 C.ar    
  19 C19           -1.3395     7.4327     0.7677 C.ar    
  20 C20            0.0500     7.4265     0.8437 C.ar    
  21 C21            0.7319     8.4869     1.3995 C.ar    
  22 C22            0.0102     9.5935     1.8980 C.ar    
  23 N23            2.1253     8.4673     1.4697 N.3     
  24 C24            2.5818     8.4463     2.8658 C.3     
  25 C25            4.1002     8.2428     2.9002 C.3     
  26 N26            4.7285     9.2701     2.0558 N.am    
  27 C27            4.2288     9.4441     0.6835 C.3     
  28 C28            2.7053     9.6003     0.7364 C.3     
  29 C29            5.7353    10.0322     2.5272 C.2     
  30 O30            6.1686    10.9485     1.8573 O.2     
  31 O31            6.6742     8.7838     5.6715 O.3     
  32 N32            6.0394     8.7364     4.6436 N.2     
  33 C33            6.3142     9.7523     3.8639 C.2     
  34 C34            7.2806    10.5327     4.5575 C.2     
  35 C35            7.4729     9.8591     5.7152 C.2     
  36 C36            8.4036    10.2438     6.8363 C.3     
  37 Cl37          -3.7954     8.4698     1.1343 Cl      
  38 H38           -2.4167     0.5220     1.3109 H       
  39 H39           -0.0861    -0.5266     1.1835 H       
  40 H40            3.7111     2.5365     0.4272 H       
  41 H41           -0.9175     5.0650     0.6312 H       
  42 H42            1.7750     6.1701     0.8296 H       
  43 H43            0.1104     6.4146    -1.7156 H       
  44 H44            1.5611     7.3828    -1.3599 H       
  45 H45            1.6943     5.6185    -1.5545 H       
  46 H46            0.5210    12.4937     3.3402 H       
  47 H47           -1.9351    12.5887     3.2465 H       
  48 H48           -3.1996    10.7195     2.2641 H       
  49 H49           -1.8522     6.5901     0.3277 H       
  50 H50            2.3307     9.3927     3.3449 H       
  51 H51            2.0931     7.6289     3.3960 H       
  52 H52            4.4597     8.3407     3.9246 H       
  53 H53            4.3457     7.2527     2.5161 H       
  54 H54            4.6733    10.3362     0.2423 H       
  55 H55            4.4867     8.5694     0.0863 H       
  56 H56            2.3063     9.6198    -0.2778 H       
  57 H57            2.4525    10.5306     1.2451 H       
  58 H58            7.7514    11.4496     4.2350 H       
  59 H59            8.3373     9.5036     7.6337 H       
  60 H60            9.4265    10.2837     6.4618 H       
  61 H61            8.1203    11.2222     7.2242 H       
@<TRIPOS>BOND
   1    1    2 2
   2    1    9 1
   3    2    3 1
   4    2   38 1
   5    3    4 1
   6    3   39 1
   7    4    5 ar
   8    4    9 ar
   9    5    6 ar
  10    6    7 ar
  11    6   40 1
  12    7    8 ar
  13    8    9 ar
  14    8   10 1
  15   10   11 1
  16   10   41 1
  17   11   12 1
  18   11   20 1
  19   11   42 1
  20   12   43 1
  21   12   44 1
  22   12   45 1
  23   13   14 ar
  24   13   22 ar
  25   14   15 ar
  26   14   46 1
  27   15   16 ar
  28   15   47 1
  29   16   17 ar
  30   16   48 1
  31   17   18 ar
  32   17   22 ar
  33   18   19 ar
  34   18   37 1
  35   19   20 ar
  36   19   49 1
  37   20   21 ar
  38   21   22 ar
  39   21   23 1
  40   23   24 1
  41   23   28 1
  42   24   25 1
  43   24   50 1
  44   24   51 1
  45   25   26 1
  46   25   52 1
  47   25   53 1
  48   26   27 1
  49   26   29 am
  50   27   28 1
  51   27   54 1
  52   27   55 1
  53   28   56 1
  54   28   57 1
  55   29   30 2
  56   29   33 1
  57   31   32 1
  58   31   35 1
  59   32   33 2
  60   33   34 1
  61   34   35 2
  62   34   58 1
  63   35   36 1
  64   36   59 1
  65   36   60 1
  66   36   61 1

#	End of record

