#	Name: ASD01478025
#	Creating user name:	WinNT
#	Creation time:	15. 06. 2019 19:21

#	Modifying user name:	WinNT
#	Modification time:	15. 06. 2019 19:21

#	Program:	/corina/corina34_cracker 3.40 0067  02.08.2006

@<TRIPOS>MOLECULE
ASD01478025
  76   78    0    0    0
SMALL
NO_CHARGES


@<TRIPOS>ATOM
   1 C1            -0.2253     2.9459     1.2840 C.3     
   2 C2             0.0869     1.5110     1.3593 C.3     
   3 C3             1.0168     3.8156     1.5584 C.3     
   4 O4             1.2714     3.8341     2.9395 O.3     
   5 C5             2.1626     2.8256     3.4449 C.3     
   6 O6             1.9386     1.5187     2.8893 O.3     
   7 C7             0.6012     1.1112     2.7558 C.3     
   8 C8            -1.6137     4.2648    -0.1404 C.2     
   9 O9            -0.7334     3.2509    -0.0416 O.3     
  10 N10           -2.1238     4.5995    -1.3422 N.am    
  11 O11           -1.9483     4.8780     0.8538 O.2     
  12 C12           -2.3237     7.0267    -1.5665 C.3     
  13 C13           -3.0817     5.7028    -1.4498 C.3     
  14 C14           -3.9528     5.5026    -2.6915 C.3     
  15 C15           -5.0332     6.5849    -2.7364 C.3     
  16 N16           -5.9460     6.3178    -3.8507 N.am    
  17 S17           -6.0274     7.3718    -5.1254 S.o2    
  18 C18           -4.8394     6.8445    -6.3150 C.ar    
  19 C19           -5.2021     5.9453    -7.3008 C.ar    
  20 C20           -4.2725     5.5303    -8.2346 C.ar    
  21 C21           -2.9742     6.0165    -8.1827 C.ar    
  22 C22           -2.6128     6.9186    -7.1926 C.ar    
  23 C23           -3.5476     7.3348    -6.2645 C.ar    
  24 O24           -7.3034     7.1828    -5.7215 O.2     
  25 O25           -5.5761     8.6276    -4.6370 O.2     
  26 C26           -6.7868     5.1181    -3.8374 C.3     
  27 C27           -7.8217     5.2331    -2.7164 C.3     
  28 C28           -8.7464     6.4196    -2.9957 C.3     
  29 C29           -8.6478     3.9469    -2.6511 C.3     
  30 O30           -3.1397     5.5922    -3.8632 O.3     
  31 C31           -1.5616     7.2833    -0.2920 C.ar    
  32 C32           -0.2663     6.8200    -0.1561 C.ar    
  33 C33            0.4328     7.0554     1.0130 C.ar    
  34 C34           -0.1632     7.7544     2.0460 C.ar    
  35 C35           -1.4582     8.2185     1.9097 C.ar    
  36 C36           -2.1558     7.9869     0.7389 C.ar    
  37 O37           -2.0578     5.6094    -9.1000 O.3     
  38 C38           -0.7405     6.1512    -8.9855 C.3     
  39 H39           -0.9937     3.1814     2.0204 H       
  40 H40           -0.8135     0.9392     1.1350 H       
  41 H41            0.8504     1.2742     0.6182 H       
  42 H42            1.8768     3.3977     1.0350 H       
  43 H43            0.8346     4.8316     1.2080 H       
  44 H44            3.1872     3.1256     3.2255 H       
  45 H45            2.0447     2.7682     4.5270 H       
  46 H46           -0.0056     1.5968     3.5201 H       
  47 H47            0.5368     0.0292     2.8715 H       
  48 H48           -1.8567     4.1100    -2.1358 H       
  49 H49           -1.6263     6.9736    -2.4025 H       
  50 H50           -3.0324     7.8374    -1.7356 H       
  51 H51           -3.7137     5.7230    -0.5620 H       
  52 H52           -4.4238     4.5205    -2.6504 H       
  53 H53           -5.5915     6.5801    -1.8003 H       
  54 H54           -4.5656     7.5596    -2.8755 H       
  55 H55           -6.2128     5.5669    -7.3405 H       
  56 H56           -4.5562     4.8277    -9.0042 H       
  57 H57           -1.6028     7.2985    -7.1501 H       
  58 H58           -3.2668     8.0370    -5.4935 H       
  59 H59           -7.2980     5.0220    -4.7953 H       
  60 H60           -6.1640     4.2398    -3.6683 H       
  61 H61           -7.3116     5.3860    -1.7653 H       
  62 H62           -9.4837     6.5014    -2.1970 H       
  63 H63           -8.1579     7.3358    -3.0422 H       
  64 H64           -9.2565     6.2667    -3.9467 H       
  65 H65           -7.9890     3.1016    -2.4521 H       
  66 H66           -9.3851     4.0288    -1.8524 H       
  67 H67           -9.1579     3.7940    -3.6022 H       
  68 H68           -2.6887     6.4416    -3.9650 H       
  69 H69            0.1994     6.2739    -0.9631 H       
  70 H70            1.4445     6.6928     1.1195 H       
  71 H71            0.3827     7.9377     2.9596 H       
  72 H72           -1.9240     8.7643     2.7168 H       
  73 H73           -3.1662     8.3527     0.6310 H       
  74 H74           -0.7847     7.2365    -9.0774 H       
  75 H75           -0.3214     5.8856    -8.0150 H       
  76 H76           -0.1105     5.7450    -9.7768 H       
@<TRIPOS>BOND
   1    1    2 1
   2    1    3 1
   3    1    9 1
   4    1   39 1
   5    2    7 1
   6    2   40 1
   7    2   41 1
   8    3    4 1
   9    3   42 1
  10    3   43 1
  11    4    5 1
  12    5    6 1
  13    5   44 1
  14    5   45 1
  15    6    7 1
  16    7   46 1
  17    7   47 1
  18    8    9 1
  19    8   10 am
  20    8   11 2
  21   10   13 1
  22   10   48 1
  23   12   13 1
  24   12   31 1
  25   12   49 1
  26   12   50 1
  27   13   14 1
  28   13   51 1
  29   14   15 1
  30   14   30 1
  31   14   52 1
  32   15   16 1
  33   15   53 1
  34   15   54 1
  35   16   17 am
  36   16   26 1
  37   17   18 1
  38   17   24 2
  39   17   25 2
  40   18   19 ar
  41   18   23 ar
  42   19   20 ar
  43   19   55 1
  44   20   21 ar
  45   20   56 1
  46   21   22 ar
  47   21   37 1
  48   22   23 ar
  49   22   57 1
  50   23   58 1
  51   26   27 1
  52   26   59 1
  53   26   60 1
  54   27   28 1
  55   27   29 1
  56   27   61 1
  57   28   62 1
  58   28   63 1
  59   28   64 1
  60   29   65 1
  61   29   66 1
  62   29   67 1
  63   30   68 1
  64   31   32 ar
  65   31   36 ar
  66   32   33 ar
  67   32   69 1
  68   33   34 ar
  69   33   70 1
  70   34   35 ar
  71   34   71 1
  72   35   36 ar
  73   35   72 1
  74   36   73 1
  75   37   38 1
  76   38   74 1
  77   38   75 1
  78   38   76 1

#	End of record

