#	Name: ASD01810059
#	Creating user name:	WinNT
#	Creation time:	15. 06. 2019 19:23

#	Modifying user name:	WinNT
#	Modification time:	15. 06. 2019 19:23

#	Program:	/corina/corina34_cracker 3.40 0067  02.08.2006

@<TRIPOS>MOLECULE
ASD01810059
  60   64    0    0    0
SMALL
NO_CHARGES


@<TRIPOS>ATOM
   1 C1             0.0937     1.1978    -0.6317 C.ar    
   2 C2             0.1356    -0.1838    -0.7023 C.ar    
   3 C3             1.3489    -0.8442    -0.7143 C.ar    
   4 C4             2.5293    -0.1198    -0.6555 C.ar    
   5 C5             2.4870     1.2744    -0.5843 C.ar    
   6 C6             1.2648     1.9282    -0.5727 C.ar    
   7 N7             3.8742    -0.4825    -0.6498 N.am    
   8 C8             4.6156     0.6390    -0.5785 C.2     
   9 N9             3.8075     1.7151    -0.5376 N.am    
  10 C10            4.2428     3.1117    -0.4586 C.3     
  11 C11            5.0614     3.3210     0.8184 C.3     
  12 C12            5.5644     4.7656     0.8650 C.3     
  13 N13            6.3916     5.0356    -0.3178 N.3     
  14 C14            5.6142     4.8871    -1.5547 C.3     
  15 C15            5.1126     3.4461    -1.6735 C.3     
  16 O16            5.8317     0.6747    -0.5549 O.2     
  17 C17            7.0049     6.3682    -0.2383 C.3     
  18 C18            7.9554     6.5655    -1.4224 C.3     
  19 C19            8.5444     7.9769    -1.3678 C.3     
  20 N20            7.4585     8.9641    -1.4190 N.3     
  21 C21            6.5593     8.8247    -0.2663 C.3     
  22 C22            5.9111     7.4386    -0.2881 C.3     
  23 C23            7.9923    10.3298    -1.5081 C.3     
  24 C24            6.8961    11.2706    -1.9373 C.ar    
  25 C25            6.4867    11.3055    -3.2716 C.ar    
  26 C26            5.4698    12.1801    -3.6607 C.ar    
  27 C27            4.8770    13.0028    -2.7258 C.ar    
  28 C28            5.2881    12.9634    -1.4050 C.ar    
  29 C29            6.2909    12.0954    -1.0116 C.ar    
  30 C30            7.1069    10.4487    -4.2369 C.1     
  31 N31            7.5990     9.7691    -5.0027 N.1     
  32 H32           -0.8586     1.7073    -0.6273 H       
  33 H33           -0.7842    -0.7480    -0.7477 H       
  34 H34            1.3777    -1.9224    -0.7691 H       
  35 H35            1.2281     3.0062    -0.5181 H       
  36 H36            4.2179    -1.3887    -0.6899 H       
  37 H37            3.3704     3.7649    -0.4432 H       
  38 H38            4.4346     3.1257     1.6885 H       
  39 H39            5.9119     2.6393     0.8214 H       
  40 H40            4.7132     5.4464     0.8760 H       
  41 H41            6.1596     4.9140     1.7661 H       
  42 H42            4.7627     5.5673    -1.5324 H       
  43 H43            6.2455     5.1237    -2.4111 H       
  44 H44            5.9639     2.7663    -1.7098 H       
  45 H45            4.5225     3.3401    -2.5838 H       
  46 H46            7.5615     6.4579     0.6945 H       
  47 H47            8.7606     5.8328    -1.3687 H       
  48 H48            7.4065     6.4360    -2.3552 H       
  49 H49            9.1047     8.1010    -0.4411 H       
  50 H50            9.2107     8.1255    -2.2176 H       
  51 H51            7.1289     8.9449     0.6552 H       
  52 H52            5.7839     9.5891    -0.3161 H       
  53 H53            5.3301     7.3229    -1.2030 H       
  54 H54            5.2558     7.3297     0.5761 H       
  55 H55            8.3725    10.6356    -0.5334 H       
  56 H56            8.8010    10.3568    -2.2384 H       
  57 H57            5.1485    12.2123    -4.6913 H       
  58 H58            4.0905    13.6796    -3.0253 H       
  59 H59            4.8207    13.6101    -0.6771 H       
  60 H60            6.6069    12.0697     0.0208 H       
@<TRIPOS>BOND
   1    1    2 ar
   2    1    6 ar
   3    1   32 1
   4    2    3 ar
   5    2   33 1
   6    3    4 ar
   7    3   34 1
   8    4    5 ar
   9    4    7 1
  10    5    6 ar
  11    5    9 1
  12    6   35 1
  13    7    8 am
  14    7   36 1
  15    8    9 am
  16    8   16 2
  17    9   10 1
  18   10   11 1
  19   10   15 1
  20   10   37 1
  21   11   12 1
  22   11   38 1
  23   11   39 1
  24   12   13 1
  25   12   40 1
  26   12   41 1
  27   13   14 1
  28   13   17 1
  29   14   15 1
  30   14   42 1
  31   14   43 1
  32   15   44 1
  33   15   45 1
  34   17   18 1
  35   17   22 1
  36   17   46 1
  37   18   19 1
  38   18   47 1
  39   18   48 1
  40   19   20 1
  41   19   49 1
  42   19   50 1
  43   20   21 1
  44   20   23 1
  45   21   22 1
  46   21   51 1
  47   21   52 1
  48   22   53 1
  49   22   54 1
  50   23   24 1
  51   23   55 1
  52   23   56 1
  53   24   25 ar
  54   24   29 ar
  55   25   26 ar
  56   25   30 1
  57   26   27 ar
  58   26   57 1
  59   27   28 ar
  60   27   58 1
  61   28   29 ar
  62   28   59 1
  63   29   60 1
  64   30   31 3

#	End of record

