#	Name: ASD00069277
#	Creating user name:	WinNT
#	Creation time:	15. 06. 2019 18:29

#	Modifying user name:	WinNT
#	Modification time:	15. 06. 2019 18:29

#	Program:	/corina/corina34_cracker 3.40 0067  02.08.2006

@<TRIPOS>MOLECULE
ASD00069277
  60   62    0    0    0
SMALL
NO_CHARGES


@<TRIPOS>ATOM
   1 C1            -0.0158     1.3122     0.0093 C.2     
   2 N2             0.0021    -0.0041     0.0020 N.2     
   3 C3             1.2716    -0.4229    -0.0124 C.2     
   4 C4             2.0813     0.6782    -0.0142 C.2     
   5 N5             1.2744     1.7640    -0.0006 N.pl3   
   6 C6            -1.2224     2.1558     0.0198 C.2     
   7 O7            -1.1173     3.3666     0.0254 O.2     
   8 O8            -2.4439     1.5852     0.0233 O.3     
   9 C9             1.7038     3.1647     0.0028 C.3     
  10 O10            3.1314     3.2253    -0.0105 O.3     
  11 C11            3.6568     4.5543    -0.0084 C.3     
  12 C12            5.1857     4.4983    -0.0233 C.3     
  13 Si13           5.8706     6.2308    -0.0205 Si      
  14 C14            5.2968     7.1230     1.5110 C.3     
  15 C15            7.7323     6.1626    -0.0387 C.3     
  16 C16            5.2677     7.1393    -1.5311 C.3     
  17 N17            1.7211    -4.0266    -0.0942 N.pl3   
  18 N18            3.0477    -3.5933     0.0184 N.2     
  19 C19            3.0554    -2.2870     0.0606 C.2     
  20 C20            1.7235    -1.8384    -0.0243 C.2     
  21 C21            0.9235    -2.9385    -0.1189 C.2     
  22 C22            1.2764    -5.4200    -0.1772 C.3     
  23 C23            1.9833    -6.1058    -1.3178 C.ar    
  24 C24            3.1889    -6.7458    -1.0991 C.ar    
  25 C25            3.8373    -7.3748    -2.1454 C.ar    
  26 C26            3.2800    -7.3642    -3.4103 C.ar    
  27 C27            2.0739    -6.7250    -3.6289 C.ar    
  28 C28            1.4234    -6.0997    -2.5817 C.ar    
  29 C29           -3.5887     2.4783     0.0338 C.3     
  30 C30           -4.8781     1.6547     0.0363 C.3     
  31 H31            3.1613     0.6809    -0.0239 H       
  32 H32            1.3105     3.6674    -0.8808 H       
  33 H33            1.3275     3.6579     0.8991 H       
  34 H34            3.3041     5.0858    -0.8922 H       
  35 H35            3.3211     5.0762     0.8876 H       
  36 H36            5.5384     3.9667     0.8605 H       
  37 H37            5.5215     3.9763    -0.9193 H       
  38 H38            5.6495     6.5914     2.3948 H       
  39 H39            5.6975     8.1366     1.5126 H       
  40 H40            4.2076     7.1629     1.5216 H       
  41 H41            8.0680     5.6406    -0.9347 H       
  42 H42            8.1330     7.1763    -0.0371 H       
  43 H43            8.0850     5.6311     0.8451 H       
  44 H44            4.1785     7.1792    -1.5205 H       
  45 H45            5.6685     8.1530    -1.5295 H       
  46 H46            5.6035     6.6173    -2.4272 H       
  47 H47            3.9310    -1.6606     0.1461 H       
  48 H48           -0.1535    -2.9389    -0.1994 H       
  49 H49            1.5105    -5.9323     0.7560 H       
  50 H50            0.2001    -5.4484    -0.3471 H       
  51 H51            3.6243    -6.7541    -0.1108 H       
  52 H52            4.7796    -7.8742    -1.9746 H       
  53 H53            3.7869    -7.8551    -4.2279 H       
  54 H54            1.6387    -6.7164    -4.6173 H       
  55 H55            0.4793    -5.6034    -2.7517 H       
  56 H56           -3.5544     3.1024     0.9268 H       
  57 H57           -3.5637     3.1114    -0.8532 H       
  58 H58           -4.9123     1.0306    -0.8567 H       
  59 H59           -4.9030     1.0216     0.9232 H       
  60 H60           -5.7374     2.3252     0.0442 H       
@<TRIPOS>BOND
   1    1    2 2
   2    1    5 1
   3    1    6 1
   4    2    3 1
   5    3    4 2
   6    3   20 1
   7    4    5 1
   8    4   31 1
   9    5    9 1
  10    6    7 2
  11    6    8 1
  12    8   29 1
  13    9   10 1
  14    9   32 1
  15    9   33 1
  16   10   11 1
  17   11   12 1
  18   11   34 1
  19   11   35 1
  20   12   13 1
  21   12   36 1
  22   12   37 1
  23   13   14 1
  24   13   15 1
  25   13   16 1
  26   14   38 1
  27   14   39 1
  28   14   40 1
  29   15   41 1
  30   15   42 1
  31   15   43 1
  32   16   44 1
  33   16   45 1
  34   16   46 1
  35   17   18 1
  36   17   21 1
  37   17   22 1
  38   18   19 2
  39   19   20 1
  40   19   47 1
  41   20   21 2
  42   21   48 1
  43   22   23 1
  44   22   49 1
  45   22   50 1
  46   23   24 ar
  47   23   28 ar
  48   24   25 ar
  49   24   51 1
  50   25   26 ar
  51   25   52 1
  52   26   27 ar
  53   26   53 1
  54   27   28 ar
  55   27   54 1
  56   28   55 1
  57   29   30 1
  58   29   56 1
  59   29   57 1
  60   30   58 1
  61   30   59 1
  62   30   60 1

#	End of record

