#	Name: ASD06020189
#	Creating user name:	WinNT
#	Creation time:	15. 06. 2019 21:04

#	Modifying user name:	WinNT
#	Modification time:	15. 06. 2019 21:04

#	Program:	/corina/corina34_cracker 3.40 0067  02.08.2006

@<TRIPOS>MOLECULE
ASD06020189
  67   71    0    0    0
SMALL
NO_CHARGES


@<TRIPOS>ATOM
   1 C1             0.0501    -0.3893     1.6261 C.2     
   2 N2            -0.5104    -0.6650     0.4318 N.am    
   3 O3             1.0388     0.3137     1.6852 O.2     
   4 O4            -0.4892    -0.8885     2.7539 O.3     
   5 C5            -3.6681    -2.3138     0.3807 C.2     
   6 N6            -2.8881    -1.1774     0.5344 N.pl3   
   7 C7            -1.5866    -1.5231     0.3571 C.2     
   8 C8            -1.5193    -2.8854     0.0879 C.2     
   9 C9            -2.8035    -3.3864     0.0999 C.2     
  10 C10           -5.0472    -2.3810     0.4900 C.2     
  11 C11           -5.7838    -1.2333     0.8672 C.2     
  12 C12           -7.1679    -1.2127     1.1702 C.2     
  13 C13           -7.4904     0.0680     1.4832 C.2     
  14 C14           -6.2515     0.8392     1.3620 C.2     
  15 C15           -6.1051     2.2157     1.5918 C.2     
  16 C16           -4.8897     2.8535     1.2885 C.2     
  17 C17           -3.7102     2.2157     0.8233 C.2     
  18 C18           -2.7790     3.1880     0.6557 C.2     
  19 C19           -3.3938     4.4135     1.0189 C.2     
  20 C20           -2.7790     5.6850     0.9934 C.2     
  21 C21           -3.4983     6.8143     1.3773 C.2     
  22 C22           -4.8467     6.8383     1.8136 C.2     
  23 C23           -5.1388     8.1420     2.0847 C.2     
  24 C24           -3.9850     8.8887     1.8156 C.2     
  25 N25           -3.0349     8.0819     1.4061 N.2     
  26 N26           -4.6496     4.1638     1.3832 N.2     
  27 N27           -5.2834    -0.0096     0.9975 N.2     
  28 C28           -0.2610     0.4849    -2.9527 C.ar    
  29 N29           -0.7239    -0.0628    -1.8419 N.ar    
  30 C30           -0.0023    -0.0830    -0.7265 C.ar    
  31 C31            1.2702     0.4866    -0.7312 C.ar    
  32 C32            1.7347     1.0654    -1.9408 C.ar    
  33 N33            0.9268     1.0362    -3.0207 N.ar    
  34 C34           -1.1268     0.4697    -4.1860 C.3     
  35 N35            2.9349     1.6224    -2.0079 N.2     
  36 N36            3.2904     2.0772    -2.9724 N.1     
  37 N37            3.6458     2.5319    -3.9369 N.pl3   
  38 C38            0.2267    -0.6408     3.9926 C.3     
  39 C39            0.2817     0.8651     4.2574 C.3     
  40 C40           -0.4972    -1.3356     5.1477 C.3     
  41 C41            1.6498    -1.1909     3.8781 C.3     
  42 H42           -3.2163    -0.2868     0.7345 H       
  43 H43           -0.6187    -3.4518    -0.0984 H       
  44 H44           -3.0919    -4.4125    -0.0742 H       
  45 H45           -5.5603    -3.3094     0.2873 H       
  46 H46           -7.8402    -2.0578     1.1549 H       
  47 H47           -8.4637     0.4425     1.7641 H       
  48 H48           -6.9261     2.7850     2.0018 H       
  49 H49           -3.5792     1.1598     0.6384 H       
  50 H50           -1.7639     3.0544     0.3121 H       
  51 H51           -1.7511     5.7815     0.6763 H       
  52 H52           -5.5106     5.9922     1.9115 H       
  53 H53           -6.0832     8.5268     2.4403 H       
  54 H54           -3.8911     9.9585     1.9308 H       
  55 H55            1.8831     0.4877     0.1580 H       
  56 H56           -1.7432     1.3683    -4.2084 H       
  57 H57           -0.4946     0.4406    -5.0735 H       
  58 H58           -1.7689    -0.4110    -4.1684 H       
  59 H59           -0.7277     1.2424     4.4213 H       
  60 H60            0.8892     1.0565     5.1420 H       
  61 H61            0.7230     1.3693     3.3977 H       
  62 H62           -0.6143    -2.3948     4.9185 H       
  63 H63            0.0861    -1.2240     6.0617 H       
  64 H64           -1.4791    -0.8830     5.2858 H       
  65 H65            2.1401    -0.7520     3.0091 H       
  66 H66            2.2106    -0.9380     4.7779 H       
  67 H67            1.6125    -2.2744     3.7656 H       
@<TRIPOS>BOND
   1    1    2 am
   2    1    3 2
   3    1    4 1
   4    2    7 1
   5    2   30 1
   6    4   38 1
   7    5    6 1
   8    5    9 2
   9    5   10 1
  10    6    7 1
  11    6   42 1
  12    7    8 2
  13    8    9 1
  14    8   43 1
  15    9   44 1
  16   10   11 2
  17   10   45 1
  18   11   12 1
  19   11   27 1
  20   12   13 2
  21   12   46 1
  22   13   14 1
  23   13   47 1
  24   14   15 1
  25   14   27 2
  26   15   16 2
  27   15   48 1
  28   16   17 1
  29   16   26 1
  30   17   18 2
  31   17   49 1
  32   18   19 1
  33   18   50 1
  34   19   20 1
  35   19   26 2
  36   20   21 2
  37   20   51 1
  38   21   22 1
  39   21   25 1
  40   22   23 2
  41   22   52 1
  42   23   24 1
  43   23   53 1
  44   24   25 2
  45   24   54 1
  46   28   29 ar
  47   28   33 ar
  48   28   34 1
  49   29   30 ar
  50   30   31 ar
  51   31   32 ar
  52   31   55 1
  53   32   33 ar
  54   32   35 1
  55   34   56 1
  56   34   57 1
  57   34   58 1
  58   35   36 2
  59   36   37 2
  60   38   39 1
  61   38   41 1
  62   38   40 1
  63   39   59 1
  64   39   60 1
  65   39   61 1
  66   40   62 1
  67   40   63 1
  68   40   64 1
  69   41   65 1
  70   41   66 1
  71   41   67 1

#	End of record

