#	Name: ASD03090334
#	Creating user name:	WinNT
#	Creation time:	15. 06. 2019 20:28

#	Modifying user name:	WinNT
#	Modification time:	15. 06. 2019 20:28

#	Program:	/corina/corina34_cracker 3.40 0067  02.08.2006

@<TRIPOS>MOLECULE
ASD03090334
  50   52    0    0    0
SMALL
NO_CHARGES


@<TRIPOS>ATOM
   1 C1            -0.2328     1.2342    -0.5136 C.ar    
   2 N2            -1.2590     1.6607     0.2083 N.ar    
   3 C3            -2.3766     0.9697     0.3007 C.ar    
   4 C4            -2.5176    -0.2466    -0.3657 C.ar    
   5 C5            -1.4515    -0.7270    -1.1382 C.ar    
   6 C6            -0.3007     0.0313    -1.2118 C.ar    
   7 C7            -3.7739    -1.0191    -0.2587 C.2     
   8 N8            -7.1891    -1.3993     0.4838 N.pl3   
   9 C9            -7.6501    -0.1988     1.0376 C.ar    
  10 C10           -6.7468     0.7871     1.4092 C.ar    
  11 C11           -7.2045     1.9727     1.9563 C.ar    
  12 C12           -8.5643     2.1758     2.1337 C.ar    
  13 C13           -9.4671     1.1934     1.7635 C.ar    
  14 C14           -9.0143     0.0097     1.2107 C.ar    
  15 N15           -4.9380    -0.5543     0.1502 N.2     
  16 C16           -5.8480    -1.5299     0.1185 C.2     
  17 N17           -5.2792    -2.6325    -0.3110 N.2     
  18 N18           -3.9333    -2.3257    -0.5685 N.pl3   
  19 C19           -2.9037    -3.2420    -1.0650 C.3     
  20 C20           -2.8868    -3.2095    -2.5946 C.3     
  21 C21           -1.8276    -4.1521    -3.1053 C.2     
  22 N22           -1.6303    -4.2892    -4.4315 N.am    
  23 C23           -0.6007    -5.2055    -4.9280 C.3     
  24 O24           -1.1528    -4.7873    -2.3230 O.2     
  25 C25           -2.4455    -3.5220    -5.3765 C.3     
  26 F26           -9.0092     3.3337     2.6689 F       
  27 F27           -6.3257     2.9328     2.3183 F       
  28 N28            0.9232     1.9997    -0.5792 N.pl3   
  29 C29            2.0635     1.5376    -1.3744 C.3     
  30 F30           -9.8957    -0.9485     0.8498 F       
  31 H31           -3.1918     1.3491     0.8990 H       
  32 H32           -1.5300    -1.6658    -1.6663 H       
  33 H33            0.5404    -0.3081    -1.7981 H       
  34 H34           -7.8015    -2.1402     0.3539 H       
  35 H35           -5.6873     0.6289     1.2718 H       
  36 H36          -10.5261     1.3536     1.9026 H       
  37 H37           -1.9296    -2.9347    -0.6843 H       
  38 H38           -3.1237    -4.2541    -0.7255 H       
  39 H39           -3.8608    -3.5168    -2.9753 H       
  40 H40           -2.6667    -2.1974    -2.9341 H       
  41 H41           -1.0348    -6.1945    -5.0749 H       
  42 H42           -0.2114    -4.8351    -5.8763 H       
  43 H43            0.2100    -5.2687    -4.2022 H       
  44 H44           -3.1515    -2.9003    -4.8260 H       
  45 H45           -1.7988    -2.8878    -5.9828 H       
  46 H46           -2.9928    -4.2072    -6.0240 H       
  47 H47            0.9760     2.8406    -0.0986 H       
  48 H48            2.4060     0.5755    -0.9934 H       
  49 H49            1.7602     1.4289    -2.4157 H       
  50 H50            2.8728     2.2646    -1.3057 H       
@<TRIPOS>BOND
   1    1    2 ar
   2    1   28 1
   3    1    6 ar
   4    2    3 ar
   5    3    4 ar
   6    3   31 1
   7    4    5 ar
   8    4    7 1
   9    5    6 ar
  10    5   32 1
  11    6   33 1
  12    7   15 2
  13    7   18 1
  14    8    9 1
  15    8   16 1
  16    8   34 1
  17    9   10 ar
  18    9   14 ar
  19   10   11 ar
  20   10   35 1
  21   11   12 ar
  22   11   27 1
  23   12   13 ar
  24   12   26 1
  25   13   14 ar
  26   13   36 1
  27   14   30 1
  28   15   16 1
  29   16   17 2
  30   17   18 1
  31   18   19 1
  32   19   20 1
  33   19   37 1
  34   19   38 1
  35   20   21 1
  36   20   39 1
  37   20   40 1
  38   21   22 am
  39   21   24 2
  40   22   23 1
  41   22   25 1
  42   23   41 1
  43   23   42 1
  44   23   43 1
  45   25   44 1
  46   25   45 1
  47   25   46 1
  48   28   29 1
  49   28   47 1
  50   29   48 1
  51   29   49 1
  52   29   50 1

#	End of record

