#	Name: ASD00844218
#	Creating user name:	WinNT
#	Creation time:	15. 06. 2019 18:49

#	Modifying user name:	WinNT
#	Modification time:	15. 06. 2019 18:49

#	Program:	/corina/corina34_cracker 3.40 0067  02.08.2006

@<TRIPOS>MOLECULE
ASD00844218
  94   99    0    0    0
SMALL
NO_CHARGES


@<TRIPOS>ATOM
   1 C1            -0.0147     1.3804     0.0256 C.ar    
   2 C2             0.0030    -0.0065     0.0109 C.ar    
   3 C3             1.2147    -0.6824    -0.0067 C.ar    
   4 C4             2.3998     0.0270    -0.0095 C.ar    
   5 C5             2.3794     1.4097     0.0056 C.ar    
   6 C6             1.1735     2.0854     0.0227 C.ar    
   7 C7             1.2376    -2.1891    -0.0222 C.3     
   8 C8             0.4953    -2.7187    -1.2306 C.2     
   9 N9             2.6177    -2.6805    -0.0113 N.am    
  10 C10            3.4640    -2.3347    -1.0016 C.2     
  11 N11            4.7595    -2.7012    -0.9396 N.am    
  12 O12            3.0588    -1.6921    -1.9509 O.2     
  13 C13            5.6738    -2.4348    -2.0604 C.3     
  14 C14            6.9203    -1.7300    -1.5148 C.3     
  15 N15            7.4924    -2.5291    -0.4230 N.3     
  16 C16            6.5577    -2.6362     0.7053 C.3     
  17 C17            5.2978    -3.3727     0.2531 C.3     
  18 C18            8.7825    -1.9780     0.0127 C.3     
  19 C19            9.2876    -2.7584     1.2294 C.3     
  20 C20           10.6596    -2.2198     1.6411 C.3     
  21 N21           11.5989    -2.3622     0.5214 N.3     
  22 C22           11.1591    -1.5832    -0.6431 C.3     
  23 C23            9.8019    -2.1028    -1.1230 C.3     
  24 C24           12.9599    -1.9836     0.9244 C.3     
  25 O25            0.7758    -2.5174    -2.3932 O.2     
  26 N26           -0.5319    -3.4542    -0.7738 N.am    
  27 C27            0.4655    -2.7430     1.1537 C.ar    
  28 C28           -0.5801    -3.4904     0.6169 C.ar    
  29 C29            0.6282    -2.6278     2.5110 C.ar    
  30 C30           -0.2662    -3.2683     3.3760 C.ar    
  31 C31           -1.3197    -4.0213     2.8437 C.ar    
  32 C32           -1.4717    -4.1305     1.4780 C.ar    
  33 F33           -2.1885    -4.6434     3.6704 F       
  34 C34           -0.9814    -5.8429    -2.0647 C.ar    
  35 C35            0.1985    -5.9982    -2.7773 C.ar    
  36 C36           -1.6540    -6.9540    -1.5937 C.ar    
  37 C37           -1.1518    -8.2198    -1.8317 C.ar    
  38 C38            0.0243    -8.3774    -2.5418 C.ar    
  39 C39            0.7002    -7.2698    -3.0152 C.ar    
  40 H40            0.4147    -9.3673    -2.7264 H       
  41 O41            0.8616    -4.9068    -3.2421 O.3     
  42 C42            2.0700    -5.1422    -3.9677 C.3     
  43 C43            2.6698    -3.8051    -4.4071 C.3     
  44 C44           13.9461    -2.3770    -0.1772 C.3     
  45 S45           -1.6181    -4.2295    -1.7543 S.o2    
  46 O46           -2.7993    -4.4056    -0.9841 O.2     
  47 O47           -1.5966    -3.5433    -2.9984 O.2     
  48 O48           -1.1644    -0.7022     0.0142 O.3     
  49 C49           -2.3734     0.0593     0.0331 C.3     
  50 C50           -3.5738    -0.8894     0.0340 C.3     
  51 F51           -3.5411    -1.6839    -1.1170 F       
  52 F52           -3.5204    -1.7079     1.1674 F       
  53 C53           -0.1050    -3.1547     4.7944 C.1     
  54 N54            0.0230    -3.0646     5.9196 N.1     
  55 H55           -0.9566     1.9088     0.0348 H       
  56 H56            3.3432    -0.4986    -0.0232 H       
  57 H57            3.3072     1.9625     0.0041 H       
  58 H58            1.1602     3.1652     0.0345 H       
  59 H59            2.9224    -3.2548     0.7086 H       
  60 H60            5.9612    -3.3756    -2.5300 H       
  61 H61            5.1807    -1.7934    -2.7908 H       
  62 H62            7.6562    -1.6236    -2.3119 H       
  63 H63            6.6456    -0.7444    -1.1390 H       
  64 H64            7.0306    -3.1870     1.5183 H       
  65 H65            6.2881    -1.6380     1.0502 H       
  66 H66            4.5563    -3.3541     1.0518 H       
  67 H67            5.5462    -4.4044     0.0043 H       
  68 H68            8.6590    -0.9282     0.2788 H       
  69 H69            8.5867    -2.6382     2.0554 H       
  70 H70            9.3729    -3.8147     0.9745 H       
  71 H71           10.5710    -1.1670     1.9091 H       
  72 H72           11.0285    -2.7828     2.4984 H       
  73 H73           11.0681    -0.5334    -0.3644 H       
  74 H74           11.8906    -1.6839    -1.4448 H       
  75 H75            9.8953    -3.1488    -1.4149 H       
  76 H76            9.4685    -1.5142    -1.9777 H       
  77 H77           13.0049    -0.9064     1.0847 H       
  78 H78           13.2221    -2.4997     1.8480 H       
  79 H79            1.4445    -2.0447     2.9108 H       
  80 H80           -2.2860    -4.7127     1.0727 H       
  81 H81           -2.5727    -6.8336    -1.0388 H       
  82 H82           -1.6786    -9.0871    -1.4620 H       
  83 H83            1.6183    -7.3933    -3.5704 H       
  84 H84            2.7808    -5.6670    -3.3294 H       
  85 H85            1.8536    -5.7497    -4.8465 H       
  86 H86            1.9590    -3.2803    -5.0455 H       
  87 H87            2.8862    -3.1976    -3.5283 H       
  88 H88            3.5915    -3.9846    -4.9606 H       
  89 H89           13.9010    -3.4542    -0.3375 H       
  90 H90           13.6839    -1.8609    -1.1008 H       
  91 H91           14.9559    -2.0961     0.1219 H       
  92 H92           -2.3989     0.6784     0.9299 H       
  93 H93           -2.4150     0.6970    -0.8499 H       
  94 H94           -4.4960    -0.3085     0.0485 H       
@<TRIPOS>BOND
   1    1    2 ar
   2    1    6 ar
   3    1   55 1
   4    2    3 ar
   5    2   48 1
   6    3    4 ar
   7    3    7 1
   8    4    5 ar
   9    4   56 1
  10    5    6 ar
  11    5   57 1
  12    6   58 1
  13    7    8 1
  14    7    9 1
  15    7   27 1
  16    8   25 2
  17    8   26 am
  18    9   10 am
  19    9   59 1
  20   10   11 am
  21   10   12 2
  22   11   13 1
  23   11   17 1
  24   13   14 1
  25   13   60 1
  26   13   61 1
  27   14   15 1
  28   14   62 1
  29   14   63 1
  30   15   16 1
  31   15   18 1
  32   16   17 1
  33   16   64 1
  34   16   65 1
  35   17   66 1
  36   17   67 1
  37   18   19 1
  38   18   23 1
  39   18   68 1
  40   19   20 1
  41   19   69 1
  42   19   70 1
  43   20   21 1
  44   20   71 1
  45   20   72 1
  46   21   22 1
  47   21   24 1
  48   22   23 1
  49   22   73 1
  50   22   74 1
  51   23   75 1
  52   23   76 1
  53   24   44 1
  54   24   77 1
  55   24   78 1
  56   26   45 am
  57   26   28 1
  58   27   28 ar
  59   27   29 ar
  60   28   32 ar
  61   29   30 ar
  62   29   79 1
  63   30   31 ar
  64   30   53 1
  65   31   32 ar
  66   31   33 1
  67   32   80 1
  68   34   35 ar
  69   34   36 ar
  70   34   45 1
  71   35   41 1
  72   35   39 ar
  73   36   37 ar
  74   36   81 1
  75   37   38 ar
  76   37   82 1
  77   38   39 ar
  78   38   40 1
  79   39   83 1
  80   41   42 1
  81   42   43 1
  82   42   84 1
  83   42   85 1
  84   43   86 1
  85   43   87 1
  86   43   88 1
  87   44   89 1
  88   44   90 1
  89   44   91 1
  90   45   46 2
  91   45   47 2
  92   48   49 1
  93   49   50 1
  94   49   92 1
  95   49   93 1
  96   50   51 1
  97   50   52 1
  98   50   94 1
  99   53   54 3

#	End of record

