#	Name: ASD04910507
#	Creating user name:	WinNT
#	Creation time:	15. 06. 2019 20:56

#	Modifying user name:	WinNT
#	Modification time:	15. 06. 2019 20:56

#	Program:	/corina/corina34_cracker 3.40 0067  02.08.2006

@<TRIPOS>MOLECULE
ASD04910507
  60   62    0    0    0
SMALL
NO_CHARGES


@<TRIPOS>ATOM
   1 N1            -0.2122     1.7002    -0.1274 N.am    
   2 C2            -0.1321     0.2440     0.0119 C.3     
   3 C3            -0.2978    -0.1374     1.4843 C.3     
   4 C4            -1.2267    -0.3992    -0.7999 C.ar    
   5 C5             0.8143     0.5132     2.3256 C.3     
   6 C6            -0.9683    -1.5554    -1.5132 C.ar    
   7 C7            -1.9696    -2.1475    -2.2577 C.ar    
   8 C8            -3.2367    -1.5808    -2.2896 C.ar    
   9 C9            -3.4931    -0.4199    -1.5724 C.ar    
  10 C10           -2.4890     0.1647    -0.8255 C.ar    
  11 C11           -1.6871    -3.4072    -3.0352 C.3     
  12 C12           -4.8669     0.1987    -1.6047 C.3     
  13 N13           -4.2549    -2.1791    -3.0447 N.pl3   
  14 N14           -4.1961    -2.4880    -4.4098 N.2     
  15 C15           -5.3335    -3.0358    -4.7548 C.2     
  16 C16           -6.1531    -3.0937    -3.6223 C.2     
  17 C17           -5.4657    -2.5657    -2.5831 C.2     
  18 C18           -1.6356     0.4088     2.0243 C.3     
  19 C19           -1.3117     0.8391     3.4765 C.3     
  20 C20            0.1134     1.4320     3.3476 C.3     
  21 S21            1.1729     2.6077    -0.1457 S.o     
  22 O22            1.8061     2.2002    -1.3509 O.2     
  23 C23            0.5490     4.3007    -0.3330 C.3     
  24 C24           -0.3621     4.6420     0.8478 C.3     
  25 C25            1.7264     5.2772    -0.3676 C.3     
  26 C26           -0.2435     4.4109    -1.6371 C.3     
  27 C27           -7.5523    -3.6508    -3.5681 C.3     
  28 F28           -7.9205    -4.1109    -4.8369 F       
  29 F29           -7.5971    -4.7110    -2.6564 F       
  30 F30           -8.4382    -2.6477    -3.1606 F       
  31 H31           -1.0764     2.1324    -0.2129 H       
  32 H32            0.8374    -0.1024    -0.3463 H       
  33 H33           -0.2642    -1.2212     1.5950 H       
  34 H34            1.3870    -0.2549     2.8454 H       
  35 H35            1.4720     1.1006     1.6850 H       
  36 H36            0.0176    -1.9956    -1.4883 H       
  37 H37           -2.6879     1.0677    -0.2674 H       
  38 H38           -1.8474    -4.2737    -2.3937 H       
  39 H39           -2.3562    -3.4620    -3.8938 H       
  40 H40           -0.6532    -3.3969    -3.3803 H       
  41 H41           -5.4972    -0.2768    -0.8532 H       
  42 H42           -4.7902     1.2651    -1.3927 H       
  43 H43           -5.3069     0.0551    -2.5915 H       
  44 H44           -5.5947    -3.3830    -5.7436 H       
  45 H45           -5.8223    -2.4657    -1.5685 H       
  46 H46           -1.9628     1.2663     1.4363 H       
  47 H47           -2.3965    -0.3716     2.0184 H       
  48 H48           -2.0156     1.5968     3.8210 H       
  49 H49           -1.3127    -0.0225     4.1441 H       
  50 H50            0.6289     1.3982     4.3074 H       
  51 H51            0.0687     2.4547     2.9733 H       
  52 H52            0.2025     4.5635     1.7769 H       
  53 H53           -0.7369     5.6593     0.7353 H       
  54 H54           -1.2008     3.9464     0.8725 H       
  55 H55            2.3755     5.0340    -1.2089 H       
  56 H56            1.3515     6.2945    -0.4802 H       
  57 H57            2.2910     5.1987     0.5614 H       
  58 H58           -1.0823     3.7152    -1.6124 H       
  59 H59           -0.6184     5.4282    -1.7496 H       
  60 H60            0.4056     4.1677    -2.4783 H       
@<TRIPOS>BOND
   1    1    2 1
   2    1   21 am
   3    1   31 1
   4    2    3 1
   5    2    4 1
   6    2   32 1
   7    3    5 1
   8    3   18 1
   9    3   33 1
  10    4    6 ar
  11    4   10 ar
  12    5   20 1
  13    5   34 1
  14    5   35 1
  15    6    7 ar
  16    6   36 1
  17    7    8 ar
  18    7   11 1
  19    8    9 ar
  20    8   13 1
  21    9   10 ar
  22    9   12 1
  23   10   37 1
  24   11   38 1
  25   11   39 1
  26   11   40 1
  27   12   41 1
  28   12   42 1
  29   12   43 1
  30   13   14 1
  31   13   17 1
  32   14   15 2
  33   15   16 1
  34   15   44 1
  35   16   17 2
  36   16   27 1
  37   17   45 1
  38   18   19 1
  39   18   46 1
  40   18   47 1
  41   19   20 1
  42   19   48 1
  43   19   49 1
  44   20   50 1
  45   20   51 1
  46   21   22 2
  47   21   23 1
  48   23   24 1
  49   23   25 1
  50   23   26 1
  51   24   52 1
  52   24   53 1
  53   24   54 1
  54   25   55 1
  55   25   56 1
  56   25   57 1
  57   26   58 1
  58   26   59 1
  59   26   60 1
  60   27   28 1
  61   27   29 1
  62   27   30 1

#	End of record

