#	Name: ASD01814359
#	Creating user name:	WinNT
#	Creation time:	15. 06. 2019 19:32

#	Modifying user name:	WinNT
#	Modification time:	15. 06. 2019 19:32

#	Program:	/corina/corina34_cracker 3.40 0067  02.08.2006

@<TRIPOS>MOLECULE
ASD01814359
  48   51    0    0    0
SMALL
NO_CHARGES


@<TRIPOS>ATOM
   1 C1            -0.0168     1.3869     0.0097 C.ar    
   2 C2             0.0021    -0.0041     0.0020 C.ar    
   3 C3             1.1801    -0.6897    -0.0129 C.ar    
   4 C4             2.3948     0.0129    -0.0207 C.ar    
   5 C5             2.3717     1.4290    -0.0129 C.ar    
   6 C6             1.1455     2.1015     0.0024 C.ar    
   7 C7             3.6293    -0.6694    -0.0365 C.ar    
   8 C8             4.8031     0.0063    -0.0446 C.ar    
   9 C9             4.8359     1.4095    -0.0374 C.ar    
  10 C10            3.6406     2.1511    -0.0211 C.ar    
  11 C11            6.1026     2.1526    -0.0470 C.2     
  12 N12            6.0328     3.5041    -0.0399 N.am    
  13 C13            4.8302     4.1313    -0.0241 C.2     
  14 N14            3.6961     3.4935    -0.0158 N.2     
  15 C15            3.6424    -2.1763    -0.0442 C.3     
  16 O16            7.1745     1.5748    -0.0604 O.2     
  17 C17            7.2655     4.2957    -0.0490 C.3     
  18 C18            7.3178     5.1723     1.2039 C.3     
  19 C19            8.6052     5.9990     1.1945 C.3     
  20 C20            8.6317     6.8873    -0.0509 C.3     
  21 C21            8.5794     6.0107    -1.3038 C.3     
  22 C22            7.2920     5.1840    -1.2944 C.3     
  23 O23            7.2930     4.3426     2.3671 O.3     
  24 C24            3.5087    -2.6726    -1.4608 C.2     
  25 C25            3.4948    -4.1530    -1.7424 C.3     
  26 O26            3.4127    -1.8840    -2.3704 O.2     
  27 H27           -0.9630     1.9076     0.0169 H       
  28 H28           -0.9305    -0.5488     0.0083 H       
  29 H29            1.1786    -1.7697    -0.0183 H       
  30 H30            1.1188     3.1811     0.0081 H       
  31 H31            5.7317    -0.5451    -0.0563 H       
  32 H32            4.8132     5.2111    -0.0182 H       
  33 H33            4.5813    -2.5336     0.3789 H       
  34 H34            2.8098    -2.5499     0.5518 H       
  35 H35            8.1264     3.6273    -0.0610 H       
  36 H36            6.4569     5.8406     1.2159 H       
  37 H37            8.6425     6.6235     2.0871 H       
  38 H38            9.4662     5.3306     1.1825 H       
  39 H39            7.7708     7.5557    -0.0389 H       
  40 H40            9.5489     7.4763    -0.0577 H       
  41 H41            8.5983     6.6436    -2.1911 H       
  42 H42            9.4403     5.3423    -1.3159 H       
  43 H43            7.2547     4.5595    -2.1870 H       
  44 H44            6.4311     5.8523    -1.2824 H       
  45 H45            7.3237     4.8324     3.2003 H       
  46 H46            3.5913    -4.7019    -0.8057 H       
  47 H47            2.5558    -4.4220    -2.2262 H       
  48 H48            4.3272    -4.4058    -2.3991 H       
@<TRIPOS>BOND
   1    1    2 ar
   2    1    6 ar
   3    1   27 1
   4    2    3 ar
   5    2   28 1
   6    3    4 ar
   7    3   29 1
   8    4    5 ar
   9    4    7 ar
  10    5    6 ar
  11    5   10 ar
  12    6   30 1
  13    7    8 ar
  14    7   15 1
  15    8    9 ar
  16    8   31 1
  17    9   10 ar
  18    9   11 1
  19   10   14 1
  20   11   12 am
  21   11   16 2
  22   12   13 1
  23   12   17 1
  24   13   14 2
  25   13   32 1
  26   15   24 1
  27   15   33 1
  28   15   34 1
  29   17   18 1
  30   17   22 1
  31   17   35 1
  32   18   19 1
  33   18   23 1
  34   18   36 1
  35   19   20 1
  36   19   37 1
  37   19   38 1
  38   20   21 1
  39   20   39 1
  40   20   40 1
  41   21   22 1
  42   21   41 1
  43   21   42 1
  44   22   43 1
  45   22   44 1
  46   23   45 1
  47   24   25 1
  48   24   26 2
  49   25   46 1
  50   25   47 1
  51   25   48 1

#	End of record

