#	Name: ASD01811640
#	Creating user name:	WinNT
#	Creation time:	15. 06. 2019 19:27

#	Modifying user name:	WinNT
#	Modification time:	15. 06. 2019 19:27

#	Program:	/corina/corina34_cracker 3.40 0067  02.08.2006

@<TRIPOS>MOLECULE
ASD01811640
  67   72    0    0    0
SMALL
NO_CHARGES


@<TRIPOS>ATOM
   1 C1             1.2027    -0.3656     0.3105 C.ar    
   2 C2             1.3989    -1.6275    -0.2193 C.ar    
   3 C3             2.6140    -1.9670    -0.7777 C.ar    
   4 C4             3.6533    -1.0411    -0.8116 C.ar    
   5 C5             3.4445     0.2276    -0.2747 C.ar    
   6 C6             2.2299     0.5612     0.2809 C.ar    
   7 N7             4.9531    -1.1455    -1.3132 N.am    
   8 C8             5.6550    -0.0064    -1.1460 C.2     
   9 C9             4.7357     0.9638    -0.4646 C.3     
  10 C10            4.5540     2.2544    -1.2758 C.3     
  11 N11            5.6931     3.1082    -0.8827 N.am    
  12 C12            6.1821     2.6693     0.4338 C.3     
  13 C13            5.3154     1.4656     0.8687 C.3     
  14 C14            6.2016     4.1222    -1.6105 C.2     
  15 C15            7.2960     4.9858    -1.0381 C.3     
  16 O16            5.7785     4.3397    -2.7260 O.2     
  17 C17            8.2355     5.4296    -2.1611 C.3     
  18 C18            9.3466     6.3063    -1.5800 C.3     
  19 C19            8.7291     7.5381    -0.9149 C.3     
  20 C20            7.7896     7.0943     0.2081 C.3     
  21 C21            6.6785     6.2176    -0.3730 C.3     
  22 O22            6.8035     0.1943    -1.4804 O.2     
  23 C23            5.4909    -2.3521    -1.9465 C.3     
  24 C24            5.2247    -2.3026    -3.4290 C.ar    
  25 C25            6.0430    -1.5463    -4.2526 C.ar    
  26 C26            5.8024    -1.4987    -5.6130 C.ar    
  27 C27            4.7357    -2.2125    -6.1539 C.ar    
  28 C28            3.9169    -2.9709    -5.3204 C.ar    
  29 C29            4.1683    -3.0164    -3.9637 C.ar    
  30 F30            7.0768    -0.8544    -3.7255 F       
  31 C31            4.4719    -2.1649    -7.6143 C.2     
  32 C32            5.2132    -1.4444    -8.5708 C.2     
  33 N33            4.6750    -1.6534    -9.7431 N.2     
  34 N34            3.5780    -2.5085    -9.5828 N.pl3   
  35 C35            3.4710    -2.8160    -8.2744 C.2     
  36 C36            2.7010    -2.9905   -10.6528 C.3     
  37 H37            0.2485    -0.1024     0.7425 H       
  38 H38            0.5974    -2.3510    -0.1957 H       
  39 H39            2.7597    -2.9546    -1.1896 H       
  40 H40            2.0785     1.5475     0.6941 H       
  41 H41            4.5910     2.0401    -2.3438 H       
  42 H42            3.6112     2.7362    -1.0167 H       
  43 H43            7.2264     2.3662     0.3590 H       
  44 H44            6.0802     3.4794     1.1559 H       
  45 H45            4.5186     1.7859     1.5399 H       
  46 H46            5.9299     0.6963     1.3364 H       
  47 H47            7.8582     4.4166    -0.2977 H       
  48 H48            8.6754     4.5521    -2.6349 H       
  49 H49            7.6733     5.9988    -2.9015 H       
  50 H50            9.9088     5.7372    -0.8397 H       
  51 H51           10.0159     6.6225    -2.3801 H       
  52 H52            9.5207     8.1627    -0.5009 H       
  53 H53            8.1669     8.1073    -1.6553 H       
  54 H54            8.3518     6.5251     0.9485 H       
  55 H55            7.3497     7.9718     0.6819 H       
  56 H56            6.1163     6.7867    -1.1133 H       
  57 H57            6.0092     5.9013     0.4271 H       
  58 H58            6.5654    -2.4060    -1.7718 H       
  59 H59            5.0089    -3.2319    -1.5200 H       
  60 H60            6.4399    -0.9090    -6.2550 H       
  61 H61            3.0885    -3.5256    -5.7356 H       
  62 H62            3.5336    -3.6047    -3.3175 H       
  63 H63            6.0758    -0.8262    -8.3703 H       
  64 H64            2.7243    -3.4564    -7.8287 H       
  65 H65            3.0970    -3.9231   -11.0546 H       
  66 H66            1.7014    -3.1622   -10.2536 H       
  67 H67            2.6523    -2.2447   -11.4462 H       
@<TRIPOS>BOND
   1    1    2 ar
   2    1    6 ar
   3    1   37 1
   4    2    3 ar
   5    2   38 1
   6    3    4 ar
   7    3   39 1
   8    4    5 ar
   9    4    7 1
  10    5    6 ar
  11    5    9 1
  12    6   40 1
  13    7    8 am
  14    7   23 1
  15    8    9 1
  16    8   22 2
  17    9   10 1
  18    9   13 1
  19   10   11 1
  20   10   41 1
  21   10   42 1
  22   11   12 1
  23   11   14 am
  24   12   13 1
  25   12   43 1
  26   12   44 1
  27   13   45 1
  28   13   46 1
  29   14   15 1
  30   14   16 2
  31   15   17 1
  32   15   21 1
  33   15   47 1
  34   17   18 1
  35   17   48 1
  36   17   49 1
  37   18   19 1
  38   18   50 1
  39   18   51 1
  40   19   20 1
  41   19   52 1
  42   19   53 1
  43   20   21 1
  44   20   54 1
  45   20   55 1
  46   21   56 1
  47   21   57 1
  48   23   24 1
  49   23   58 1
  50   23   59 1
  51   24   25 ar
  52   24   29 ar
  53   25   26 ar
  54   25   30 1
  55   26   27 ar
  56   26   60 1
  57   27   28 ar
  58   27   31 1
  59   28   29 ar
  60   28   61 1
  61   29   62 1
  62   31   32 1
  63   31   35 2
  64   32   33 2
  65   32   63 1
  66   33   34 1
  67   34   35 1
  68   34   36 1
  69   35   64 1
  70   36   65 1
  71   36   66 1
  72   36   67 1

#	End of record

