#	Name: ASD05430551
#	Creating user name:	WinNT
#	Creation time:	15. 06. 2019 21:00

#	Modifying user name:	WinNT
#	Modification time:	15. 06. 2019 21:00

#	Program:	/corina/corina34_cracker 3.40 0067  02.08.2006

@<TRIPOS>MOLECULE
ASD05430551
  47   46    0    0    0
SMALL
NO_CHARGES


@<TRIPOS>ATOM
   1 C1            -0.0167     1.3779     0.0096 C.ar    
   2 C2             0.0021    -0.0041     0.0020 C.ar    
   3 C3             1.1751     2.0835     0.0020 C.ar    
   4 C4             2.3810     1.4107    -0.0136 C.ar    
   5 C5             2.3998     0.0283    -0.0211 C.ar    
   6 C6             1.2125    -0.6770    -0.0132 C.ar    
   7 C7            -1.4154    -0.5351     0.0127 C.3     
   8 C8            -2.2970     0.6582    -0.4127 C.3     
   9 C9            -1.4480     1.8702     0.0198 C.3     
  10 H10            1.1613     3.1634     0.0080 H       
  11 H11            3.3086     1.9639    -0.0202 H       
  12 H12            3.3420    -0.4994    -0.0337 H       
  13 H13            1.2279    -1.7569    -0.0191 H       
  14 H14           -1.5178    -1.3539    -0.6994 H       
  15 H15           -1.6870    -0.8679     1.0145 H       
  16 H16           -2.4493     0.6620    -1.4920 H       
  17 H17           -3.2510     0.6423     0.1142 H       
  18 H18           -1.7257     2.1871     1.0250 H       
  19 H19           -1.5750     2.6918    -0.6852 H       
  20 C20            9.3438    11.2900     8.1753 C.3     
  21 C21            9.3646     9.7601     8.1669 C.3     
  22 C22           10.0807     9.2667     6.9081 C.3     
  23 C23           10.1045     9.2533     9.4064 C.3     
  24 H24           10.3664    11.6673     8.1676 H       
  25 H25            8.8166    11.6511     7.2923 H       
  26 H26            8.8336    11.6415     9.0721 H       
  27 H27            8.3420     9.3829     8.1746 H       
  28 H28           11.1033     9.6440     6.9004 H       
  29 H29           10.0955     8.1768     6.9021 H       
  30 H30            9.5535     9.6278     6.0250 H       
  31 H31            9.5944     9.6048    10.3032 H       
  32 H32           10.1193     8.1634     9.4004 H       
  33 H33           11.1271     9.6306     9.3987 H       
  34 C34           17.1290    19.7938    17.4535 C.3     
  35 C35           17.1497    18.2640    17.4451 C.3     
  36 C36           17.8659    17.7706    16.1863 C.3     
  37 C37           17.8897    17.7571    18.6846 C.3     
  38 H38           18.1516    20.1711    17.4458 H       
  39 H39           16.6018    20.1549    16.5704 H       
  40 H40           16.6188    20.1453    18.3503 H       
  41 H41           16.1271    17.8867    17.4528 H       
  42 H42           18.8885    18.1478    16.1786 H       
  43 H43           17.8807    16.6807    16.1803 H       
  44 H44           17.3387    18.1316    15.3032 H       
  45 H45           17.3795    18.1087    19.5814 H       
  46 H46           17.9045    16.6673    18.6786 H       
  47 H47           18.9123    18.1344    18.6769 H       
@<TRIPOS>BOND
   1    1    2 ar
   2    1    3 ar
   3    1    9 1
   4    2    7 1
   5    2    6 ar
   6    3    4 ar
   7    3   10 1
   8    4    5 ar
   9    4   11 1
  10    5    6 ar
  11    5   12 1
  12    6   13 1
  13    7    8 1
  14    7   14 1
  15    7   15 1
  16    8    9 1
  17    8   16 1
  18    8   17 1
  19    9   18 1
  20    9   19 1
  21   20   21 1
  22   20   24 1
  23   20   25 1
  24   20   26 1
  25   21   22 1
  26   21   23 1
  27   21   27 1
  28   22   28 1
  29   22   29 1
  30   22   30 1
  31   23   31 1
  32   23   32 1
  33   23   33 1
  34   34   35 1
  35   34   38 1
  36   34   39 1
  37   34   40 1
  38   35   36 1
  39   35   37 1
  40   35   41 1
  41   36   42 1
  42   36   43 1
  43   36   44 1
  44   37   45 1
  45   37   46 1
  46   37   47 1

#	End of record

