#	Name: ASD04910049
#	Creating user name:	WinNT
#	Creation time:	15. 06. 2019 20:55

#	Modifying user name:	WinNT
#	Modification time:	15. 06. 2019 20:55

#	Program:	/corina/corina34_cracker 3.40 0067  02.08.2006

@<TRIPOS>MOLECULE
ASD04910049
  65   67    0    0    0
SMALL
NO_CHARGES


@<TRIPOS>ATOM
   1 C1            -1.4865     1.0039     1.5118 C.2     
   2 C2            -1.3161    -0.4853     1.3555 C.3     
   3 C3             0.1368    -0.7969     0.9911 C.3     
   4 O4            -0.5427     1.7404     1.3485 O.2     
   5 O5            -2.6880     1.5125     1.8271 O.3     
   6 C6             1.5077    -2.7548     0.5172 C.2     
   7 C7             1.6748    -4.2158     0.3638 C.ar    
   8 C8             2.9216    -4.7474     0.0304 C.ar    
   9 C9             3.0709    -6.1116    -0.1107 C.ar    
  10 C10            1.9881    -6.9522     0.0771 C.ar    
  11 C11            0.7495    -6.4316     0.4077 C.ar    
  12 C12            0.5880    -5.0698     0.5575 C.ar    
  13 O13            2.4571    -2.0139     0.3528 O.2     
  14 N14            0.3025    -2.2445     0.8391 N.am    
  15 C15            2.1584    -8.4413    -0.0796 C.3     
  16 C16            1.6506    -8.8705    -1.4576 C.3     
  17 C17            1.9431   -10.3573    -1.6687 C.3     
  18 C18            1.3326   -10.8140    -2.9951 C.3     
  19 N19            1.3922    -9.1326     0.9602 N.pl3   
  20 C20            1.9615    -9.3533     2.2177 C.ar    
  21 C21            1.2921   -10.1272     3.1573 C.ar    
  22 C22            1.8548   -10.3453     4.3987 C.ar    
  23 C23            3.0897    -9.7914     4.7084 C.ar    
  24 C24            3.7589    -9.0175     3.7697 C.ar    
  25 C25            3.1994    -8.8036     2.5261 C.ar    
  26 N26            3.6614   -10.0133     5.9704 N.pl3   
  27 N27            3.0444    -9.7833     7.2069 N.2     
  28 C28            3.8891   -10.1087     8.1525 C.2     
  29 C29            5.0698   -10.5559     7.5500 C.2     
  30 C30            4.9029   -10.4925     6.2083 C.2     
  31 C31            6.3070   -11.0300     8.2680 C.3     
  32 F32            6.1008   -10.9576     9.6498 F       
  33 F33            6.5781   -12.3538     7.9057 F       
  34 F34            7.3907   -10.2187     7.9151 F       
  35 C35            5.0988    -8.4156     4.1067 C.3     
  36 C36            1.1284   -11.1844     5.4182 C.3     
  37 H37           -1.5697    -0.9804     2.2929 H       
  38 H38           -1.9743    -0.8453     0.5648 H       
  39 H39            0.3905    -0.3018     0.0537 H       
  40 H40            0.7950    -0.4369     1.7818 H       
  41 H41           -2.7482     2.4734     1.9165 H       
  42 H42            3.7674    -4.0923    -0.1171 H       
  43 H43            4.0350    -6.5243    -0.3686 H       
  44 H44           -0.0917    -7.0932     0.5529 H       
  45 H45           -0.3783    -4.6650     0.8200 H       
  46 H46           -0.4552    -2.8358     0.9703 H       
  47 H47            3.2134    -8.6983     0.0150 H       
  48 H48            0.5758    -8.6995    -1.5182 H       
  49 H49            2.1552    -8.2879    -2.2284 H       
  50 H50            3.0213   -10.5159    -1.6913 H       
  51 H51            1.5084   -10.9327    -0.8514 H       
  52 H52            1.7673   -10.2386    -3.8124 H       
  53 H53            1.5410   -11.8733    -3.1455 H       
  54 H54            0.2544   -10.6555    -2.9725 H       
  55 H55            0.4898    -9.4372     0.7761 H       
  56 H56            0.3313   -10.5578     2.9166 H       
  57 H57            3.7222    -8.2056     1.7943 H       
  58 H58            3.7063   -10.0427     9.2148 H       
  59 H59            5.6314   -10.7725     5.4619 H       
  60 H60            5.8917    -9.0891     3.7814 H       
  61 H61            5.2048    -7.4573     3.5984 H       
  62 H62            5.1690    -8.2653     5.1840 H       
  63 H63            1.4922   -12.2107     5.3698 H       
  64 H64            1.3085   -10.7817     6.4150 H       
  65 H65            0.0591   -11.1676     5.2073 H       
@<TRIPOS>BOND
   1    1    2 1
   2    1    4 2
   3    1    5 1
   4    2    3 1
   5    2   37 1
   6    2   38 1
   7    3   14 1
   8    3   39 1
   9    3   40 1
  10    5   41 1
  11    6    7 1
  12    6   13 2
  13    6   14 am
  14    7    8 ar
  15    7   12 ar
  16    8    9 ar
  17    8   42 1
  18    9   10 ar
  19    9   43 1
  20   10   11 ar
  21   10   15 1
  22   11   12 ar
  23   11   44 1
  24   12   45 1
  25   14   46 1
  26   15   16 1
  27   15   19 1
  28   15   47 1
  29   16   17 1
  30   16   48 1
  31   16   49 1
  32   17   18 1
  33   17   50 1
  34   17   51 1
  35   18   52 1
  36   18   53 1
  37   18   54 1
  38   19   20 1
  39   19   55 1
  40   20   21 ar
  41   20   25 ar
  42   21   22 ar
  43   21   56 1
  44   22   23 ar
  45   22   36 1
  46   23   24 ar
  47   23   26 1
  48   24   25 ar
  49   24   35 1
  50   25   57 1
  51   26   27 1
  52   26   30 1
  53   27   28 2
  54   28   29 1
  55   28   58 1
  56   29   30 2
  57   29   31 1
  58   30   59 1
  59   31   32 1
  60   31   33 1
  61   31   34 1
  62   35   60 1
  63   35   61 1
  64   35   62 1
  65   36   63 1
  66   36   64 1
  67   36   65 1

#	End of record

