#	Name: ASD01917566
#	Creating user name:	WinNT
#	Creation time:	15. 06. 2019 20:09

#	Modifying user name:	WinNT
#	Modification time:	15. 06. 2019 20:09

#	Program:	/corina/corina34_cracker 3.40 0067  02.08.2006

@<TRIPOS>MOLECULE
ASD01917566
  42   45    0    0    0
SMALL
NO_CHARGES


@<TRIPOS>ATOM
   1 N1             4.8220    -0.4108    -2.1392 N.ar    
   2 C2             5.2888     0.2864    -3.1566 C.ar    
   3 C3             5.1760     1.6662    -3.1832 C.ar    
   4 C4             4.5619     2.3154    -2.1216 C.ar    
   5 C5             4.0813     1.5472    -1.0664 C.ar    
   6 C6             4.2326     0.1683    -1.1125 C.ar    
   7 F7             5.6583     2.3717    -4.2296 F       
   8 O8             3.4731     2.1385    -0.0048 O.3     
   9 C9             3.4533     3.4978     0.0442 C.2     
  10 N10            2.2006     5.5129    -0.0224 N.pl3   
  11 C11            2.2715     4.1523    -0.0657 C.2     
  12 C12            4.6542     4.1994     0.2132 C.2     
  13 C13            4.6287     5.5876     0.2627 C.2     
  14 C14            3.3357     6.2651     0.1349 C.2     
  15 C15            5.8699     6.3587     0.4396 C.2     
  16 N16            5.8261     7.7050     0.4853 N.am    
  17 C17            6.9834     8.4307     0.7580 C.ar    
  18 N18            8.1432     7.7995     0.8640 N.ar    
  19 C19            6.9104     9.8094     0.9105 C.ar    
  20 C20            8.0671    10.5222     1.1816 C.ar    
  21 C21            9.2618     9.8292     1.2914 C.ar    
  22 C22            9.2651     8.4513     1.1220 C.ar    
  23 O23            6.9352     5.7810     0.5446 O.2     
  24 C24            1.1516     6.3894    -0.1085 C.2     
  25 C25            1.6640     7.6346    -0.0110 C.2     
  26 N26            2.9889     7.5394     0.1423 N.2     
  27 O27           10.4315     7.7657     1.2227 O.3     
  28 C28           10.3697     6.3499     1.0390 C.3     
  29 H29            5.7656    -0.2254    -3.9794 H       
  30 H30            4.4599     3.3906    -2.1147 H       
  31 H31            3.8628    -0.4369    -0.2980 H       
  32 H32            1.3633     3.5815    -0.1910 H       
  33 H33            5.5894     3.6669     0.3044 H       
  34 H34            4.9886     8.1686     0.3283 H       
  35 H35            5.9631    10.3198     0.8185 H       
  36 H36            8.0381    11.5948     1.3044 H       
  37 H37           10.1810    10.3556     1.5017 H       
  38 H38            0.1104     6.1327    -0.2367 H       
  39 H39            1.0977     8.5536    -0.0433 H       
  40 H40           11.3682     5.9258     1.1452 H       
  41 H41            9.7085     5.9147     1.7884 H       
  42 H42            9.9853     6.1292     0.0432 H       
@<TRIPOS>BOND
   1    1    2 ar
   2    1    6 ar
   3    2    3 ar
   4    2   29 1
   5    3    4 ar
   6    3    7 1
   7    4    5 ar
   8    4   30 1
   9    5    6 ar
  10    5    8 1
  11    6   31 1
  12    8    9 1
  13    9   12 1
  14    9   11 2
  15   10   11 1
  16   10   24 1
  17   10   14 1
  18   11   32 1
  19   12   13 2
  20   12   33 1
  21   13   14 1
  22   13   15 1
  23   14   26 2
  24   15   16 am
  25   15   23 2
  26   16   17 1
  27   16   34 1
  28   17   19 ar
  29   17   18 ar
  30   18   22 ar
  31   19   20 ar
  32   19   35 1
  33   20   21 ar
  34   20   36 1
  35   21   22 ar
  36   21   37 1
  37   22   27 1
  38   24   25 2
  39   24   38 1
  40   25   26 1
  41   25   39 1
  42   27   28 1
  43   28   40 1
  44   28   41 1
  45   28   42 1

#	End of record

