#	Name: ASD03091340
#	Creating user name:	WinNT
#	Creation time:	15. 06. 2019 20:30

#	Modifying user name:	WinNT
#	Modification time:	15. 06. 2019 20:30

#	Program:	/corina/corina34_cracker 3.40 0067  02.08.2006

@<TRIPOS>MOLECULE
ASD03091340
  51   55    0    0    0
SMALL
NO_CHARGES


@<TRIPOS>ATOM
   1 N1            -0.1903     1.3916     0.0672 N.am    
   2 C2            -0.2854     0.1083     0.5342 C.2     
   3 N3            -1.4210    -0.4477     0.8673 N.2     
   4 C4            -2.5905     0.2170     0.7715 C.ar    
   5 C5            -2.5888     1.5493     0.2988 C.ar    
   6 C6            -1.2995     2.1558    -0.0651 C.2     
   7 C7             0.9538    -0.6862     0.6677 C.ar    
   8 O8            -1.2333     3.2991    -0.4778 O.2     
   9 C9            -3.8020    -0.3831     1.1288 C.ar    
  10 C10           -4.9679     0.3184     1.0190 C.ar    
  11 C11           -4.9715     1.6334     0.5532 C.ar    
  12 C12           -3.7864     2.2525     0.1928 C.ar    
  13 N13           -6.1784     2.3303     0.4500 N.3     
  14 C14            1.9371    -0.6227    -0.3208 C.ar    
  15 C15            3.0915    -1.3670    -0.1900 C.ar    
  16 C16            3.2755    -2.1749     0.9178 C.ar    
  17 C17            2.3046    -2.2424     1.9015 C.ar    
  18 C18            1.1484    -1.4991     1.7859 C.ar    
  19 C19            1.1203     1.9429    -0.2857 C.3     
  20 C20           -6.1479     3.2803    -0.6881 C.3     
  21 C21           -7.3512     2.8694    -1.5920 C.3     
  22 N22           -6.9243     1.5697    -2.1998 N.3     
  23 C23           -6.8591     0.5973    -1.0822 C.3     
  24 C24           -7.3158     1.3959     0.1778 C.3     
  25 C25           -5.6188     1.7010    -2.8603 C.3     
  26 C26           -8.3517     2.3705    -0.4888 C.3     
  27 C27            2.5137    -3.1252     3.1048 C.3     
  28 H28           -3.8153    -1.4006     1.4908 H       
  29 H29           -5.9002    -0.1510     1.2963 H       
  30 H30           -3.7908     3.2706    -0.1677 H       
  31 H31            1.7945     0.0073    -1.1863 H       
  32 H32            3.8530    -1.3191    -0.9544 H       
  33 H33            4.1808    -2.7557     1.0151 H       
  34 H34            0.3916    -1.5524     2.5545 H       
  35 H35            1.3643     1.6709    -1.3126 H       
  36 H36            1.0944     3.0287    -0.1938 H       
  37 H37            1.8772     1.5393     0.3868 H       
  38 H38           -6.2741     4.3025    -0.3313 H       
  39 H39           -5.2114     3.1831    -1.2372 H       
  40 H40           -7.7134     3.6280    -2.2860 H       
  41 H41           -7.5352    -0.2375    -1.2669 H       
  42 H42           -5.8384     0.2374    -0.9528 H       
  43 H43           -7.6634     0.8031     1.0239 H       
  44 H44           -4.8419     1.8310    -2.1069 H       
  45 H45           -5.4139     0.8023    -3.4421 H       
  46 H46           -5.6318     2.5670    -3.5220 H       
  47 H47           -8.6598     3.1710     0.1839 H       
  48 H48           -9.2055     1.8414    -0.9122 H       
  49 H49            3.0117    -2.5568     3.8903 H       
  50 H50            1.5487    -3.4787     3.4682 H       
  51 H51            3.1318    -3.9787     2.8263 H       
@<TRIPOS>BOND
   1    1    2 1
   2    1   19 1
   3    1    6 am
   4    2    3 2
   5    2    7 1
   6    3    4 1
   7    4    5 ar
   8    4    9 ar
   9    5    6 1
  10    5   12 ar
  11    6    8 2
  12    7   14 ar
  13    7   18 ar
  14    9   10 ar
  15    9   28 1
  16   10   11 ar
  17   10   29 1
  18   11   12 ar
  19   11   13 1
  20   12   30 1
  21   13   20 1
  22   13   24 1
  23   14   15 ar
  24   14   31 1
  25   15   16 ar
  26   15   32 1
  27   16   17 ar
  28   16   33 1
  29   17   18 ar
  30   17   27 1
  31   18   34 1
  32   19   35 1
  33   19   36 1
  34   19   37 1
  35   20   21 1
  36   20   38 1
  37   20   39 1
  38   21   22 1
  39   21   26 1
  40   21   40 1
  41   22   23 1
  42   22   25 1
  43   23   24 1
  44   23   41 1
  45   23   42 1
  46   24   26 1
  47   24   43 1
  48   25   44 1
  49   25   45 1
  50   25   46 1
  51   26   47 1
  52   26   48 1
  53   27   49 1
  54   27   50 1
  55   27   51 1

#	End of record

