#	Name: ASD07150001
#	Creating user name:	WinNT
#	Creation time:	15. 06. 2019 21:09

#	Modifying user name:	WinNT
#	Modification time:	15. 06. 2019 21:09

#	Program:	/corina/corina34_cracker 3.40 0067  02.08.2006

@<TRIPOS>MOLECULE
ASD07150001
  40   41    0    0    0
SMALL
NO_CHARGES


@<TRIPOS>ATOM
   1 C1            -0.0059     1.3714     0.0125 C.2     
   2 C2             0.0432     0.0255     0.0196 C.2     
   3 N3            -1.1081    -0.7091     0.0297 N.pl3   
   4 C4            -2.3126    -0.1194    -0.3292 C.2     
   5 C5            -2.4472     1.1881    -0.3455 C.2     
   6 C6            -1.3169     2.1049     0.0313 C.3     
   7 C7             1.3776    -0.6747     0.0157 C.3     
   8 C8            -3.4828    -0.9909    -0.7061 C.3     
   9 C9             1.1988     2.1077    -0.0070 C.2     
  10 O10            1.8955     2.2923     1.1342 O.3     
  11 O11            1.6089     2.5760    -1.0529 O.2     
  12 C12            3.1053     3.0471     1.0408 C.3     
  13 C13           -1.5667     2.6584     1.4106 C.ar    
  14 C14           -1.5557     4.0246     1.6194 C.ar    
  15 C15           -1.7848     4.5324     2.8848 C.ar    
  16 C16           -2.0253     3.6738     3.9408 C.ar    
  17 C17           -2.0372     2.3072     3.7318 C.ar    
  18 C18           -1.8124     1.7997     2.4660 C.ar    
  19 N19           -3.7483     1.7729    -0.7411 N.pl3   
  20 O20           -4.6759     1.0447    -1.0456 O.2     
  21 O21           -3.8913     2.9823    -0.7619 O.2     
  22 C22           -1.2935     4.9608     0.4679 C.3     
  23 F23           -1.2212     6.2749     0.9425 F       
  24 F24           -0.0830     4.6190    -0.1446 F       
  25 F25           -2.3327     4.8576    -0.4629 F       
  26 H26           -1.0842    -1.6439     0.2876 H       
  27 H27           -1.2705     2.9284    -0.6814 H       
  28 H28            1.7476    -0.7571     1.0377 H       
  29 H29            1.2638    -1.6712    -0.4109 H       
  30 H30            2.0866    -0.1021    -0.5823 H       
  31 H31           -3.1921    -2.0392    -0.6372 H       
  32 H32           -4.3128    -0.7986    -0.0264 H       
  33 H33           -3.7897    -0.7654    -1.7274 H       
  34 H34            2.8818     4.0471     0.6691 H       
  35 H35            3.5650     3.1201     2.0264 H       
  36 H36            3.7918     2.5499     0.3556 H       
  37 H37           -1.7756     5.5999     3.0481 H       
  38 H38           -2.2036     4.0704     4.9294 H       
  39 H39           -2.2248     1.6362     4.5570 H       
  40 H40           -1.8217     0.7322     2.3026 H       
@<TRIPOS>BOND
   1    1    2 2
   2    1    9 1
   3    1    6 1
   4    2    3 1
   5    2    7 1
   6    3    4 1
   7    3   26 1
   8    4    5 2
   9    4    8 1
  10    5    6 1
  11    5   19 1
  12    6   13 1
  13    6   27 1
  14    7   28 1
  15    7   29 1
  16    7   30 1
  17    8   31 1
  18    8   32 1
  19    8   33 1
  20    9   10 1
  21    9   11 2
  22   10   12 1
  23   12   34 1
  24   12   35 1
  25   12   36 1
  26   13   14 ar
  27   13   18 ar
  28   14   15 ar
  29   14   22 1
  30   15   16 ar
  31   15   37 1
  32   16   17 ar
  33   16   38 1
  34   17   18 ar
  35   17   39 1
  36   18   40 1
  37   19   20 2
  38   19   21 2
  39   22   23 1
  40   22   24 1
  41   22   25 1

#	End of record

