#	Name: ASD03092283
#	Creating user name:	WinNT
#	Creation time:	15. 06. 2019 20:32

#	Modifying user name:	WinNT
#	Modification time:	15. 06. 2019 20:32

#	Program:	/corina/corina34_cracker 3.40 0067  02.08.2006

@<TRIPOS>MOLECULE
ASD03092283
  29   30    0    0    0
SMALL
NO_CHARGES


@<TRIPOS>ATOM
   1 C1            -0.0167     1.3777     0.0096 C.ar    
   2 C2             0.0021    -0.0041     0.0020 C.ar    
   3 C3             1.2085    -0.6793    -0.0131 C.ar    
   4 C4             2.3965     0.0272    -0.0202 C.ar    
   5 C5             2.3790     1.4094    -0.0122 C.ar    
   6 C6             1.1723     2.0855     0.0021 C.ar    
   7 Cl7            1.1496     3.8214     0.0116 Cl      
   8 C8             3.6744     2.1796    -0.0189 C.3     
   9 C9             3.7373     3.0700    -1.2643 C.3     
  10 C10            4.9849     3.9522    -1.1958 C.3     
  11 C11            4.8877     4.8955     0.0043 C.3     
  12 C12            4.8681     4.0738     1.2975 C.3     
  13 C13            3.7471     3.0621     1.2075 C.2     
  14 O14            2.9309     2.9619     2.0918 O.2     
  15 N15            4.8055     1.2423    -0.0248 N.3     
  16 H16           -0.9591     1.9050     0.0170 H       
  17 H17           -0.9258    -0.5566     0.0083 H       
  18 H18            1.2227    -1.7592    -0.0191 H       
  19 H19            3.3386    -0.5008    -0.0317 H       
  20 H20            3.7825     2.4450    -2.1562 H       
  21 H21            2.8486     3.6997    -1.3062 H       
  22 H22            5.8685     3.3226    -1.0911 H       
  23 H23            5.0652     4.5380    -2.1115 H       
  24 H24            5.7484     5.5644     0.0116 H       
  25 H25            3.9718     5.4821    -0.0676 H       
  26 H26            5.8199     3.5560     1.4167 H       
  27 H27            4.6982     4.7338     2.1481 H       
  28 H28            4.7877     0.6489     0.7911 H       
  29 H29            4.8157     0.6931    -0.8712 H       
@<TRIPOS>BOND
   1    1    2 ar
   2    1    6 ar
   3    1   16 1
   4    2    3 ar
   5    2   17 1
   6    3    4 ar
   7    3   18 1
   8    4    5 ar
   9    4   19 1
  10    5    6 ar
  11    5    8 1
  12    6    7 1
  13    8    9 1
  14    8   15 1
  15    8   13 1
  16    9   10 1
  17    9   20 1
  18    9   21 1
  19   10   11 1
  20   10   22 1
  21   10   23 1
  22   11   12 1
  23   11   24 1
  24   11   25 1
  25   12   13 1
  26   12   26 1
  27   12   27 1
  28   13   14 2
  29   15   28 1
  30   15   29 1

#	End of record

