#	Name: ASD02508051
#	Creating user name:	WinNT
#	Creation time:	15. 06. 2019 20:23

#	Modifying user name:	WinNT
#	Modification time:	15. 06. 2019 20:23

#	Program:	/corina/corina34_cracker 3.40 0067  02.08.2006

@<TRIPOS>MOLECULE
ASD02508051
  36   38    0    0    0
SMALL
NO_CHARGES


@<TRIPOS>ATOM
   1 C1             0.1623     1.6684    -0.1964 C.ar    
   2 C2             0.0702     0.3012     0.0123 C.ar    
   3 C3             1.4103     2.2709    -0.3530 C.ar    
   4 C4             2.5595     1.4984    -0.2991 C.ar    
   5 C5             2.4630     0.1306    -0.0898 C.ar    
   6 C6             1.2169    -0.4660     0.0653 C.ar    
   7 N7            -0.7880     2.6871    -0.3030 N.am    
   8 C8            -0.1224     3.8409    -0.5082 C.2     
   9 O9             1.1970     3.5966    -0.5399 O.3     
  10 N10            3.6223    -0.6505    -0.0351 N.am    
  11 S11            4.7070    -0.4373     1.1978 S.o2    
  12 C12            3.9085    -0.9359     2.6872 C.ar    
  13 C13            2.8122    -0.2308     3.1550 C.ar    
  14 O14           -0.6377     4.9335    -0.6474 O.2     
  15 O15            5.7569    -1.3685     0.9742 O.2     
  16 O16            4.9206     0.9634     1.3066 O.2     
  17 C17            1.1176    -1.9525     0.2925 C.3     
  18 C18            4.3723    -2.0341     3.3859 C.ar    
  19 C19            3.7453    -2.4262     4.5542 C.ar    
  20 C20            2.6539    -1.7203     5.0245 C.ar    
  21 C21            2.1855    -0.6241     4.3250 C.ar    
  22 C22           -2.2415     2.5297    -0.2094 C.3     
  23 F23            2.3550     0.8402     2.4702 F       
  24 H24           -0.8972    -0.1633     0.1337 H       
  25 H25            3.5282     1.9603    -0.4202 H       
  26 H26            3.7907    -1.3170    -0.7194 H       
  27 H27            1.1474    -2.1593     1.3623 H       
  28 H28            0.1799    -2.3217    -0.1230 H       
  29 H29            1.9536    -2.4516    -0.1975 H       
  30 H30            5.2247    -2.5866     3.0191 H       
  31 H31            4.1083    -3.2849     5.0994 H       
  32 H32            2.1647    -2.0277     5.9370 H       
  33 H33            1.3330    -0.0725     4.6930 H       
  34 H34           -2.5531     2.6426     0.8290 H       
  35 H35           -2.7293     3.2897    -0.8198 H       
  36 H36           -2.5236     1.5397    -0.5678 H       
@<TRIPOS>BOND
   1    1    2 ar
   2    1    3 ar
   3    1    7 1
   4    2    6 ar
   5    2   24 1
   6    3    4 ar
   7    3    9 1
   8    4    5 ar
   9    4   25 1
  10    5    6 ar
  11    5   10 1
  12    6   17 1
  13    7    8 am
  14    7   22 1
  15    8    9 1
  16    8   14 2
  17   10   11 am
  18   10   26 1
  19   11   12 1
  20   11   15 2
  21   11   16 2
  22   12   13 ar
  23   12   18 ar
  24   13   23 1
  25   13   21 ar
  26   17   27 1
  27   17   28 1
  28   17   29 1
  29   18   19 ar
  30   18   30 1
  31   19   20 ar
  32   19   31 1
  33   20   21 ar
  34   20   32 1
  35   21   33 1
  36   22   34 1
  37   22   35 1
  38   22   36 1

#	End of record

