#	Name: ASD01885584
#	Creating user name:	WinNT
#	Creation time:	15. 06. 2019 19:49

#	Modifying user name:	WinNT
#	Modification time:	15. 06. 2019 19:49

#	Program:	/corina/corina34_cracker 3.40 0067  02.08.2006

@<TRIPOS>MOLECULE
ASD01885584
  54   59    0    0    0
SMALL
NO_CHARGES


@<TRIPOS>ATOM
   1 C1            -0.4068     1.4921    -1.4412 C.ar    
   2 C2            -0.4379     0.1107    -1.6301 C.ar    
   3 C3            -1.4927    -0.6285    -1.1368 C.ar    
   4 C4            -2.5235     0.0003    -0.4526 C.ar    
   5 C5            -2.4968     1.3780    -0.2623 C.ar    
   6 C6            -1.4409     2.1221    -0.7481 C.ar    
   7 C7             0.7251     2.2882    -1.9702 C.2     
   8 C8             2.0326     2.0992    -1.4597 C.2     
   9 C9             3.0597     2.8236    -1.9417 C.2     
  10 N10            2.8620     3.7484    -2.9264 N.pl3   
  11 C11            1.6092     3.9618    -3.4489 C.2     
  12 C12            0.5165     3.2187    -2.9709 C.2     
  13 C13            3.6909     4.6021    -3.5885 C.2     
  14 N14            2.9641     5.2722    -4.4450 N.2     
  15 N15            1.7337     4.9031    -4.3720 N.2     
  16 C16            5.1753     4.7483    -3.3735 C.3     
  17 C17            5.9219     3.7861    -4.2995 C.3     
  18 O18           -3.5611    -0.7312     0.0320 O.3     
  19 C19           -3.4955    -2.0822    -0.0803 C.ar    
  20 C20           -2.8983    -2.8534     0.9138 C.ar    
  21 C21           -2.8516    -4.2241     0.7623 C.ar    
  22 N22           -3.3631    -4.8040    -0.3070 N.ar    
  23 C23           -3.9370    -4.1076    -1.2701 C.ar    
  24 C24           -4.0291    -2.7335    -1.1903 C.ar    
  25 C25           -4.5039    -4.8230    -2.4692 C.3     
  26 F26           -3.5020     1.9871     0.4038 F       
  27 C27           -5.9949    -5.1657    -2.4475 C.3     
  28 C28           -5.4798    -4.0488    -3.3575 C.3     
  29 C29            7.4498     3.8650    -4.3169 C.3     
  30 C30            6.7526     2.6793    -3.6469 C.3     
  31 C31           -0.8638     3.4401    -3.5337 C.3     
  32 F32           -1.4741     4.5070    -2.8655 F       
  33 F33           -0.7693     3.7368    -4.8976 F       
  34 F34           -1.6294     2.2821    -3.3603 F       
  35 H35            0.3634    -0.3800    -2.1626 H       
  36 H36           -1.5167    -1.6982    -1.2835 H       
  37 H37           -1.4197     3.1917    -0.6002 H       
  38 H38            2.2061     1.3716    -0.6806 H       
  39 H39            4.0524     2.6715    -1.5444 H       
  40 H40            5.4755     5.7724    -3.5954 H       
  41 H41            5.4169     4.5155    -2.3365 H       
  42 H42            5.4194     3.5517    -5.2379 H       
  43 H43           -2.4772    -2.3849     1.7911 H       
  44 H44           -2.3904    -4.8299     1.5282 H       
  45 H45           -4.5003    -2.1696    -1.9817 H       
  46 H46           -3.8320    -5.5298    -2.9560 H       
  47 H47           -6.3039    -6.0979    -2.9205 H       
  48 H48           -6.5657    -4.8738    -1.5660 H       
  49 H49           -5.7118    -3.0220    -3.0746 H       
  50 H50           -5.4500    -4.2461    -4.4290 H       
  51 H51            7.9524     3.6822    -5.2667 H       
  52 H52            7.9231     4.6025    -3.6687 H       
  53 H53            6.7672     2.6367    -2.5578 H       
  54 H54            6.7966     1.7164    -4.1559 H       
@<TRIPOS>BOND
   1    1    2 ar
   2    1    7 1
   3    1    6 ar
   4    2    3 ar
   5    2   35 1
   6    3    4 ar
   7    3   36 1
   8    4    5 ar
   9    4   18 1
  10    5    6 ar
  11    5   26 1
  12    6   37 1
  13    7    8 1
  14    7   12 2
  15    8    9 2
  16    8   38 1
  17    9   10 1
  18    9   39 1
  19   10   11 1
  20   10   13 1
  21   11   12 1
  22   11   15 2
  23   12   31 1
  24   13   14 2
  25   13   16 1
  26   14   15 1
  27   16   17 1
  28   16   40 1
  29   16   41 1
  30   17   29 1
  31   17   30 1
  32   17   42 1
  33   18   19 1
  34   19   20 ar
  35   19   24 ar
  36   20   21 ar
  37   20   43 1
  38   21   22 ar
  39   21   44 1
  40   22   23 ar
  41   23   24 ar
  42   23   25 1
  43   24   45 1
  44   25   27 1
  45   25   28 1
  46   25   46 1
  47   27   28 1
  48   27   47 1
  49   27   48 1
  50   28   49 1
  51   28   50 1
  52   29   30 1
  53   29   51 1
  54   29   52 1
  55   30   53 1
  56   30   54 1
  57   31   32 1
  58   31   33 1
  59   31   34 1

#	End of record

