#	Name: ASD05740039
#	Creating user name:	WinNT
#	Creation time:	15. 06. 2019 21:02

#	Modifying user name:	WinNT
#	Modification time:	15. 06. 2019 21:02

#	Program:	/corina/corina34_cracker 3.40 0067  02.08.2006

@<TRIPOS>MOLECULE
ASD05740039
  46   49    0    0    0
SMALL
NO_CHARGES


@<TRIPOS>ATOM
   1 N1            -0.0159     1.3184     0.0093 N.ar    
   2 C2            -3.3046     1.2276    -0.3327 C.3     
   3 C3            -3.8880     1.0003     2.1830 C.2     
   4 C4            -3.6189     0.3500     3.4604 C.2     
   5 C5            -3.0781     0.5960     1.0167 C.2     
   6 C6            -2.1279    -0.3538     1.1839 C.2     
   7 C7            -1.9189    -0.9428     2.4446 C.2     
   8 O8            -2.6348    -0.6002     3.5216 O.3     
   9 C9            -1.2872    -0.7843     0.0096 C.3     
  10 C10            0.0021    -0.0041     0.0020 C.ar    
  11 C11            1.2212    -0.6637    -0.0132 C.ar    
  12 O12           -1.0562    -1.7948     2.5592 O.2     
  13 C13            1.1137     2.0111     0.0022 C.ar    
  14 N14            2.2949     1.4115    -0.0123 N.ar    
  15 C15            2.3831     0.0915    -0.0202 C.ar    
  16 N16            1.0582     3.3941     0.0097 N.am    
  17 S17            2.4054     4.2789    -0.3701 S.o2    
  18 O18            1.9869     5.6301    -0.2348 O.2     
  19 O19            3.4242     3.7407     0.4616 O.2     
  20 C20           -4.4191     0.8028     4.4428 C.2     
  21 S21           -5.5182     2.0283     3.8442 S.3     
  22 C22           -4.8906     1.9304     2.2663 C.2     
  23 O23           -4.3800     0.3664     5.7303 O.3     
  24 C24           -5.2484     0.9143     6.6144 C.2     
  25 N25           -6.1242     1.8248     6.3271 N.2     
  26 S26           -5.3527     0.4996     8.2697 S.3     
  27 C27           -6.6561     1.6643     8.4902 C.2     
  28 C28           -6.8930     2.2473     7.3140 C.2     
  29 C29            2.7301     3.8844    -2.1107 C.3     
  30 C30            3.9668     4.6503    -2.5851 C.3     
  31 H31           -4.1062     1.9627    -0.2599 H       
  32 H32           -2.3893     1.7196    -0.6618 H       
  33 H33           -3.5821     0.4575    -1.0524 H       
  34 H34           -1.0672    -1.8488     0.0911 H       
  35 H35           -1.8316    -0.5955    -0.9156 H       
  36 H36            1.2646    -1.7429    -0.0190 H       
  37 H37            3.3490    -0.3916    -0.0317 H       
  38 H38            0.2301     3.8450     0.2375 H       
  39 H39           -5.2415     2.5227     1.4342 H       
  40 H40           -7.1748     1.8682     9.4152 H       
  41 H41           -7.6510     3.0050     7.1803 H       
  42 H42            2.9042     2.8134    -2.2142 H       
  43 H43            1.8701     4.1728    -2.7152 H       
  44 H44            3.7927     5.7213    -2.4816 H       
  45 H45            4.8268     4.3619    -1.9806 H       
  46 H46            4.1619     4.4132    -3.6310 H       
@<TRIPOS>BOND
   1    1   10 ar
   2    1   13 ar
   3    2    5 1
   4    2   31 1
   5    2   32 1
   6    2   33 1
   7    3    4 1
   8    3    5 1
   9    3   22 2
  10    4   20 2
  11    4    8 1
  12    5    6 2
  13    6    7 1
  14    6    9 1
  15    7    8 1
  16    7   12 2
  17    9   10 1
  18    9   34 1
  19    9   35 1
  20   10   11 ar
  21   11   15 ar
  22   11   36 1
  23   13   14 ar
  24   13   16 1
  25   14   15 ar
  26   15   37 1
  27   16   17 am
  28   16   38 1
  29   17   18 2
  30   17   19 2
  31   17   29 1
  32   20   21 1
  33   20   23 1
  34   21   22 1
  35   22   39 1
  36   23   24 1
  37   24   26 1
  38   24   25 2
  39   25   28 1
  40   26   27 1
  41   27   28 2
  42   27   40 1
  43   28   41 1
  44   29   30 1
  45   29   42 1
  46   29   43 1
  47   30   44 1
  48   30   45 1
  49   30   46 1

#	End of record

