#	Name: ASD01882016
#	Creating user name:	WinNT
#	Creation time:	15. 06. 2019 19:43

#	Modifying user name:	WinNT
#	Modification time:	15. 06. 2019 19:43

#	Program:	/corina/corina34_cracker 3.40 0067  02.08.2006

@<TRIPOS>MOLECULE
ASD01882016
  58   61    0    0    0
SMALL
NO_CHARGES


@<TRIPOS>ATOM
   1 C1            -0.1802     1.4811     0.1193 C.2     
   2 C2             0.0947     0.0034     0.0092 C.3     
   3 C3            -0.6013    -0.5535    -1.2343 C.3     
   4 O4             1.5034    -0.2124    -0.0966 O.3     
   5 O5             0.6720     2.2820    -0.2018 O.2     
   6 N6            -1.3751     1.9124     0.5694 N.am    
   7 C7            -1.6249     3.3458     0.7740 C.3     
   8 C8            -2.8900     3.7404     0.0055 C.3     
   9 C9            -4.0460     2.8335     0.4337 C.3     
  10 C10           -3.7086     1.3798     0.0947 C.3     
  11 C11           -2.4547     0.9588     0.8589 C.3     
  12 C12           -4.2670     2.9672     1.9418 C.3     
  13 C13           -5.3195     3.2472    -0.3064 C.3     
  14 O14           -6.3991     2.4005     0.0933 O.3     
  15 N15          -11.3869     3.1240    -2.0353 N.pl3   
  16 N16          -11.9743     2.1717    -1.3970 N.2     
  17 N17          -11.1627     1.5480    -0.6175 N.2     
  18 C18           -9.9365     2.0996    -0.7194 C.ar    
  19 C19          -10.0670     3.1445    -1.6539 C.ar    
  20 C20           -8.6940     1.8525    -0.1309 C.ar    
  21 C21           -7.6114     2.6360    -0.4755 C.ar    
  22 C22           -7.7527     3.6669    -1.4019 C.ar    
  23 C23           -8.9631     3.9197    -1.9843 C.ar    
  24 C24           -8.5368     0.7385     0.8717 C.3     
  25 F25           -8.1922    -0.4428     0.2060 F       
  26 F26           -7.5292     1.0707     1.7837 F       
  27 F27           -9.7428     0.5533     1.5561 F       
  28 C28          -12.0157     4.0248    -3.0045 C.3     
  29 C29          -12.5625     5.2549    -2.2773 C.3     
  30 C30          -13.1562     6.3756    -3.1332 C.3     
  31 C31          -14.0761     5.4768    -2.3044 C.3     
  32 H32           -0.2850    -0.5039     0.8960 H       
  33 H33           -0.1850    -0.0831    -2.1251 H       
  34 H34           -0.4454    -1.6311    -1.2859 H       
  35 H35           -1.6693    -0.3432    -1.1777 H       
  36 H36            1.9097     0.2115    -0.8649 H       
  37 H37           -1.7660     3.5440     1.8365 H       
  38 H38           -0.7771     3.9212     0.4023 H       
  39 H39           -3.1407     4.7780     0.2259 H       
  40 H40           -2.7159     3.6271    -1.0645 H       
  41 H41           -4.5421     0.7372     0.3786 H       
  42 H42           -3.5268     1.2887    -0.9761 H       
  43 H43           -2.1542    -0.0402     0.5431 H       
  44 H44           -2.6648     0.9585     1.9285 H       
  45 H45           -4.5084     4.0023     2.1833 H       
  46 H46           -5.0903     2.3213     2.2470 H       
  47 H47           -3.3597     2.6731     2.4694 H       
  48 H48           -5.5606     4.2822    -0.0641 H       
  49 H49           -5.1623     3.1527    -1.3809 H       
  50 H50           -6.8973     4.2727    -1.6623 H       
  51 H51           -9.0609     4.7215    -2.7012 H       
  52 H52          -11.2768     4.3375    -3.7423 H       
  53 H53          -12.8328     3.5060    -3.5058 H       
  54 H54          -12.0275     5.5424    -1.3722 H       
  55 H55          -13.0121     7.4004    -2.7909 H       
  56 H56          -13.1572     6.2366    -4.2143 H       
  57 H57          -14.6823     4.7464    -2.8403 H       
  58 H58          -14.5372     5.9102    -1.4170 H       
@<TRIPOS>BOND
   1    1    2 1
   2    1    5 2
   3    1    6 am
   4    2    3 1
   5    2    4 1
   6    2   32 1
   7    3   33 1
   8    3   34 1
   9    3   35 1
  10    4   36 1
  11    6    7 1
  12    6   11 1
  13    7    8 1
  14    7   37 1
  15    7   38 1
  16    8    9 1
  17    8   39 1
  18    8   40 1
  19    9   10 1
  20    9   12 1
  21    9   13 1
  22   10   11 1
  23   10   41 1
  24   10   42 1
  25   11   43 1
  26   11   44 1
  27   12   45 1
  28   12   46 1
  29   12   47 1
  30   13   14 1
  31   13   48 1
  32   13   49 1
  33   14   21 1
  34   15   16 1
  35   15   19 1
  36   15   28 1
  37   16   17 2
  38   17   18 1
  39   18   19 ar
  40   18   20 ar
  41   19   23 ar
  42   20   21 ar
  43   20   24 1
  44   21   22 ar
  45   22   23 ar
  46   22   50 1
  47   23   51 1
  48   24   25 1
  49   24   26 1
  50   24   27 1
  51   28   29 1
  52   28   52 1
  53   28   53 1
  54   29   30 1
  55   29   31 1
  56   29   54 1
  57   30   31 1
  58   30   55 1
  59   30   56 1
  60   31   57 1
  61   31   58 1

#	End of record

