#	Name: ASD05730115
#	Creating user name:	WinNT
#	Creation time:	15. 06. 2019 21:02

#	Modifying user name:	WinNT
#	Modification time:	15. 06. 2019 21:02

#	Program:	/corina/corina34_cracker 3.40 0067  02.08.2006

@<TRIPOS>MOLECULE
ASD05730115
  78   83    0    0    0
SMALL
NO_CHARGES


@<TRIPOS>ATOM
   1 N1            -0.0113     1.3947     0.0584 N.pl3   
   2 C2             0.0062    -0.0044     0.0388 C.ar    
   3 C3             1.0617    -0.6939     0.6212 C.ar    
   4 C4             1.0789    -2.0743     0.6017 C.ar    
   5 C5             0.0409    -2.7733    -0.0002 C.ar    
   6 C6            -1.0146    -2.0839    -0.5826 C.ar    
   7 C7            -1.0348    -0.7036    -0.5582 C.ar    
   8 N8             0.0586    -4.1738    -0.0203 N.pl3   
   9 C9             1.2584    -4.8475    -0.1396 C.ar    
  10 N10            1.2606    -6.1684    -0.0432 N.ar    
  11 C11            2.3946    -6.8511    -0.1526 C.ar    
  12 C12            3.5948    -6.1411    -0.3733 C.ar    
  13 C13            3.5396    -4.7423    -0.4679 C.ar    
  14 N14            2.3673    -4.1472    -0.3522 N.ar    
  15 N15            2.4062    -8.2195    -0.0536 N.am    
  16 C16            3.5593    -8.9067    -0.1645 C.2     
  17 C17            4.8219    -8.2009    -0.3931 C.2     
  18 C18            4.8199    -6.8355    -0.4951 C.2     
  19 C19            1.1517    -8.9405     0.1756 C.3     
  20 O20            3.5520   -10.1214    -0.0737 O.2     
  21 C21            6.0899    -8.9577    -0.5145 C.ar    
  22 C22            6.6864    -9.1278    -1.7633 C.ar    
  23 C23            6.6941    -9.4977     0.6208 C.ar    
  24 C24            7.8746   -10.2014     0.5020 C.ar    
  25 C25            8.4598   -10.3723    -0.7414 C.ar    
  26 C26            7.8673    -9.8336    -1.8706 C.ar    
  27 C27           -1.1248     2.1221    -0.5560 C.3     
  28 Cl28           9.9457   -11.2585    -0.8835 Cl      
  29 C29           -2.2784     2.2834     0.4512 C.3     
  30 N30           -2.4616     3.7343     0.6723 N.3     
  31 C31           -1.9490     4.3986    -0.5533 C.3     
  32 C32           -0.6935     3.5638    -0.9103 C.3     
  33 C33           -3.8772     4.0584     0.8939 C.3     
  34 S34            5.9334    -8.4434    -3.2017 S.o2    
  35 C35            4.3662    -9.3424    -3.3636 C.3     
  36 O36            5.6958    -7.0847    -2.8601 O.2     
  37 O37            6.8181    -8.7891    -4.2586 O.2     
  38 C38            3.6661    -8.9226    -4.6597 C.3     
  39 C39            2.3844    -9.7430    -4.8270 C.3     
  40 O40            2.7084   -11.1348    -4.8312 O.3     
  41 C41            3.3226   -11.5945    -3.6256 C.3     
  42 C42            4.6419   -10.8485    -3.4099 C.3     
  43 C43            0.5149    -9.2963    -1.1694 C.3     
  44 F44            1.3911   -10.1056    -1.9006 F       
  45 F45           -0.6831    -9.9848    -0.9506 F       
  46 F46            0.2546    -8.1238    -1.8868 F       
  47 H47            0.7117     1.8829     0.4823 H       
  48 H48            1.8691    -0.1503     1.0890 H       
  49 H49            1.8999    -2.6105     1.0544 H       
  50 H50           -1.8219    -2.6276    -1.0507 H       
  51 H51           -1.8558    -0.1674    -1.0108 H       
  52 H52           -0.7717    -4.6704     0.0495 H       
  53 H53            4.4368    -4.1652    -0.6362 H       
  54 H54            5.7408    -6.2971    -0.6640 H       
  55 H55            1.3545    -9.8540     0.7345 H       
  56 H56            0.4691    -8.3099     0.7452 H       
  57 H57            6.2388    -9.3647     1.5910 H       
  58 H58            8.3435   -10.6196     1.3805 H       
  59 H59            8.3277    -9.9701    -2.8380 H       
  60 H60           -1.4712     1.5993    -1.4475 H       
  61 H61           -3.1919     1.8519     0.0418 H       
  62 H62           -2.0222     1.7940     1.3908 H       
  63 H63           -2.6856     4.3477    -1.3552 H       
  64 H64           -1.6765     5.4332    -0.3448 H       
  65 H65            0.1591     3.8712    -0.3047 H       
  66 H66           -0.4638     3.6476    -1.9725 H       
  67 H67           -4.2395     3.5227     1.7713 H       
  68 H68           -3.9835     5.1314     1.0538 H       
  69 H69           -4.4588     3.7617     0.0211 H       
  70 H70            3.7251    -9.1138    -2.5122 H       
  71 H71            3.4164    -7.8626    -4.6119 H       
  72 H72            4.3279    -9.1041    -5.5065 H       
  73 H73            1.7061    -9.5302    -4.0007 H       
  74 H74            1.9041    -9.4787    -5.7691 H       
  75 H75            2.6565   -11.4059    -2.7836 H       
  76 H76            3.5181   -12.6641    -3.7022 H       
  77 H77            5.3235   -11.0689    -4.2315 H       
  78 H78            5.0902   -11.1659    -2.4685 H       
@<TRIPOS>BOND
   1    1    2 1
   2    1   27 1
   3    1   47 1
   4    2    3 ar
   5    2    7 ar
   6    3    4 ar
   7    3   48 1
   8    4    5 ar
   9    4   49 1
  10    5    6 ar
  11    5    8 1
  12    6    7 ar
  13    6   50 1
  14    7   51 1
  15    8    9 1
  16    8   52 1
  17    9   10 ar
  18    9   14 ar
  19   10   11 ar
  20   11   12 ar
  21   11   15 1
  22   12   13 ar
  23   12   18 1
  24   13   14 ar
  25   13   53 1
  26   15   16 am
  27   15   19 1
  28   16   17 1
  29   16   20 2
  30   17   18 2
  31   17   21 1
  32   18   54 1
  33   19   43 1
  34   19   55 1
  35   19   56 1
  36   21   23 ar
  37   21   22 ar
  38   22   34 1
  39   22   26 ar
  40   23   24 ar
  41   23   57 1
  42   24   25 ar
  43   24   58 1
  44   25   26 ar
  45   25   28 1
  46   26   59 1
  47   27   29 1
  48   27   32 1
  49   27   60 1
  50   29   30 1
  51   29   61 1
  52   29   62 1
  53   30   31 1
  54   30   33 1
  55   31   32 1
  56   31   63 1
  57   31   64 1
  58   32   65 1
  59   32   66 1
  60   33   67 1
  61   33   68 1
  62   33   69 1
  63   34   35 1
  64   34   36 2
  65   34   37 2
  66   35   38 1
  67   35   42 1
  68   35   70 1
  69   38   39 1
  70   38   71 1
  71   38   72 1
  72   39   40 1
  73   39   73 1
  74   39   74 1
  75   40   41 1
  76   41   42 1
  77   41   75 1
  78   41   76 1
  79   42   77 1
  80   42   78 1
  81   43   44 1
  82   43   45 1
  83   43   46 1

#	End of record

