#	Name: ASD05430109
#	Creating user name:	WinNT
#	Creation time:	15. 06. 2019 20:59

#	Modifying user name:	WinNT
#	Modification time:	15. 06. 2019 20:59

#	Program:	/corina/corina34_cracker 3.40 0067  02.08.2006

@<TRIPOS>MOLECULE
ASD05430109
  66   72    0    0    0
SMALL
NO_CHARGES


@<TRIPOS>ATOM
   1 F1             7.6684     6.9257    -3.9633 F       
   2 C2             0.1948     1.1471    -1.0703 C.ar    
   3 C3             0.0178    -0.0112    -0.3118 C.ar    
   4 C4             1.0283    -0.4570     0.5262 C.ar    
   5 C5             2.2207     0.2337     0.6240 C.ar    
   6 C6             2.4235     1.3944    -0.1233 C.ar    
   7 C7             1.4001     1.8563    -0.9802 C.ar    
   8 C8             4.9003    -0.0455    -0.0818 C.3     
   9 C9             4.8562     1.4559     0.0691 C.2     
  10 C10            3.6898     2.1297    -0.0194 C.2     
  11 C11            6.3210    -0.5189    -0.4028 C.3     
  12 C12            7.0739     0.5217    -1.2419 C.3     
  13 N13            7.2151     1.7515    -0.4628 N.pl3   
  14 C14            6.1212     2.1617     0.3155 C.2     
  15 C15            8.2259     3.7363    -1.4213 C.ar    
  16 C16            9.2511     4.1424    -2.2551 C.ar    
  17 C17            9.0650     5.2129    -3.1090 C.ar    
  18 C18            7.8512     5.8788    -3.1293 C.ar    
  19 C19            6.8252     5.4712    -2.2937 C.ar    
  20 C20            7.0135     4.4003    -1.4407 C.ar    
  21 N21           -1.1853    -0.7254    -0.3971 N.pl3   
  22 C22           -1.3196    -2.0732    -0.6085 C.2     
  23 C23           -2.6403    -2.3367    -0.6194 C.2     
  24 N24           -3.2986    -1.1852    -0.4205 N.2     
  25 C25           -2.4380    -0.2137    -0.2801 C.2     
  26 C26           -3.2696    -3.6911    -0.8206 C.3     
  27 C27            1.2779     3.0016    -1.8803 C.2     
  28 N28            0.1029     2.9406    -2.4308 N.2     
  29 O29           -0.5867     1.8028    -1.9529 O.3     
  30 C30            8.4279     2.5648    -0.4950 C.3     
  31 C31            8.7202     3.0742     0.9211 C.3     
  32 N32            7.4996     3.6403     1.5000 N.pl3   
  33 N33            6.2466     3.0845     1.2138 N.2     
  34 C34            7.0809    -0.7132     0.9235 C.3     
  35 S35            7.6308    -2.4600     0.9229 S.o2    
  36 C36            7.4878    -2.6831    -0.8960 C.3     
  37 C37            6.2351    -1.8246    -1.2047 C.3     
  38 O38            8.9974    -2.5300     1.3061 O.2     
  39 O39            6.6618    -3.2654     1.5799 O.2     
  40 H40            0.8816    -1.3541     1.1094 H       
  41 H41            2.9984    -0.1258     1.2815 H       
  42 H42            4.5693    -0.5092     0.8475 H       
  43 H43            4.2317    -0.3447    -0.8889 H       
  44 H44            3.6883     3.2097    -0.0137 H       
  45 H45            8.0611     0.1376    -1.4990 H       
  46 H46            6.5135     0.7298    -2.1533 H       
  47 H47           10.1979     3.6230    -2.2388 H       
  48 H48            9.8662     5.5302    -3.7600 H       
  49 H49            5.8780     5.9898    -2.3087 H       
  50 H50            6.2133     4.0822    -0.7888 H       
  51 H51           -0.5198    -2.7867    -0.7413 H       
  52 H52           -2.6815     0.8242    -0.1077 H       
  53 H53           -3.3973    -4.1796     0.1454 H       
  54 H54           -4.2417    -3.5726    -1.2992 H       
  55 H55           -2.6249    -4.3008    -1.4537 H       
  56 H56            2.0271     3.7596    -2.0555 H       
  57 H57            9.2642     1.9598    -0.8453 H       
  58 H58            9.0658     2.2466     1.5406 H       
  59 H59            9.4921     3.8426     0.8785 H       
  60 H60            7.5600     4.4091     2.0885 H       
  61 H61            7.9425    -0.0468     0.9654 H       
  62 H62            6.4180    -0.5270     1.7685 H       
  63 H63            8.3668    -2.2931    -1.4094 H       
  64 H64            7.3189    -3.7293    -1.1508 H       
  65 H65            5.3367    -2.3716    -0.9186 H       
  66 H66            6.1997    -1.5983    -2.2703 H       
@<TRIPOS>BOND
   1    1   18 1
   2    2    3 ar
   3    2    7 ar
   4    2   29 1
   5    3    4 ar
   6    3   21 1
   7    4    5 ar
   8    4   40 1
   9    5    6 ar
  10    5   41 1
  11    6    7 ar
  12    6   10 1
  13    7   27 1
  14    8    9 1
  15    8   11 1
  16    8   42 1
  17    8   43 1
  18    9   10 2
  19    9   14 1
  20   10   44 1
  21   11   12 1
  22   11   34 1
  23   11   37 1
  24   12   13 1
  25   12   45 1
  26   12   46 1
  27   13   14 1
  28   13   30 1
  29   14   33 2
  30   15   16 ar
  31   15   20 ar
  32   15   30 1
  33   16   17 ar
  34   16   47 1
  35   17   18 ar
  36   17   48 1
  37   18   19 ar
  38   19   20 ar
  39   19   49 1
  40   20   50 1
  41   21   22 1
  42   21   25 1
  43   22   23 2
  44   22   51 1
  45   23   24 1
  46   23   26 1
  47   24   25 2
  48   25   52 1
  49   26   53 1
  50   26   54 1
  51   26   55 1
  52   27   28 2
  53   27   56 1
  54   28   29 1
  55   30   31 1
  56   30   57 1
  57   31   32 1
  58   31   58 1
  59   31   59 1
  60   32   33 1
  61   32   60 1
  62   34   35 1
  63   34   61 1
  64   34   62 1
  65   35   36 1
  66   35   38 2
  67   35   39 2
  68   36   37 1
  69   36   63 1
  70   36   64 1
  71   37   65 1
  72   37   66 1

#	End of record

