#	Name: ASD01912957
#	Creating user name:	WinNT
#	Creation time:	15. 06. 2019 20:00

#	Modifying user name:	WinNT
#	Modification time:	15. 06. 2019 20:00

#	Program:	/corina/corina34_cracker 3.40 0067  02.08.2006

@<TRIPOS>MOLECULE
ASD01912957
  32   34    0    0    0
SMALL
NO_CHARGES


@<TRIPOS>ATOM
   1 C1            -0.0173     1.4278     0.0099 C.2     
   2 C2             0.0021    -0.0041     0.0020 C.1     
   3 C3             0.0180    -1.1779    -0.0044 C.1     
   4 C4             0.0374    -2.6098    -0.0123 C.ar    
   5 C5            -1.1619    -3.3285    -0.0047 C.ar    
   6 C6             1.2551    -3.2952    -0.0334 C.ar    
   7 C7             1.2654    -4.6767    -0.0408 C.ar    
   8 C8             0.0719    -5.3810    -0.0274 C.ar    
   9 C9            -1.1366    -4.7072    -0.0123 C.ar    
  10 N10            1.0328     2.1983     0.0040 N.2     
  11 C11            0.8394     3.5026     0.0126 C.2     
  12 C12           -0.4602     3.8733     0.0279 C.2     
  13 S13           -1.4651     2.4306     0.0214 S.3     
  14 C14            1.9607     4.5350     0.0050 C.3     
  15 C15            1.3647     5.8847    -0.4051 C.3     
  16 N16            0.1827     6.1731     0.4194 N.3     
  17 C17           -0.9438     5.3040     0.0428 C.3     
  18 F18            2.4409    -5.3421    -0.0617 F       
  19 C19           -0.1917     7.5905     0.3253 C.3     
  20 H20           -2.1064    -2.8049     0.0074 H       
  21 H21            2.1853    -2.7466    -0.0442 H       
  22 H22            0.0850    -6.4609    -0.0333 H       
  23 H23           -2.0628    -5.2627    -0.0019 H       
  24 H24            2.3960     4.6126     1.0012 H       
  25 H25            2.7281     4.2393    -0.7104 H       
  26 H26            2.1081     6.6687    -0.2604 H       
  27 H27            1.0749     5.8495    -1.4552 H       
  28 H28           -1.3034     5.5794    -0.9486 H       
  29 H29           -1.7483     5.4112     0.7704 H       
  30 H30           -0.4198     7.8380    -0.7114 H       
  31 H31           -1.0690     7.7764     0.9448 H       
  32 H32            0.6361     8.2087     0.6728 H       
@<TRIPOS>BOND
   1    1    2 1
   2    1   10 2
   3    1   13 1
   4    2    3 3
   5    3    4 1
   6    4    5 ar
   7    4    6 ar
   8    5    9 ar
   9    5   20 1
  10    6    7 ar
  11    6   21 1
  12    7    8 ar
  13    7   18 1
  14    8    9 ar
  15    8   22 1
  16    9   23 1
  17   10   11 1
  18   11   12 2
  19   11   14 1
  20   12   13 1
  21   12   17 1
  22   14   15 1
  23   14   24 1
  24   14   25 1
  25   15   16 1
  26   15   26 1
  27   15   27 1
  28   16   17 1
  29   16   19 1
  30   17   28 1
  31   17   29 1
  32   19   30 1
  33   19   31 1
  34   19   32 1

#	End of record

