#	Name: ASD01810227
#	Creating user name:	WinNT
#	Creation time:	15. 06. 2019 19:24

#	Modifying user name:	WinNT
#	Modification time:	15. 06. 2019 19:24

#	Program:	/corina/corina34_cracker 3.40 0067  02.08.2006

@<TRIPOS>MOLECULE
ASD01810227
  40   43    0    0    0
SMALL
NO_CHARGES


@<TRIPOS>ATOM
   1 C1            -0.0169     1.3838    -0.0452 C.ar    
   2 C2             0.0020    -0.0038    -0.0523 C.ar    
   3 C3             1.1973    -0.6918    -0.0489 C.ar    
   4 C4             2.4035     0.0088    -0.0386 C.ar    
   5 C5             2.3796     1.4130    -0.0320 C.ar    
   6 C6             1.1623     2.0949    -0.0350 C.ar    
   7 N7             3.6055    -0.6664    -0.0346 N.pl3   
   8 C8             4.7891    -0.0407    -0.0245 C.2     
   9 C9             4.8932     1.3358    -0.0168 C.2     
  10 C10            3.6618     2.1419    -0.0212 C.2     
  11 O11            3.6999     3.3598    -0.0151 O.2     
  12 C12            6.2115     1.9855    -0.0043 C.2     
  13 O13            6.3000     3.3306     0.0032 O.3     
  14 O14            7.2221     1.3098    -0.0007 O.2     
  15 C15            3.5869    -2.1313    -0.0413 C.3     
  16 C16            3.4437    -2.6254    -1.4578 C.ar    
  17 N17            2.2413    -2.7295    -1.9901 N.ar    
  18 C18            2.0611    -3.1553    -3.2233 C.ar    
  19 C19            3.1516    -3.5146    -4.0164 C.ar    
  20 C20            4.4404    -3.4147    -3.4791 C.ar    
  21 C21            4.5758    -2.9569    -2.1805 C.ar    
  22 C22            2.9492    -3.9929    -5.4005 C.2     
  23 F23            1.1999    -2.0428    -0.0549 F       
  24 C24            1.7550    -4.1261    -6.0112 C.2     
  25 C25            1.8194    -4.5915    -7.3084 C.2     
  26 C26            3.0522    -4.8387    -7.7605 C.2     
  27 S27            4.2300    -4.4693    -6.5079 S.3     
  28 H28           -0.9608     1.9085    -0.0522 H       
  29 H29           -0.9293    -0.5508    -0.0602 H       
  30 H30            1.1450     3.1747    -0.0303 H       
  31 H31            5.6924    -0.6326    -0.0219 H       
  32 H32            7.1886     3.7120     0.0113 H       
  33 H33            4.5175    -2.5084     0.3827 H       
  34 H34            2.7459    -2.4866     0.5542 H       
  35 H35            1.0608    -3.2274    -3.6241 H       
  36 H36            5.3069    -3.6846    -4.0644 H       
  37 H37            5.5546    -2.8666    -1.7331 H       
  38 H38            0.8214    -3.8876    -5.5235 H       
  39 H39            0.9383    -4.7450    -7.9137 H       
  40 H40            3.2899    -5.2062    -8.7478 H       
@<TRIPOS>BOND
   1    1    2 ar
   2    1    6 ar
   3    1   28 1
   4    2    3 ar
   5    2   29 1
   6    3    4 ar
   7    3   23 1
   8    4    5 ar
   9    4    7 1
  10    5    6 ar
  11    5   10 1
  12    6   30 1
  13    7    8 1
  14    7   15 1
  15    8    9 2
  16    8   31 1
  17    9   10 1
  18    9   12 1
  19   10   11 2
  20   12   13 1
  21   12   14 2
  22   13   32 1
  23   15   16 1
  24   15   33 1
  25   15   34 1
  26   16   17 ar
  27   16   21 ar
  28   17   18 ar
  29   18   19 ar
  30   18   35 1
  31   19   20 ar
  32   19   22 1
  33   20   21 ar
  34   20   36 1
  35   21   37 1
  36   22   24 2
  37   22   27 1
  38   24   25 1
  39   24   38 1
  40   25   26 2
  41   25   39 1
  42   26   27 1
  43   26   40 1

#	End of record

