#	Name: ASD09740022
#	Creating user name:	WinNT
#	Creation time:	15. 06. 2019 21:22

#	Modifying user name:	WinNT
#	Modification time:	15. 06. 2019 21:22

#	Program:	/corina/corina34_cracker 3.40 0067  02.08.2006

@<TRIPOS>MOLECULE
ASD09740022
  51   54    0    0    0
SMALL
NO_CHARGES


@<TRIPOS>ATOM
   1 O1             0.2433     1.0600    -0.0657 O.3     
   2 N2             0.3498    -0.1466    -0.0081 N.2     
   3 C3             1.4524     1.6316     0.0484 C.2     
   4 N4             2.3276     0.6525     0.1837 N.2     
   5 C5             1.6042    -0.4858     0.1455 C.2     
   6 C6             2.1338    -1.8680     0.2573 C.ar    
   7 C7             1.7474     3.0790     0.0263 C.ar    
   8 C8             3.0642     3.5259     0.1567 C.ar    
   9 C9             3.3381     4.8752     0.1361 C.ar    
  10 C10            2.3009     5.7955    -0.0146 C.ar    
  11 C11            0.9851     5.3502    -0.1445 C.ar    
  12 C12            0.7100     4.0015    -0.1308 C.ar    
  13 C13            1.2655    -2.9560     0.2010 C.ar    
  14 C14            3.5015    -2.0822     0.4131 C.ar    
  15 C15            3.9886    -3.3695     0.5166 C.ar    
  16 C16            3.1214    -4.4458     0.4658 C.ar    
  17 C17            1.7632    -4.2391     0.3054 C.ar    
  18 C18            3.6590    -5.8491     0.5793 C.3     
  19 N19            3.6855    -6.2506     1.9921 N.3     
  20 C20            2.3247    -6.3526     2.5359 C.3     
  21 C21            4.4184    -7.5115     2.1674 C.3     
  22 C22            2.5969     7.2483    -0.0363 C.ar    
  23 C23            2.0078     8.0964     0.9002 C.ar    
  24 C24            2.2870     9.4477     0.8752 C.ar    
  25 C25            3.1495     9.9610    -0.0767 C.ar    
  26 C26            3.7367     9.1242    -1.0088 C.ar    
  27 C27            3.4698     7.7704    -0.9895 C.ar    
  28 C28           -0.1345     6.3457    -0.3068 C.3     
  29 F29           -1.3278     5.6661    -0.5738 F       
  30 F30           -0.2737     7.0871     0.8714 F       
  31 F31            0.1586     7.2082    -1.3686 F       
  32 H32            3.8674     2.8134     0.2741 H       
  33 H33            4.3562     5.2210     0.2369 H       
  34 H34           -0.3086     3.6569    -0.2314 H       
  35 H35            0.2047    -2.7957     0.0761 H       
  36 H36            4.1796    -1.2424     0.4525 H       
  37 H37            5.0488    -3.5366     0.6370 H       
  38 H38            1.0904    -5.0831     0.2668 H       
  39 H39            3.0177    -6.5302     0.0199 H       
  40 H40            4.6696    -5.8850     0.1723 H       
  41 H41            1.7627    -7.0968     1.9716 H       
  42 H42            2.3733    -6.6513     3.5831 H       
  43 H43            1.8282    -5.3855     2.4567 H       
  44 H44            5.4441    -7.3869     1.8203 H       
  45 H45            4.4227    -7.7856     3.2224 H       
  46 H46            3.9323    -8.2977     1.5897 H       
  47 H47            1.3340     7.6968     1.6436 H       
  48 H48            1.8308    10.1057     1.6000 H       
  49 H49            3.3651    11.0191    -0.0925 H       
  50 H50            4.4088     9.5306    -1.7501 H       
  51 H51            3.9288     7.1181    -1.7177 H       
@<TRIPOS>BOND
   1    1    2 1
   2    1    3 1
   3    2    5 2
   4    3    4 2
   5    3    7 1
   6    4    5 1
   7    5    6 1
   8    6   13 ar
   9    6   14 ar
  10    7    8 ar
  11    7   12 ar
  12    8    9 ar
  13    8   32 1
  14    9   10 ar
  15    9   33 1
  16   10   11 ar
  17   10   22 1
  18   11   12 ar
  19   11   28 1
  20   12   34 1
  21   13   17 ar
  22   13   35 1
  23   14   15 ar
  24   14   36 1
  25   15   16 ar
  26   15   37 1
  27   16   17 ar
  28   16   18 1
  29   17   38 1
  30   18   19 1
  31   18   39 1
  32   18   40 1
  33   19   20 1
  34   19   21 1
  35   20   41 1
  36   20   42 1
  37   20   43 1
  38   21   44 1
  39   21   45 1
  40   21   46 1
  41   22   23 ar
  42   22   27 ar
  43   23   24 ar
  44   23   47 1
  45   24   25 ar
  46   24   48 1
  47   25   26 ar
  48   25   49 1
  49   26   27 ar
  50   26   50 1
  51   27   51 1
  52   28   29 1
  53   28   30 1
  54   28   31 1

#	End of record

