#	Name: ASD03731028
#	Creating user name:	WinNT
#	Creation time:	15. 06. 2019 20:45

#	Modifying user name:	WinNT
#	Modification time:	15. 06. 2019 20:45

#	Program:	/corina/corina34_cracker 3.40 0067  02.08.2006

@<TRIPOS>MOLECULE
ASD03731028
  48   53    0    0    0
SMALL
NO_CHARGES


@<TRIPOS>ATOM
   1 O1             0.8980     1.5297    -0.3177 O.3     
   2 C2             1.1146     0.1093    -0.4122 C.3     
   3 O3             2.4107     0.0008    -1.0293 O.3     
   4 C4             3.0747     1.1446    -0.6889 C.ar    
   5 C5             2.1440     2.0846    -0.2525 C.ar    
   6 C6             4.4203     1.4644    -0.7159 C.ar    
   7 C7             4.8540     2.7231    -0.3108 C.ar    
   8 C8             3.9141     3.6566     0.1153 C.ar    
   9 C9             2.5723     3.3386     0.1494 C.ar    
  10 O10            6.1185     3.2296    -0.2443 O.3     
  11 C11            4.6770     4.9092     0.4541 C.3     
  12 C12            6.0518     4.6674    -0.1839 C.3     
  13 N13            3.7764     6.9473     0.9632 N.am    
  14 C14            4.0159     6.1423    -0.0911 C.2     
  15 C15            4.7781     5.1332     1.9337 C.ar    
  16 C16            5.2802     4.3872     2.9766 C.ar    
  17 C17            5.2279     4.8792     4.2686 C.ar    
  18 C18            4.6702     6.1216     4.5098 C.ar    
  19 C19            4.1650     6.8723     3.4688 C.ar    
  20 C20            4.2137     6.3851     2.1649 C.ar    
  21 O21            3.7499     6.3695    -1.2525 O.2     
  22 C22            3.1331     8.2596     0.8606 C.3     
  23 C23            1.6364     8.0850     0.8400 C.ar    
  24 C24            0.9853     7.5572     1.9423 C.ar    
  25 C25           -0.3897     7.3974     1.9219 C.ar    
  26 C26           -1.1110     7.7648     0.8016 C.ar    
  27 C27           -0.4600     8.2911    -0.2983 C.ar    
  28 C28            0.9125     8.4569    -0.2767 C.ar    
  29 C29            1.6200     9.0376    -1.4739 C.3     
  30 F30            0.6751     9.4435    -2.4224 F       
  31 F31            2.3836    10.1398    -1.0750 F       
  32 F32            2.4581     8.0684    -2.0357 F       
  33 F33            1.6914     7.1980     3.0367 F       
  34 H34            1.1233    -0.3435     0.5792 H       
  35 H35            0.3522    -0.3534    -1.0389 H       
  36 H36            5.1390     0.7322    -1.0534 H       
  37 H37            1.8540     4.0697     0.4897 H       
  38 H38            6.8466     5.0658     0.4467 H       
  39 H39            6.0961     5.0994    -1.1836 H       
  40 H40            5.7150     3.4172     2.7859 H       
  41 H41            5.6214     4.2944     5.0869 H       
  42 H42            4.6296     6.5057     5.5184 H       
  43 H43            3.7302     7.8411     3.6654 H       
  44 H44            3.4158     8.8708     1.7177 H       
  45 H45            3.4543     8.7509    -0.0578 H       
  46 H46           -0.8985     6.9855     2.7809 H       
  47 H47           -2.1837     7.6402     0.7854 H       
  48 H48           -1.0244     8.5772    -1.1735 H       
@<TRIPOS>BOND
   1    1    2 1
   2    1    5 1
   3    2    3 1
   4    2   34 1
   5    2   35 1
   6    3    4 1
   7    4    5 ar
   8    4    6 ar
   9    5    9 ar
  10    6    7 ar
  11    6   36 1
  12    7    8 ar
  13    7   10 1
  14    8    9 ar
  15    8   11 1
  16    9   37 1
  17   10   12 1
  18   11   12 1
  19   11   14 1
  20   11   15 1
  21   12   38 1
  22   12   39 1
  23   13   14 am
  24   13   20 1
  25   13   22 1
  26   14   21 2
  27   15   16 ar
  28   15   20 ar
  29   16   17 ar
  30   16   40 1
  31   17   18 ar
  32   17   41 1
  33   18   19 ar
  34   18   42 1
  35   19   20 ar
  36   19   43 1
  37   22   23 1
  38   22   44 1
  39   22   45 1
  40   23   24 ar
  41   23   28 ar
  42   24   25 ar
  43   24   33 1
  44   25   26 ar
  45   25   46 1
  46   26   27 ar
  47   26   47 1
  48   27   28 ar
  49   27   48 1
  50   28   29 1
  51   29   30 1
  52   29   31 1
  53   29   32 1

#	End of record

