#	Name: ASD03330703
#	Creating user name:	WinNT
#	Creation time:	15. 06. 2019 20:37

#	Modifying user name:	WinNT
#	Modification time:	15. 06. 2019 20:37

#	Program:	/corina/corina34_cracker 3.40 0067  02.08.2006

@<TRIPOS>MOLECULE
ASD03330703
  56   57    0    0    0
SMALL
NO_CHARGES


@<TRIPOS>ATOM
   1 C1            -0.3200     2.0848    -1.2113 C.2     
   2 N2            -0.5067     0.7983    -1.5889 N.pl3   
   3 C3             1.0150     2.2513    -1.0072 C.2     
   4 N4             1.6188     1.0652    -1.2816 N.2     
   5 C5             0.7100     0.2006    -1.6342 C.2     
   6 C6             0.9688    -1.2306    -2.0286 C.3     
   7 C7             1.6828     3.4895    -0.5698 C.2     
   8 O8             1.0270     4.4911    -0.3555 O.2     
   9 C9             3.6846     4.7436     0.0279 C.3     
  10 N10            3.0205     3.5123    -0.4071 N.am    
  11 C11            3.6446     4.8326     1.5548 C.3     
  12 C12            4.2470     3.5610     2.1557 C.3     
  13 C13            4.4526     6.0471     2.0162 C.3     
  14 C14            5.1180     4.7325    -0.4372 C.2     
  15 N15            5.7756     5.8944    -0.6218 N.am    
  16 O16            5.6798     3.6780    -0.6455 O.2     
  17 C17           -1.8030     0.1779    -1.8783 C.3     
  18 C18           -2.6096     1.1019    -2.7957 C.3     
  19 C19           -3.4032     2.0978    -1.9559 C.3     
  20 N20           -2.6695     2.4641    -0.7426 N.3     
  21 C21           -1.3981     3.1273    -1.0681 C.3     
  22 C22            7.1294     5.8889    -1.1816 C.3     
  23 C23            2.1941     4.9786     2.0193 C.3     
  24 C24           -3.4924     3.3058     0.1363 C.3     
  25 C25            0.9093    -2.1209    -0.7858 C.3     
  26 H26            0.2115    -1.5531    -2.7432 H       
  27 H27            1.9556    -1.3090    -2.4848 H       
  28 H28            3.1705     5.6043    -0.3998 H       
  29 H29            3.5436     2.7135    -0.5779 H       
  30 H30            5.2804     3.4570     1.8248 H       
  31 H31            4.2185     3.6245     3.2435 H       
  32 H32            3.6714     2.6958     1.8270 H       
  33 H33            4.0016     6.9561     1.6181 H       
  34 H34            4.4548     6.0896     3.1054 H       
  35 H35            5.4770     5.9610     1.6539 H       
  36 H36            5.3525     6.7342    -0.3840 H       
  37 H37           -1.6458    -0.7803    -2.3736 H       
  38 H38           -2.3483     0.0225    -0.9474 H       
  39 H39           -1.9296     1.6432    -3.4535 H       
  40 H40           -3.2966     0.5062    -3.3968 H       
  41 H41           -3.5896     2.9951    -2.5460 H       
  42 H42           -4.3568     1.6501    -1.6760 H       
  43 H43           -1.1326     3.8186    -0.2682 H       
  44 H44           -1.5022     3.6749    -2.0047 H       
  45 H45            7.1107     5.4365    -2.1731 H       
  46 H46            7.4958     6.9128    -1.2563 H       
  47 H47            7.7889     5.3134    -0.5320 H       
  48 H48            1.6185     4.1133     1.6906 H       
  49 H49            2.1656     5.0420     3.1071 H       
  50 H50            1.7649     5.8844     1.5912 H       
  51 H51           -4.4241     2.7889     0.3662 H       
  52 H52           -2.9500     3.5052     1.0605 H       
  53 H53           -3.7137     4.2477    -0.3656 H       
  54 H54            1.0964    -3.1561    -1.0711 H       
  55 H55            1.6666    -1.7984    -0.0712 H       
  56 H56           -0.0775    -2.0425    -0.3296 H       
@<TRIPOS>BOND
   1    1    2 1
   2    1    3 2
   3    1   21 1
   4    2   17 1
   5    2    5 1
   6    3    4 1
   7    3    7 1
   8    4    5 2
   9    5    6 1
  10    6   25 1
  11    6   26 1
  12    6   27 1
  13    7    8 2
  14    7   10 am
  15    9   10 1
  16    9   11 1
  17    9   14 1
  18    9   28 1
  19   10   29 1
  20   11   12 1
  21   11   13 1
  22   11   23 1
  23   12   30 1
  24   12   31 1
  25   12   32 1
  26   13   33 1
  27   13   34 1
  28   13   35 1
  29   14   15 am
  30   14   16 2
  31   15   22 1
  32   15   36 1
  33   17   18 1
  34   17   37 1
  35   17   38 1
  36   18   19 1
  37   18   39 1
  38   18   40 1
  39   19   20 1
  40   19   41 1
  41   19   42 1
  42   20   21 1
  43   20   24 1
  44   21   43 1
  45   21   44 1
  46   22   45 1
  47   22   46 1
  48   22   47 1
  49   23   48 1
  50   23   49 1
  51   23   50 1
  52   24   51 1
  53   24   52 1
  54   24   53 1
  55   25   54 1
  56   25   55 1
  57   25   56 1

#	End of record

