#	Name: ASD05430328
#	Creating user name:	WinNT
#	Creation time:	15. 06. 2019 21:00

#	Modifying user name:	WinNT
#	Modification time:	15. 06. 2019 21:00

#	Program:	/corina/corina34_cracker 3.40 0067  02.08.2006

@<TRIPOS>MOLECULE
ASD05430328
  58   63    0    0    0
SMALL
NO_CHARGES


@<TRIPOS>ATOM
   1 N1            -0.0178     1.4613     0.0101 N.pl3   
   2 C2             1.1819     2.2962     0.0031 C.3     
   3 O3             0.7092     3.6012     0.3506 O.3     
   4 N4            -0.7065     3.5366     0.2726 N.2     
   5 C5            -1.1021     2.3126     0.0692 C.2     
   6 C6            -2.5028     1.8973    -0.0761 C.2     
   7 C7            -3.4871     2.8121    -0.0007 C.2     
   8 C8            -4.8916     2.3957    -0.1463 C.ar    
   9 C9            -5.2049     1.0500    -0.3632 C.ar    
  10 C10           -5.9158     3.3438    -0.0625 C.ar    
  11 C11           -7.2327     2.9474    -0.1995 C.ar    
  12 C12           -7.5373     1.6047    -0.4208 C.ar    
  13 C13           -6.5201     0.6621    -0.4988 C.ar    
  14 N14           -8.8732     1.2045    -0.5590 N.pl3   
  15 C15           -9.8992     1.5137     0.2757 C.2     
  16 N16          -10.9892     0.9612    -0.1830 N.2     
  17 C17          -10.7069     0.2892    -1.3089 C.2     
  18 C18           -9.3926     0.4321    -1.5655 C.2     
  19 O19           -8.2312     3.8665    -0.1180 O.3     
  20 C20           -7.8466     5.2237     0.1106 C.3     
  21 C21          -11.6913    -0.4871    -2.1452 C.3     
  22 C22            0.0021    -0.0041     0.0020 C.3     
  23 C23            0.9286    -0.4315     1.1449 C.3     
  24 C24            2.2668     0.2656     1.0687 C.3     
  25 C25            2.2245     1.7787     0.9993 C.3     
  26 C26            3.5499     2.2611     0.3420 C.3     
  27 C27            3.2476     2.3005    -1.1304 C.ar    
  28 C28            1.8665     2.3160    -1.3276 C.ar    
  29 C29            4.1271     2.3196    -2.2005 C.ar    
  30 C30            3.5747     2.3515    -3.4761 C.ar    
  31 C31            2.2067     2.3641    -3.6702 C.ar    
  32 C32            1.3217     2.3463    -2.6013 C.ar    
  33 F33            4.3941     2.3710    -4.5501 F       
  34 F34          -12.2469     0.3557    -3.1138 F       
  35 H35           -2.7433     0.8579    -0.2435 H       
  36 H36           -3.2466     3.8516     0.1668 H       
  37 H37           -4.4160     0.3150    -0.4247 H       
  38 H38           -5.6784     4.3833     0.1093 H       
  39 H39           -6.7603    -0.3767    -0.6707 H       
  40 H40           -9.8254     2.1154     1.1695 H       
  41 H41           -8.8504     0.0128    -2.4001 H       
  42 H42           -8.7368     5.8511     0.1540 H       
  43 H43           -7.3061     5.2941     1.0545 H       
  44 H44           -7.2036     5.5610    -0.7024 H       
  45 H45          -11.1786    -1.3150    -2.6349 H       
  46 H46          -12.4831    -0.8773    -1.5057 H       
  47 H47           -1.0024    -0.3924     0.1701 H       
  48 H48            0.3902    -0.3674    -0.9496 H       
  49 H49            0.4550    -0.1890     2.0962 H       
  50 H50            1.0854    -1.5089     1.0916 H       
  51 H51            2.8485    -0.0184     1.9456 H       
  52 H52            2.7912    -0.1007     0.1862 H       
  53 H53            2.0762     2.2136     1.9877 H       
  54 H54            3.8137     3.2552     0.7030 H       
  55 H55            4.3548     1.5551     0.5464 H       
  56 H56            5.1965     2.3105    -2.0503 H       
  57 H57            1.8171     2.3884    -4.6772 H       
  58 H58            0.2529     2.3564    -2.7558 H       
@<TRIPOS>BOND
   1    1   22 1
   2    1    2 1
   3    1    5 1
   4    2    3 1
   5    2   25 1
   6    2   28 1
   7    3    4 1
   8    4    5 2
   9    5    6 1
  10    6    7 2
  11    6   35 1
  12    7    8 1
  13    7   36 1
  14    8    9 ar
  15    8   10 ar
  16    9   13 ar
  17    9   37 1
  18   10   11 ar
  19   10   38 1
  20   11   12 ar
  21   11   19 1
  22   12   13 ar
  23   12   14 1
  24   13   39 1
  25   14   15 1
  26   14   18 1
  27   15   16 2
  28   15   40 1
  29   16   17 1
  30   17   18 2
  31   17   21 1
  32   18   41 1
  33   19   20 1
  34   20   42 1
  35   20   43 1
  36   20   44 1
  37   21   34 1
  38   21   45 1
  39   21   46 1
  40   22   23 1
  41   22   47 1
  42   22   48 1
  43   23   24 1
  44   23   49 1
  45   23   50 1
  46   24   25 1
  47   24   51 1
  48   24   52 1
  49   25   26 1
  50   25   53 1
  51   26   27 1
  52   26   54 1
  53   26   55 1
  54   27   28 ar
  55   27   29 ar
  56   28   32 ar
  57   29   30 ar
  58   29   56 1
  59   30   31 ar
  60   30   33 1
  61   31   32 ar
  62   31   57 1
  63   32   58 1

#	End of record

