#	Name: ASD07930758
#	Creating user name:	WinNT
#	Creation time:	15. 06. 2019 21:13

#	Modifying user name:	WinNT
#	Modification time:	15. 06. 2019 21:13

#	Program:	/corina/corina34_cracker 3.40 0067  02.08.2006

@<TRIPOS>MOLECULE
ASD07930758
  47   50    0    0    0
SMALL
NO_CHARGES


@<TRIPOS>ATOM
   1 C1             2.9695    -1.1760    -1.4923 C.3     
   2 N2             2.4557    -3.0909     0.7393 N.2     
   3 N3             0.4222    -3.4511    -0.3546 N.pl3   
   4 C4            -0.9005    -2.8248    -0.2586 C.3     
   5 C5            -0.9805    -1.6568    -1.2513 C.3     
   6 S6             0.3853    -0.5078    -0.8926 S.o2    
   7 N7             1.7085    -1.5187    -0.8302 N.am    
   8 C8             1.5567    -2.7014    -0.1204 C.2     
   9 C9            -1.1166    -2.3027     1.1632 C.3     
  10 O10            0.6358     0.3407    -2.0046 O.2     
  11 O11            0.2722     0.0147     0.4240 O.2     
  12 C12           -1.9634    -3.8404    -0.5898 C.ar    
  13 C13           -2.7980    -3.6365    -1.6683 C.ar    
  14 C14           -3.7819    -4.5783    -1.9742 C.ar    
  15 C15           -3.9152    -5.7221    -1.1857 C.ar    
  16 C16           -3.0751    -5.9162    -0.1091 C.ar    
  17 C17           -2.0967    -4.9807     0.1869 C.ar    
  18 F18           -1.2764    -5.1757     1.2425 F       
  19 C19           -4.6799    -4.3647    -3.1292 C.2     
  20 N20           -5.6820    -5.2190    -3.5264 N.pl3   
  21 C21           -6.3035    -4.6881    -4.6382 C.ar    
  22 C22           -5.6620    -3.4682    -4.9332 C.ar    
  23 C23           -4.6484    -3.2923    -3.9600 C.2     
  24 C24           -7.3538    -5.1201    -5.4333 C.ar    
  25 C25           -7.7645    -4.3442    -6.5158 C.ar    
  26 C26           -7.1200    -3.1313    -6.8015 C.ar    
  27 C27           -6.0882    -2.6995    -6.0258 C.ar    
  28 C28           -8.8487    -4.7870    -7.3399 C.1     
  29 N29           -9.7088    -5.1382    -7.9936 N.1     
  30 H30            3.6027    -0.6188    -0.8019 H       
  31 H31            3.4801    -2.0896    -1.7967 H       
  32 H32            2.7641    -0.5645    -2.3710 H       
  33 H33            3.2471    -2.5511     0.8916 H       
  34 H34            0.4992    -4.3918    -0.5784 H       
  35 H35           -0.8861    -2.0331    -2.2699 H       
  36 H36           -1.9340    -1.1415    -1.1363 H       
  37 H37           -0.3484    -1.5668     1.4007 H       
  38 H38           -2.0997    -1.8373     1.2338 H       
  39 H39           -1.0557    -3.1319     1.8679 H       
  40 H40           -2.6908    -2.7495    -2.2751 H       
  41 H41           -4.6750    -6.4537    -1.4178 H       
  42 H42           -3.1774    -6.8010     0.5018 H       
  43 H43           -5.9136    -6.0568    -3.0960 H       
  44 H44           -3.9670    -2.4569    -3.8949 H       
  45 H45           -7.8510    -6.0537    -5.2152 H       
  46 H46           -7.4447    -2.5362    -7.6423 H       
  47 H47           -5.5973    -1.7645    -6.2521 H       
@<TRIPOS>BOND
   1    1    7 1
   2    1   30 1
   3    1   31 1
   4    1   32 1
   5    2    8 2
   6    2   33 1
   7    3    4 1
   8    3    8 1
   9    3   34 1
  10    4    5 1
  11    4    9 1
  12    4   12 1
  13    5    6 1
  14    5   35 1
  15    5   36 1
  16    6    7 am
  17    6   10 2
  18    6   11 2
  19    7    8 1
  20    9   37 1
  21    9   38 1
  22    9   39 1
  23   12   13 ar
  24   12   17 ar
  25   13   14 ar
  26   13   40 1
  27   14   15 ar
  28   14   19 1
  29   15   16 ar
  30   15   41 1
  31   16   17 ar
  32   16   42 1
  33   17   18 1
  34   19   20 1
  35   19   23 2
  36   20   21 1
  37   20   43 1
  38   21   22 ar
  39   21   24 ar
  40   22   23 1
  41   22   27 ar
  42   23   44 1
  43   24   25 ar
  44   24   45 1
  45   25   26 ar
  46   25   28 1
  47   26   27 ar
  48   26   46 1
  49   27   47 1
  50   28   29 3

#	End of record

