#	Name: ASD04882333
#	Creating user name:	WinNT
#	Creation time:	15. 06. 2019 20:54

#	Modifying user name:	WinNT
#	Modification time:	15. 06. 2019 20:54

#	Program:	/corina/corina34_cracker 3.40 0067  02.08.2006

@<TRIPOS>MOLECULE
ASD04882333
  79   83    0    0    0
SMALL
NO_CHARGES


@<TRIPOS>ATOM
   1 N1            -0.0169     1.3970     0.0097 N.am    
   2 C2             0.1099     0.0022    -0.0341 C.ar    
   3 C3            -1.0272    -0.8063     0.0457 C.ar    
   4 C4            -0.9028    -2.1903     0.0029 C.ar    
   5 C5             0.3407    -2.7695    -0.1187 C.ar    
   6 C6             1.4820    -1.9668    -0.1994 C.ar    
   7 C7             1.3592    -0.5749    -0.1619 C.ar    
   8 N8            -2.2865    -0.2249     0.1687 N.3     
   9 C9            -3.1523    -0.6003    -0.9578 C.3     
  10 C10           -2.9095    -0.5840     1.4504 C.3     
  11 C11           -4.2534     0.1367     1.5810 C.3     
  12 N12           -5.1191    -0.2388     0.4544 N.3     
  13 C13           -4.4962     0.1203    -0.8273 C.3     
  14 C14            2.8141    -2.5875    -0.3291 C.2     
  15 O15            3.8064    -1.8883    -0.3993 O.2     
  16 C16            0.9209     2.1773    -0.5631 C.2     
  17 C17            0.7438     3.6387    -0.5946 C.2     
  18 O18            1.9137     1.6742    -1.0541 O.2     
  19 N19            2.9310    -3.9296    -0.3699 N.am    
  20 N20           -0.3201     4.2567    -0.0749 N.2     
  21 C21           -0.3291     5.5388    -0.1806 C.2     
  22 S22            1.0755     6.0842    -0.9843 S.3     
  23 C23            1.6457     4.4810    -1.1474 C.2     
  24 C24            4.2538    -4.5460    -0.4987 C.3     
  25 C25            4.1068    -6.0688    -0.5206 C.3     
  26 C26           -6.3823     0.3444     0.5778 C.ar    
  27 C27           -6.5094     1.7268     0.6212 C.ar    
  28 C28           -7.5149    -0.4568     0.6516 C.ar    
  29 C29           -8.7621     0.1230     0.7735 C.ar    
  30 C30           -8.8847     1.4998     0.8218 C.ar    
  31 C31           -7.7601     2.3003     0.7434 C.ar    
  32 C32           -7.3824    -1.9571     0.5980 C.3     
  33 N33            5.3476    -8.1706    -0.6762 N.am    
  34 C34            5.4883    -6.7125    -0.6551 C.3     
  35 C35           -1.4268     6.4347     0.3326 C.3     
  36 C36          -10.2476     2.1290     0.9540 C.3     
  37 C37            5.1793    -8.9003    -1.7924 C.2     
  38 C38            5.0605   -10.3672    -1.4421 C.3     
  39 C39            4.7652   -10.3719     0.0758 C.3     
  40 C40            5.3785    -9.0228     0.5183 C.3     
  41 O41            5.1296    -8.4485    -2.9168 O.2     
  42 H42           -0.7818     1.8009     0.4488 H       
  43 H43           -1.7833    -2.8126     0.0655 H       
  44 H44            0.4341    -3.8450    -0.1513 H       
  45 H45            2.2393     0.0479    -0.2241 H       
  46 H46           -2.6751    -0.3129    -1.8947 H       
  47 H47           -3.3151    -1.6781    -0.9479 H       
  48 H48           -3.0695    -1.6615     1.4876 H       
  49 H49           -2.2553    -0.2846     2.2692 H       
  50 H50           -4.7306    -0.1507     2.5178 H       
  51 H51           -4.0906     1.2144     1.5710 H       
  52 H52           -4.3361     1.1979    -0.8645 H       
  53 H53           -5.1504    -0.1790    -1.6461 H       
  54 H54            2.1394    -4.4873    -0.3139 H       
  55 H55            2.5722     4.1883    -1.6189 H       
  56 H56            4.7213    -4.2127    -1.4252 H       
  57 H57            4.8751    -4.2531     0.3476 H       
  58 H58            3.6393    -6.4021     0.4059 H       
  59 H59            3.4855    -6.3617    -1.3669 H       
  60 H60           -5.6314     2.3526     0.5600 H       
  61 H61           -9.6429    -0.4993     0.8310 H       
  62 H62           -7.8593     3.3750     0.7814 H       
  63 H63           -7.2633    -2.3476     1.6087 H       
  64 H64           -8.2773    -2.3849     0.1462 H       
  65 H65           -6.5107    -2.2237     0.0005 H       
  66 H66            5.9558    -6.3792    -1.5817 H       
  67 H67            6.1096    -6.4196     0.1912 H       
  68 H68           -1.2061     6.7286     1.3588 H       
  69 H69           -1.4925     7.3243    -0.2939 H       
  70 H70           -2.3759     5.8994     0.3041 H       
  71 H71          -10.4900     2.2525     2.0095 H       
  72 H72          -10.2470     3.1031     0.4650 H       
  73 H73          -10.9917     1.4865     0.4831 H       
  74 H74            4.2384   -10.8254    -1.9920 H       
  75 H75            5.9961   -10.8862    -1.6503 H       
  76 H76            3.6919   -10.3975     0.2643 H       
  77 H77            5.2662   -11.2054     0.5681 H       
  78 H78            6.4037    -9.1682     0.8589 H       
  79 H79            4.7769    -8.5766     1.3102 H       
@<TRIPOS>BOND
   1    1    2 1
   2    1   16 am
   3    1   42 1
   4    2    3 ar
   5    2    7 ar
   6    3    4 ar
   7    3    8 1
   8    4    5 ar
   9    4   43 1
  10    5    6 ar
  11    5   44 1
  12    6    7 ar
  13    6   14 1
  14    7   45 1
  15    8    9 1
  16    8   10 1
  17    9   13 1
  18    9   46 1
  19    9   47 1
  20   10   11 1
  21   10   48 1
  22   10   49 1
  23   11   12 1
  24   11   50 1
  25   11   51 1
  26   12   13 1
  27   12   26 1
  28   13   52 1
  29   13   53 1
  30   14   15 2
  31   14   19 am
  32   16   18 2
  33   16   17 1
  34   17   20 1
  35   17   23 2
  36   19   24 1
  37   19   54 1
  38   20   21 2
  39   21   22 1
  40   21   35 1
  41   22   23 1
  42   23   55 1
  43   24   25 1
  44   24   56 1
  45   24   57 1
  46   25   34 1
  47   25   58 1
  48   25   59 1
  49   26   27 ar
  50   26   28 ar
  51   27   31 ar
  52   27   60 1
  53   28   29 ar
  54   28   32 1
  55   29   30 ar
  56   29   61 1
  57   30   31 ar
  58   30   36 1
  59   31   62 1
  60   32   63 1
  61   32   64 1
  62   32   65 1
  63   33   34 1
  64   33   37 am
  65   33   40 1
  66   34   66 1
  67   34   67 1
  68   35   68 1
  69   35   69 1
  70   35   70 1
  71   36   71 1
  72   36   72 1
  73   36   73 1
  74   37   38 1
  75   37   41 2
  76   38   39 1
  77   38   74 1
  78   38   75 1
  79   39   40 1
  80   39   76 1
  81   39   77 1
  82   40   78 1
  83   40   79 1

#	End of record

