#	Name: ASD01910980
#	Creating user name:	WinNT
#	Creation time:	15. 06. 2019 19:56

#	Modifying user name:	WinNT
#	Modification time:	15. 06. 2019 19:56

#	Program:	/corina/corina34_cracker 3.40 0067  02.08.2006

@<TRIPOS>MOLECULE
ASD01910980
  54   57    0    0    0
SMALL
NO_CHARGES


@<TRIPOS>ATOM
   1 N1             0.2688     1.0632     0.3482 N.3     
   2 C2             0.2364    -0.3056     0.8803 C.3     
   3 C3            -1.2088    -0.6830     1.2226 C.3     
   4 N4            -2.0445    -0.4582     0.0335 N.am    
   5 C5            -1.9624     0.8478    -0.6380 C.3     
   6 C6            -0.4876     1.1650    -0.9071 C.3     
   7 C7            -2.8642    -1.4232    -0.4284 C.2     
   8 C8            -3.7895    -1.1351    -1.5423 C.ar    
   9 C9            -3.9893    -2.0851    -2.5489 C.ar    
  10 C10           -4.8516    -1.8216    -3.5910 C.ar    
  11 C11           -5.5280    -0.6116    -3.6499 C.ar    
  12 C12           -5.3351     0.3506    -2.6448 C.ar    
  13 C13           -4.4684     0.0818    -1.5877 C.ar    
  14 C14           -6.0315     1.6004    -2.7032 C.1     
  15 O15           -2.8417    -2.5309     0.0721 O.2     
  16 C16           -6.6024     2.6251    -2.7511 C.1     
  17 C17           -7.2989     3.8750    -2.8095 C.ar    
  18 N18           -7.1109     4.7808    -1.8542 N.ar    
  19 C19           -7.7329     5.9418    -1.8727 C.ar    
  20 C20           -8.6098     6.2623    -2.8926 C.ar    
  21 C21           -8.8363     5.3459    -3.9113 C.ar    
  22 C22           -8.1670     4.1366    -3.8731 C.ar    
  23 C23            1.5782     1.5013     0.1781 C.ar    
  24 C24            1.9113     2.8304     0.4375 C.ar    
  25 C25            3.2291     3.2169     0.2529 C.ar    
  26 C26            4.1363     2.2576    -0.1788 C.ar    
  27 N27            3.7332     1.0214    -0.4002 N.ar    
  28 N28            2.5151     0.6563    -0.2257 N.ar    
  29 O29           -6.3751    -0.3577    -4.6780 O.3     
  30 C30           -6.5227    -1.3807    -5.6648 C.3     
  31 Cl31           5.8002     2.6859    -0.4274 Cl      
  32 C32            0.8705     3.8156     0.9036 C.3     
  33 H33            0.6252    -0.9961     0.1319 H       
  34 H34            0.8496    -0.3607     1.7799 H       
  35 H35           -1.2547    -1.7337     1.5092 H       
  36 H36           -1.5651    -0.0607     2.0436 H       
  37 H37           -2.5067     0.8092    -1.5816 H       
  38 H38           -2.3912     1.6172     0.0041 H       
  39 H39           -0.3995     2.1764    -1.3038 H       
  40 H40           -0.0888     0.4540    -1.6306 H       
  41 H41           -3.4655    -3.0287    -2.5097 H       
  42 H42           -5.0013    -2.5597    -4.3651 H       
  43 H43           -4.3155     0.8171    -0.8117 H       
  44 H44           -7.5558     6.6533    -1.0797 H       
  45 H45           -9.1147     7.2170    -2.8968 H       
  46 H46           -9.5170     5.5747    -4.7180 H       
  47 H47           -8.3195     3.4014    -4.6494 H       
  48 H48            3.5415     4.2339     0.4387 H       
  49 H49           -7.2266    -1.0500    -6.4285 H       
  50 H50           -5.5558    -1.5837    -6.1252 H       
  51 H51           -6.8984    -2.2888    -5.1932 H       
  52 H52            0.7655     3.7482     1.9864 H       
  53 H53            1.1777     4.8251     0.6305 H       
  54 H54           -0.0845     3.5860     0.4309 H       
@<TRIPOS>BOND
   1    1    2 1
   2    1   23 1
   3    1    6 1
   4    2    3 1
   5    2   33 1
   6    2   34 1
   7    3    4 1
   8    3   35 1
   9    3   36 1
  10    4    5 1
  11    4    7 am
  12    5    6 1
  13    5   37 1
  14    5   38 1
  15    6   39 1
  16    6   40 1
  17    7    8 1
  18    7   15 2
  19    8    9 ar
  20    8   13 ar
  21    9   10 ar
  22    9   41 1
  23   10   11 ar
  24   10   42 1
  25   11   12 ar
  26   11   29 1
  27   12   13 ar
  28   12   14 1
  29   13   43 1
  30   14   16 3
  31   16   17 1
  32   17   18 ar
  33   17   22 ar
  34   18   19 ar
  35   19   20 ar
  36   19   44 1
  37   20   21 ar
  38   20   45 1
  39   21   22 ar
  40   21   46 1
  41   22   47 1
  42   23   24 ar
  43   23   28 ar
  44   24   25 ar
  45   24   32 1
  46   25   26 ar
  47   25   48 1
  48   26   27 ar
  49   26   31 1
  50   27   28 ar
  51   29   30 1
  52   30   49 1
  53   30   50 1
  54   30   51 1
  55   32   52 1
  56   32   53 1
  57   32   54 1

#	End of record

