#	Name: ASD01180357
#	Creating user name:	WinNT
#	Creation time:	15. 06. 2019 19:07

#	Modifying user name:	WinNT
#	Modification time:	15. 06. 2019 19:07

#	Program:	/corina/corina34_cracker 3.40 0067  02.08.2006

@<TRIPOS>MOLECULE
ASD01180357
  61   63    0    0    0
SMALL
NO_CHARGES


@<TRIPOS>ATOM
   1 C1            -2.3929    -2.1799     6.1965 C.2     
   2 C2            -1.9594    -3.0603     5.0529 C.3     
   3 C3            -0.5590    -3.6087     5.3339 C.3     
   4 O4            -1.6573    -2.0086     7.1396 O.2     
   5 O5            -3.5941    -1.5815     6.1649 O.3     
   6 C6             1.0708    -5.0610     4.2514 C.2     
   7 C7             1.4953    -5.9230     3.1317 C.ar    
   8 C8             2.7513    -6.5489     3.1518 C.ar    
   9 C9             3.1037    -7.3397     2.0919 C.ar    
  10 C10            2.2126    -7.4996     1.0319 C.ar    
  11 N11            1.0317    -6.8964     1.0376 N.ar    
  12 C12            0.6512    -6.1323     2.0402 C.ar    
  13 O13            1.8111    -4.8886     5.2005 O.2     
  14 N14           -0.1375    -4.4646     4.2222 N.am    
  15 N15            2.5657    -8.2989    -0.0420 N.pl3   
  16 C16            3.9130    -8.8691    -0.1191 C.3     
  17 C17            4.2722    -9.1330    -1.5827 C.3     
  18 C18            4.3521    -7.8037    -2.3360 C.3     
  19 C19            4.6047    -8.0733    -3.8207 C.3     
  20 C20            4.0325   -12.5441     2.0624 C.ar    
  21 C21            5.1048   -11.6568     2.1282 C.ar    
  22 C22            5.0608   -10.4717     1.4221 C.ar    
  23 C23            3.9551   -10.1644     0.6500 C.ar    
  24 C24            2.8876   -11.0413     0.5815 C.ar    
  25 C25            2.9209   -12.2292     1.2834 C.ar    
  26 C26            4.0767   -13.8226     2.8145 C.ar    
  27 C27            3.0044   -14.7099     2.7487 C.ar    
  28 C28            3.0508   -15.8976     3.4503 C.ar    
  29 C29            4.1589   -16.2075     4.2179 C.ar    
  30 C30            5.2260   -15.3302     4.2871 C.ar    
  31 C31            5.1930   -14.1427     3.5843 C.ar    
  32 C32            4.2036   -17.5057     4.9821 C.3     
  33 F33            4.7717   -18.5003     4.1789 F       
  34 F34            4.9762   -17.3408     6.1367 F       
  35 F35            2.9043   -17.8810     5.3400 F       
  36 H36           -2.6595    -3.8890     4.9466 H       
  37 H37           -1.9434    -2.4778     4.1317 H       
  38 H38            0.1412    -2.7801     5.4402 H       
  39 H39           -0.5750    -4.1912     6.2551 H       
  40 H40           -3.8280    -1.0263     6.9212 H       
  41 H41            3.4247    -6.4092     3.9846 H       
  42 H42            4.0633    -7.8350     2.0767 H       
  43 H43           -0.3197    -5.6600     2.0155 H       
  44 H44           -0.7281    -4.6022     3.4651 H       
  45 H45            1.9210    -8.4814    -0.7434 H       
  46 H46            4.6292    -8.1683     0.3101 H       
  47 H47            5.2364    -9.6387    -1.6347 H       
  48 H48            3.5069    -9.7625    -2.0368 H       
  49 H49            3.4128    -7.2631    -2.2195 H       
  50 H50            5.1683    -7.2053    -1.9313 H       
  51 H51            4.6616    -7.1262    -4.3574 H       
  52 H52            5.5440    -8.6139    -3.9372 H       
  53 H53            3.7884    -8.6717    -4.2254 H       
  54 H54            5.9686   -11.8958     2.7307 H       
  55 H55            5.8914    -9.7832     1.4723 H       
  56 H56            2.0265   -10.7962    -0.0226 H       
  57 H57            2.0872   -12.9136     1.2287 H       
  58 H58            2.1384   -14.4686     2.1503 H       
  59 H59            2.2202   -16.5861     3.4001 H       
  60 H60            6.0886   -15.5770     4.8883 H       
  61 H61            6.0289   -13.4607     3.6349 H       
@<TRIPOS>BOND
   1    1    2 1
   2    1    4 2
   3    1    5 1
   4    2    3 1
   5    2   36 1
   6    2   37 1
   7    3   14 1
   8    3   38 1
   9    3   39 1
  10    5   40 1
  11    6    7 1
  12    6   13 2
  13    6   14 am
  14    7    8 ar
  15    7   12 ar
  16    8    9 ar
  17    8   41 1
  18    9   10 ar
  19    9   42 1
  20   10   11 ar
  21   10   15 1
  22   11   12 ar
  23   12   43 1
  24   14   44 1
  25   15   16 1
  26   15   45 1
  27   16   17 1
  28   16   23 1
  29   16   46 1
  30   17   18 1
  31   17   47 1
  32   17   48 1
  33   18   19 1
  34   18   49 1
  35   18   50 1
  36   19   51 1
  37   19   52 1
  38   19   53 1
  39   20   21 ar
  40   20   25 ar
  41   20   26 1
  42   21   22 ar
  43   21   54 1
  44   22   23 ar
  45   22   55 1
  46   23   24 ar
  47   24   25 ar
  48   24   56 1
  49   25   57 1
  50   26   27 ar
  51   26   31 ar
  52   27   28 ar
  53   27   58 1
  54   28   29 ar
  55   28   59 1
  56   29   30 ar
  57   29   32 1
  58   30   31 ar
  59   30   60 1
  60   31   61 1
  61   32   33 1
  62   32   34 1
  63   32   35 1

#	End of record

