#	Name: ASD02508091
#	Creating user name:	WinNT
#	Creation time:	15. 06. 2019 20:23

#	Modifying user name:	WinNT
#	Modification time:	15. 06. 2019 20:23

#	Program:	/corina/corina34_cracker 3.40 0067  02.08.2006

@<TRIPOS>MOLECULE
ASD02508091
  29   31    0    0    0
SMALL
NO_CHARGES


@<TRIPOS>ATOM
   1 C1            -0.0169     1.3982     0.0097 C.ar    
   2 C2             0.0021    -0.0041     0.0020 C.ar    
   3 C3             1.2113     2.0592     0.0016 C.ar    
   4 C4             2.4087     1.3695    -0.0135 C.ar    
   5 C5             2.4059    -0.0182    -0.0209 C.ar    
   6 C6             1.1909    -0.6941    -0.0126 C.ar    
   7 O7            -1.0958     2.2053     0.0189 O.3     
   8 C8            -0.9265     3.5289     0.0249 C.2     
   9 S9             0.8276     3.7871     0.0139 S.3     
  10 N10            3.6109    -0.7284    -0.0362 N.am    
  11 S11            4.9285    -0.1412     0.7771 S.o2    
  12 C12            4.5303    -0.1540     2.4935 C.2     
  13 S13            3.7756     1.1716     3.3691 S.3     
  14 O14           -1.7946     4.3809     0.0334 O.2     
  15 O15            5.9674    -1.0942     0.5991 O.2     
  16 O16            5.0542     1.2243     0.4045 O.2     
  17 C17            1.1771    -2.2010    -0.0205 C.3     
  18 C18            4.7500    -1.1726     3.3262 C.2     
  19 C19            4.3523    -0.9531     4.6338 C.2     
  20 C20            3.8079     0.2429     4.8625 C.2     
  21 H21           -0.9301    -0.5494     0.0080 H       
  22 H22            3.3443     1.9090    -0.0199 H       
  23 H23            3.6747    -1.5649    -0.5231 H       
  24 H24            1.1839    -2.5698     1.0052 H       
  25 H25            0.2788    -2.5534    -0.5274 H       
  26 H26            2.0586    -2.5696    -0.5450 H       
  27 H27            5.2034    -2.0985     3.0045 H       
  28 H28            4.4720    -1.6949     5.4096 H       
  29 H29            3.4415     0.5878     5.8181 H       
@<TRIPOS>BOND
   1    1    2 ar
   2    1    3 ar
   3    1    7 1
   4    2    6 ar
   5    2   21 1
   6    3    4 ar
   7    3    9 1
   8    4    5 ar
   9    4   22 1
  10    5    6 ar
  11    5   10 1
  12    6   17 1
  13    7    8 1
  14    8    9 1
  15    8   14 2
  16   10   11 am
  17   10   23 1
  18   11   12 1
  19   11   15 2
  20   11   16 2
  21   12   13 1
  22   12   18 2
  23   13   20 1
  24   17   24 1
  25   17   25 1
  26   17   26 1
  27   18   19 1
  28   18   27 1
  29   19   20 2
  30   19   28 1
  31   20   29 1

#	End of record

