#	Name: ASD01150975
#	Creating user name:	WinNT
#	Creation time:	15. 06. 2019 19:05

#	Modifying user name:	WinNT
#	Modification time:	15. 06. 2019 19:05

#	Program:	/corina/corina34_cracker 3.40 0067  02.08.2006

@<TRIPOS>MOLECULE
ASD01150975
  25   25    0    0    0
SMALL
NO_CHARGES


@<TRIPOS>ATOM
   1 C1            -0.0153     1.2797     0.0091 C.2     
   2 N2             0.0021    -0.0041     0.0020 N.2     
   3 C3            -1.1770    -0.6344     0.0099 C.2     
   4 C4            -2.2682     0.2049     0.0248 C.2     
   5 S5            -1.6751     1.8641     0.0357 S.3     
   6 C6             1.2086     2.1590     0.0021 C.3     
   7 N7            -3.5928    -0.1847     0.0349 N.pl3   
   8 C8            -1.2973    -2.0920     0.0032 C.2     
   9 O9            -2.3974    -2.6116     0.0104 O.2     
  10 O10           -0.1883    -2.8603    -0.0110 O.3     
  11 C11           -0.3803    -4.2764    -0.0168 C.3     
  12 C12            0.9806    -4.9754    -0.0329 C.3     
  13 C13            1.6090     2.4643    -1.4427 C.3     
  14 H14            0.9894     3.0910     0.5231 H       
  15 H15            2.0277     1.6454     0.5054 H       
  16 H16           -3.8212    -1.1274     0.0317 H       
  17 H17           -4.2951     0.4844     0.0452 H       
  18 H18           -0.9301    -4.5722     0.8767 H       
  19 H19           -0.9463    -4.5627    -0.9032 H       
  20 H20            1.5304    -4.6796    -0.9264 H       
  21 H21            1.5467    -4.6891     0.8535 H       
  22 H22            0.8342    -6.0555    -0.0374 H       
  23 H23            1.8282     1.5323    -1.9636 H       
  24 H24            0.7898     2.9778    -1.9459 H       
  25 H25            2.4942     3.1002    -1.4477 H       
@<TRIPOS>BOND
   1    1    2 2
   2    1    6 1
   3    1    5 1
   4    2    3 1
   5    3    4 2
   6    3    8 1
   7    4    5 1
   8    4    7 1
   9    6   13 1
  10    6   14 1
  11    6   15 1
  12    7   16 1
  13    7   17 1
  14    8    9 2
  15    8   10 1
  16   10   11 1
  17   11   12 1
  18   11   18 1
  19   11   19 1
  20   12   20 1
  21   12   21 1
  22   12   22 1
  23   13   23 1
  24   13   24 1
  25   13   25 1

#	End of record

