#	Name: ASD03740271
#	Creating user name:	WinNT
#	Creation time:	15. 06. 2019 20:47

#	Modifying user name:	WinNT
#	Modification time:	15. 06. 2019 20:47

#	Program:	/corina/corina34_cracker 3.40 0067  02.08.2006

@<TRIPOS>MOLECULE
ASD03740271
  58   61    0    0    0
SMALL
NO_CHARGES


@<TRIPOS>ATOM
   1 C1            -0.3400     1.4584     0.0969 C.ar    
   2 C2             2.0016     0.9980     0.2994 C.ar    
   3 C3             5.6573     7.8547     4.1512 C.ar    
   4 C4             6.6042     8.5308     4.8937 C.ar    
   5 C5            -0.6146     0.1067     0.1838 C.ar    
   6 C6             1.7295    -0.3541     0.3869 C.ar    
   7 C7             6.8119     6.6386     6.3635 C.ar    
   8 C8             0.9674     1.9039     0.1549 C.ar    
   9 C9             5.2825     6.5654     4.5102 C.ar    
  10 C10            7.1859     7.9274     6.0013 C.ar    
  11 C11            0.4205    -0.8014     0.3289 C.ar    
  12 C12            5.8663     5.9672     5.6213 C.ar    
  13 C13            2.3795     4.4562     3.5118 C.2     
  14 C14            1.1843     4.5556     4.1563 C.2     
  15 C15            3.6340     4.7911     4.2117 C.2     
  16 C16            2.4069     4.0056     2.1127 C.2     
  17 C17           -0.0855     4.1698     3.4430 C.3     
  18 C18            0.0218     4.5096     1.9583 C.3     
  19 C19           -0.0166     6.3721     0.2934 C.3     
  20 C20            6.4581    10.1552     8.2704 C.3     
  21 C21            1.2654     3.3781     0.0600 C.3     
  22 C22            0.0018     6.0295     1.7844 C.3     
  23 N23            4.3316     5.8731     3.7606 N.pl3   
  24 N24            3.9809     4.0331     5.2037 N.am    
  25 N25            1.2642     3.9639     1.4028 N.am    
  26 N26            8.1468     8.6154     6.7507 N.am    
  27 O27            3.4580     3.6723     1.5986 O.2     
  28 O28            6.3599     3.4551     5.5463 O.2     
  29 O29            4.9959     4.3777     7.4313 O.2     
  30 O30            7.5621    10.8335     5.9380 O.2     
  31 O31            9.0663    10.5631     7.8835 O.2     
  32 O32            1.1374     4.9964     5.4255 O.3     
  33 S33            5.3681     4.3331     6.0607 S.o2    
  34 S34            7.8957    10.1990     7.1649 S.o2    
  35 F35            0.1533    -2.1230     0.4145 F       
  36 H36           -1.1469     2.1666    -0.0209 H       
  37 H37            3.0226     1.3472     0.3449 H       
  38 H38            5.2042     8.3294     3.2935 H       
  39 H39            6.8941     9.5323     4.6123 H       
  40 H40           -1.6360    -0.2410     0.1388 H       
  41 H41            2.5377    -1.0616     0.4994 H       
  42 H42            7.2617     6.1654     7.2239 H       
  43 H43           -0.2532     3.0988     3.5575 H       
  44 H44           -0.9240     4.7133     3.8784 H       
  45 H45           -0.8249     4.0749     1.4270 H       
  46 H46           -0.9059     5.9420    -0.1673 H       
  47 H47           -0.0308     7.4550     0.1696 H       
  48 H48            0.8739     5.9635    -0.1843 H       
  49 H49            6.6868     9.5386     9.1396 H       
  50 H50            6.2191    11.1677     8.5959 H       
  51 H51            5.6046     9.7331     7.7399 H       
  52 H52            2.2437     3.5222    -0.3984 H       
  53 H53            0.5035     3.8643    -0.5492 H       
  54 H54           -0.8886     6.4382     2.2622 H       
  55 H55            0.8911     6.4597     2.2451 H       
  56 H56            4.1542     6.1819     2.8584 H       
  57 H57            8.9599     8.1647     7.0276 H       
  58 H58            1.9678     5.3033     5.8146 H       
@<TRIPOS>BOND
   1    1    5 ar
   2    1    8 ar
   3    1   36 1
   4    2    6 ar
   5    2    8 ar
   6    2   37 1
   7    3    4 ar
   8    3    9 ar
   9    3   38 1
  10    4   10 ar
  11    4   39 1
  12    5   11 ar
  13    5   40 1
  14    6   11 ar
  15    6   41 1
  16    7   10 ar
  17    7   12 ar
  18    7   42 1
  19    8   21 1
  20    9   12 ar
  21    9   23 1
  22   10   26 1
  23   11   35 1
  24   12   33 1
  25   13   14 2
  26   13   15 1
  27   13   16 1
  28   14   17 1
  29   14   32 1
  30   15   23 1
  31   15   24 2
  32   16   25 am
  33   16   27 2
  34   17   18 1
  35   17   43 1
  36   17   44 1
  37   18   22 1
  38   18   25 1
  39   18   45 1
  40   19   22 1
  41   19   46 1
  42   19   47 1
  43   19   48 1
  44   20   34 1
  45   20   49 1
  46   20   50 1
  47   20   51 1
  48   21   25 1
  49   21   52 1
  50   21   53 1
  51   22   54 1
  52   22   55 1
  53   23   56 1
  54   24   33 am
  55   26   34 am
  56   26   57 1
  57   28   33 2
  58   29   33 2
  59   30   34 2
  60   31   34 2
  61   32   58 1

#	End of record

