#	Name: ASD01881066
#	Creating user name:	WinNT
#	Creation time:	15. 06. 2019 19:41

#	Modifying user name:	WinNT
#	Modification time:	15. 06. 2019 19:41

#	Program:	/corina/corina34_cracker 3.40 0067  02.08.2006

@<TRIPOS>MOLECULE
ASD01881066
  43   45    0    0    0
SMALL
NO_CHARGES


@<TRIPOS>ATOM
   1 C1            -0.0169     1.3916     0.0097 C.ar    
   2 C2             0.0021    -0.0041     0.0020 C.ar    
   3 C3             1.2049    -0.6931    -0.0131 C.ar    
   4 C4             2.4005     0.0203    -0.0207 C.ar    
   5 C5             2.3727     1.4360    -0.0128 C.ar    
   6 C6             1.1473     2.1070     0.0024 C.ar    
   7 C7             3.7028    -0.6499    -0.0361 C.2     
   8 C8             4.8237     0.0887    -0.0424 C.2     
   9 N9             4.7997     1.4545    -0.0350 N.am    
  10 C10            3.6485     2.1547    -0.0207 C.2     
  11 C11            6.0704     2.1836    -0.0427 C.3     
  12 C12            6.4995     2.4451    -1.4878 C.3     
  13 C13            7.8265     3.2066    -1.4959 C.3     
  14 O14            3.6689     3.3728    -0.0152 O.2     
  15 Cl15           1.1039     3.8424     0.0121 Cl      
  16 N16           -1.1976    -0.7104     0.0101 N.3     
  17 C17           -2.3465     0.2040     0.0264 C.3     
  18 C18           -3.6387    -0.6011     0.1816 C.3     
  19 C19           -3.7634    -1.5866    -0.9836 C.3     
  20 C20           -2.5314    -2.4955    -1.0072 C.3     
  21 C21           -1.2713    -1.6355    -1.1279 C.3     
  22 O22           -4.9394    -2.3806    -0.8139 O.3     
  23 H23           -0.9630     1.9123     0.0170 H       
  24 H24            1.2145    -1.7730    -0.0187 H       
  25 H25            3.7607    -1.7283    -0.0420 H       
  26 H26            5.7789    -0.4151    -0.0535 H       
  27 H27            5.9473     3.1336     0.4773 H       
  28 H28            6.8331     1.5898     0.4610 H       
  29 H29            6.6225     1.4951    -2.0079 H       
  30 H30            5.7367     3.0389    -1.9915 H       
  31 H31            7.7034     4.1566    -0.9759 H       
  32 H32            8.5892     2.6128    -0.9922 H       
  33 H33            8.1322     3.3929    -2.5255 H       
  34 H34           -2.2476     0.8967     0.8621 H       
  35 H35           -2.3779     0.7645    -0.9079 H       
  36 H36           -3.6140    -1.1511     1.1223 H       
  37 H37           -4.4924     0.0766     0.1780 H       
  38 H38           -3.8273    -1.0353    -1.9218 H       
  39 H39           -2.4892    -3.0753    -0.0852 H       
  40 H40           -2.5939    -3.1712    -1.8602 H       
  41 H41           -1.3076    -1.0664    -2.0569 H       
  42 H42           -0.3914    -2.2788    -1.1306 H       
  43 H43           -5.0816    -3.0283    -1.5176 H       
@<TRIPOS>BOND
   1    1    2 ar
   2    1    6 ar
   3    1   23 1
   4    2    3 ar
   5    2   16 1
   6    3    4 ar
   7    3   24 1
   8    4    5 ar
   9    4    7 1
  10    5    6 ar
  11    5   10 1
  12    6   15 1
  13    7    8 2
  14    7   25 1
  15    8    9 1
  16    8   26 1
  17    9   10 am
  18    9   11 1
  19   10   14 2
  20   11   12 1
  21   11   27 1
  22   11   28 1
  23   12   13 1
  24   12   29 1
  25   12   30 1
  26   13   31 1
  27   13   32 1
  28   13   33 1
  29   16   17 1
  30   16   21 1
  31   17   18 1
  32   17   34 1
  33   17   35 1
  34   18   19 1
  35   18   36 1
  36   18   37 1
  37   19   20 1
  38   19   22 1
  39   19   38 1
  40   20   21 1
  41   20   39 1
  42   20   40 1
  43   21   41 1
  44   21   42 1
  45   22   43 1

#	End of record

