#	Name: ASD02508050
#	Creating user name:	WinNT
#	Creation time:	15. 06. 2019 20:23

#	Modifying user name:	WinNT
#	Modification time:	15. 06. 2019 20:23

#	Program:	/corina/corina34_cracker 3.40 0067  02.08.2006

@<TRIPOS>MOLECULE
ASD02508050
  44   46    0    0    0
SMALL
NO_CHARGES


@<TRIPOS>ATOM
   1 C1            -0.0111     1.3924    -0.0096 C.ar    
   2 C2             0.0075     0.0112     0.1074 C.ar    
   3 C3             1.1830     2.1011    -0.1363 C.ar    
   4 C4             2.3905     1.4207    -0.1448 C.ar    
   5 C5             2.4056     0.0390    -0.0275 C.ar    
   6 C6             1.2122    -0.6646     0.0986 C.ar    
   7 N7            -1.0401     2.3370    -0.0392 N.am    
   8 C8            -0.4705     3.5513    -0.1718 C.2     
   9 O9             0.8635     3.4154    -0.2314 O.3     
  10 N10            3.6244    -0.6492    -0.0360 N.am    
  11 S11            4.9610     0.0252     0.6720 S.o2    
  12 C12            4.5822     0.2684     2.3755 C.ar    
  13 C13            4.8537    -0.7306     3.2919 C.ar    
  14 O14           -1.0722     4.6062    -0.2328 O.2     
  15 O15            5.9815    -0.9626     0.6249 O.2     
  16 O16            5.1057     1.3198     0.1043 O.2     
  17 Cl17           1.2371    -2.3941     0.2463 Cl      
  18 C18            4.0193     1.4598     2.7936 C.ar    
  19 C19            3.7208     1.6527     4.1329 C.ar    
  20 C20            3.9889     0.6450     5.0544 C.ar    
  21 C21            4.5584    -0.5446     4.6295 C.ar    
  22 C22           -2.4752     2.0587     0.0564 C.3     
  23 C23           -2.9031     2.0848     1.5251 C.3     
  24 O24            3.1675     2.8243     4.5459 O.3     
  25 O25            3.6977     0.8296     6.3699 O.3     
  26 C26            2.9206     3.8136     3.5447 C.3     
  27 C27            4.0001    -0.2478     7.2587 C.3     
  28 H28           -0.9186    -0.5357     0.2058 H       
  29 H29            3.3178     1.9655    -0.2430 H       
  30 H30            3.6862    -1.5210    -0.4566 H       
  31 H31            5.2972    -1.6584     2.9620 H       
  32 H32            3.8126     2.2404     2.0764 H       
  33 H33            4.7674    -1.3282     5.3427 H       
  34 H34           -3.0300     2.8162    -0.4972 H       
  35 H35           -2.6835     1.0753    -0.3652 H       
  36 H36           -2.3484     1.3273     2.0787 H       
  37 H37           -2.6948     3.0682     1.9467 H       
  38 H38           -3.9709     1.8777     1.5963 H       
  39 H39            3.8601     4.0867     3.0643 H       
  40 H40            2.2343     3.4124     2.7990 H       
  41 H41            2.4790     4.6963     4.0073 H       
  42 H42            3.4430    -1.1349     6.9570 H       
  43 H43            5.0686    -0.4600     7.2222 H       
  44 H44            3.7192     0.0295     8.2747 H       
@<TRIPOS>BOND
   1    1    2 ar
   2    1    3 ar
   3    1    7 1
   4    2    6 ar
   5    2   28 1
   6    3    4 ar
   7    3    9 1
   8    4    5 ar
   9    4   29 1
  10    5    6 ar
  11    5   10 1
  12    6   17 1
  13    7    8 am
  14    7   22 1
  15    8    9 1
  16    8   14 2
  17   10   11 am
  18   10   30 1
  19   11   12 1
  20   11   15 2
  21   11   16 2
  22   12   13 ar
  23   12   18 ar
  24   13   21 ar
  25   13   31 1
  26   18   19 ar
  27   18   32 1
  28   19   20 ar
  29   19   24 1
  30   20   21 ar
  31   20   25 1
  32   21   33 1
  33   22   23 1
  34   22   34 1
  35   22   35 1
  36   23   36 1
  37   23   37 1
  38   23   38 1
  39   24   26 1
  40   25   27 1
  41   26   39 1
  42   26   40 1
  43   26   41 1
  44   27   42 1
  45   27   43 1
  46   27   44 1

#	End of record

