#	Name: ASD01917029
#	Creating user name:	WinNT
#	Creation time:	15. 06. 2019 20:08

#	Modifying user name:	WinNT
#	Modification time:	15. 06. 2019 20:08

#	Program:	/corina/corina34_cracker 3.40 0067  02.08.2006

@<TRIPOS>MOLECULE
ASD01917029
  30   31    0    0    0
SMALL
NO_CHARGES


@<TRIPOS>ATOM
   1 C1            -0.0184     1.5028     0.0103 C.3     
   2 C2             0.0021    -0.0041     0.0020 C.2     
   3 N3            -0.0895    -0.7650    -1.0565 N.2     
   4 C4            -0.0363    -2.0538    -0.6943 C.2     
   5 N5             0.0909    -2.1194     0.6128 N.2     
   6 N6             0.1235    -0.7963     1.0823 N.pl3   
   7 C7            -0.1094    -3.2149    -1.6156 C.ar    
   8 C8            -0.2453    -3.0109    -2.9871 C.ar    
   9 C9            -0.7345     1.9962     1.2691 C.3     
  10 C10           -0.0367    -4.5122    -1.1119 C.ar    
  11 C11           -0.1051    -5.5888    -1.9719 C.ar    
  12 C12           -0.2459    -5.3815    -3.3348 C.ar    
  13 C13           -0.3129    -4.0935    -3.8403 C.ar    
  14 C14           -0.0260    -6.9921    -1.4285 C.3     
  15 C15            1.4170     2.0324    -0.0006 C.3     
  16 F16           -0.3121    -6.4385    -4.1735 F       
  17 H17           -0.5455     1.8639    -0.8728 H       
  18 H18            0.2105    -0.5099     2.0050 H       
  19 H19           -0.2979    -2.0071    -3.3820 H       
  20 H20           -0.2073     1.6351     2.1522 H       
  21 H21           -0.7493     3.0861     1.2751 H       
  22 H22           -1.7571     1.6189     1.2768 H       
  23 H23            0.0735    -4.6747    -0.0499 H       
  24 H24           -0.4231    -3.9364    -4.9031 H       
  25 H25           -1.0292    -7.3481    -1.1941 H       
  26 H26            0.4264    -7.6457    -2.1744 H       
  27 H27            0.5821    -6.9977    -0.5239 H       
  28 H28            1.9272     1.6808    -0.8974 H       
  29 H29            1.4022     3.1222     0.0054 H       
  30 H30            1.9442     1.6713     0.8825 H       
@<TRIPOS>BOND
   1    1    2 1
   2    1   15 1
   3    1    9 1
   4    1   17 1
   5    2    3 2
   6    2    6 1
   7    3    4 1
   8    4    5 2
   9    4    7 1
  10    5    6 1
  11    6   18 1
  12    7    8 ar
  13    7   10 ar
  14    8   13 ar
  15    8   19 1
  16    9   20 1
  17    9   21 1
  18    9   22 1
  19   10   11 ar
  20   10   23 1
  21   11   12 ar
  22   11   14 1
  23   12   13 ar
  24   12   16 1
  25   13   24 1
  26   14   25 1
  27   14   26 1
  28   14   27 1
  29   15   28 1
  30   15   29 1
  31   15   30 1

#	End of record

