#	Name: ASD01200370
#	Creating user name:	WinNT
#	Creation time:	15. 06. 2019 19:09

#	Modifying user name:	WinNT
#	Modification time:	15. 06. 2019 19:09

#	Program:	/corina/corina34_cracker 3.40 0067  02.08.2006

@<TRIPOS>MOLECULE
ASD01200370
  55   59    0    0    0
SMALL
NO_CHARGES


@<TRIPOS>ATOM
   1 C1            -0.2343     1.6756    -0.6998 C.ar    
   2 C2            -0.2614     0.3381    -1.0298 C.ar    
   3 C3             0.9218    -0.3819    -1.1683 C.ar    
   4 C4             2.1294     0.2236    -0.9798 C.ar    
   5 C5             2.1822     1.5811    -0.6441 C.ar    
   6 C6             0.9879     2.3136    -0.5028 C.ar    
   7 C7             3.2705     2.5168    -0.3782 C.2     
   8 N8             2.7418     3.6764    -0.1101 N.2     
   9 N9             1.3470     3.5952    -0.1761 N.pl3   
  10 C10            0.4188     4.7025     0.0657 C.3     
  11 C11            0.6137     5.2298     1.4887 C.3     
  12 C12            0.6887     5.8089    -0.9213 C.2     
  13 N13            0.1098     5.7825    -2.1381 N.am    
  14 O14            1.4269     6.7231    -0.6206 O.2     
  15 C15           -0.4502     6.2871     1.7910 C.3     
  16 C16           -2.8815     6.6784     2.1975 C.3     
  17 C17           -1.8333     5.6294     1.8172 C.3     
  18 C18           -0.1712     6.9184     3.1584 C.3     
  19 C19           -1.2835     7.9176     3.4870 C.3     
  20 O20           -2.5456     7.2478     3.4644 O.3     
  21 S21            3.6188    -0.7010    -1.1581 S.o2    
  22 O22            4.3424    -0.4332     0.0352 O.2     
  23 O23            3.1797    -2.0161    -1.4692 O.2     
  24 C24            4.4481     0.0479    -2.5871 C.3     
  25 C25            5.7363    -0.6125    -3.0823 C.3     
  26 C26            4.4481    -0.7416    -3.8976 C.3     
  27 C27            0.4373     6.7472    -3.0852 C.2     
  28 N28            1.2867     7.7131    -2.9127 N.2     
  29 S29           -0.2292     6.8483    -4.7127 S.3     
  30 C30            0.7563     8.2760    -5.0237 C.2     
  31 C31            1.4713     8.5371    -3.9272 C.2     
  32 F32            0.7864     8.9817    -6.1753 F       
  33 F33           -1.4473    -0.2804    -1.2203 F       
  34 H34           -1.1569     2.2280    -0.5986 H       
  35 H35            0.8833    -1.4298    -1.4271 H       
  36 H36            4.3258     2.2881    -0.3995 H       
  37 H37           -0.6058     4.3506    -0.0542 H       
  38 H38            0.5196     4.4068     2.1972 H       
  39 H39            1.6044     5.6752     1.5787 H       
  40 H40           -0.5352     5.0907    -2.3534 H       
  41 H41           -0.4264     7.0587     1.0214 H       
  42 H42           -2.9023     7.4625     1.4406 H       
  43 H43           -3.8621     6.2066     2.2595 H       
  44 H44           -2.0633     5.2255     0.8312 H       
  45 H45           -1.8401     4.8245     2.5522 H       
  46 H46           -0.1444     6.1396     3.9205 H       
  47 H47            0.7875     7.4364     3.1317 H       
  48 H48           -1.1130     8.3386     4.4779 H       
  49 H49           -1.2835     8.7179     2.7470 H       
  50 H50            4.3816     1.1338    -2.6533 H       
  51 H51            6.5172     0.0389    -3.4747 H       
  52 H52            6.0855    -1.4970    -2.5495 H       
  53 H53            3.9498    -1.7110    -3.9012 H       
  54 H54            4.3815    -0.1751    -4.8264 H       
  55 H55            2.1581     9.3689    -3.8739 H       
@<TRIPOS>BOND
   1    1    2 ar
   2    1    6 ar
   3    1   34 1
   4    2    3 ar
   5    2   33 1
   6    3    4 ar
   7    3   35 1
   8    4    5 ar
   9    4   21 1
  10    5    7 1
  11    5    6 ar
  12    6    9 1
  13    7    8 2
  14    7   36 1
  15    8    9 1
  16    9   10 1
  17   10   11 1
  18   10   12 1
  19   10   37 1
  20   11   15 1
  21   11   38 1
  22   11   39 1
  23   12   13 am
  24   12   14 2
  25   13   27 1
  26   13   40 1
  27   15   18 1
  28   15   17 1
  29   15   41 1
  30   16   17 1
  31   16   20 1
  32   16   42 1
  33   16   43 1
  34   17   44 1
  35   17   45 1
  36   18   19 1
  37   18   46 1
  38   18   47 1
  39   19   20 1
  40   19   48 1
  41   19   49 1
  42   21   22 2
  43   21   23 2
  44   21   24 1
  45   24   25 1
  46   24   26 1
  47   24   50 1
  48   25   26 1
  49   25   51 1
  50   25   52 1
  51   26   53 1
  52   26   54 1
  53   27   29 1
  54   27   28 2
  55   28   31 1
  56   29   30 1
  57   30   31 2
  58   30   32 1
  59   31   55 1

#	End of record

