#	Name: ASD07931917
#	Creating user name:	WinNT
#	Creation time:	15. 06. 2019 21:13

#	Modifying user name:	WinNT
#	Modification time:	15. 06. 2019 21:13

#	Program:	/corina/corina34_cracker 3.40 0067  02.08.2006

@<TRIPOS>MOLECULE
ASD07931917
  30   30    0    0    0
SMALL
NO_CHARGES


@<TRIPOS>ATOM
   1 C1            -0.0184     1.5028     0.0103 C.2     
   2 C2             0.0251     0.0012    -0.1094 C.3     
   3 O3            -1.2970    -0.4984    -0.3201 O.3     
   4 C4            -1.2107    -2.3083    -1.9193 C.3     
   5 C5            -1.3678    -1.9199    -0.4478 C.3     
   6 C6            -2.7015    -2.4041     0.0599 C.2     
   7 C7            -2.7543    -3.2484     1.0602 C.2     
   8 F8             0.0275    -1.8588    -2.3906 F       
   9 F9            -1.2799    -3.7000    -2.0443 F       
  10 F10           -2.2359    -1.7212    -2.6686 F       
  11 C11            1.2276     2.2616     0.2329 C.ar    
  12 C12            2.2210     2.2846    -0.7504 C.ar    
  13 C13            3.3865     2.9995    -0.5334 C.ar    
  14 C14            3.5670     3.6887     0.6541 C.ar    
  15 C15            2.5858     3.6681     1.6295 C.ar    
  16 C16            1.4172     2.9647     1.4243 C.ar    
  17 F17            4.3491     3.0244    -1.4810 F       
  18 F18            2.0445     1.6112    -1.9082 F       
  19 N19           -1.1472     2.1270    -0.0874 N.2     
  20 O20           -1.1756     3.5427    -0.0892 O.3     
  21 H21            0.6576    -0.2780    -0.9521 H       
  22 H22            0.4326    -0.4248     0.8075 H       
  23 H23           -0.5690    -2.3773     0.1360 H       
  24 H24           -3.6138    -2.0550    -0.4009 H       
  25 H25           -1.8421    -3.5974     1.5210 H       
  26 H26           -3.7102    -3.5954     1.4240 H       
  27 H27            4.4780     4.2446     0.8197 H       
  28 H28            2.7340     4.2078     2.5532 H       
  29 H29            0.6515     2.9545     2.1859 H       
  30 H30           -2.0633     3.9182    -0.1661 H       
@<TRIPOS>BOND
   1    1    2 1
   2    1   11 1
   3    1   19 2
   4    2    3 1
   5    2   21 1
   6    2   22 1
   7    3    5 1
   8    4    5 1
   9    4    8 1
  10    4    9 1
  11    4   10 1
  12    5    6 1
  13    5   23 1
  14    6    7 2
  15    6   24 1
  16    7   25 1
  17    7   26 1
  18   11   12 ar
  19   11   16 ar
  20   12   13 ar
  21   12   18 1
  22   13   14 ar
  23   13   17 1
  24   14   15 ar
  25   14   27 1
  26   15   16 ar
  27   15   28 1
  28   16   29 1
  29   19   20 1
  30   20   30 1

#	End of record

