#	Name: ASD04560158
#	Creating user name:	WinNT
#	Creation time:	15. 06. 2019 20:49

#	Modifying user name:	WinNT
#	Modification time:	15. 06. 2019 20:49

#	Program:	/corina/corina34_cracker 3.40 0067  02.08.2006

@<TRIPOS>MOLECULE
ASD04560158
  62   65    0    0    0
SMALL
NO_CHARGES


@<TRIPOS>ATOM
   1 C1             2.8866     4.8096     1.0024 C.ar    
   2 C2             3.9384     5.4331     1.6222 C.ar    
   3 C3             4.4459     4.9249     2.8158 C.ar    
   4 C4             3.8866     3.7821     3.3831 C.ar    
   5 C5             2.8349     3.1541     2.7676 C.ar    
   6 C6             2.3230     3.6622     1.5695 C.ar    
   7 C7             1.1916     2.9893     0.9053 C.2     
   8 O8             1.0410     1.7888     1.0282 O.2     
   9 N9             0.3243     3.7046     0.1619 N.am    
  10 C10           -0.6950     3.0545    -0.5432 C.ar    
  11 C11           -0.6440     1.6793    -0.7292 C.ar    
  12 C12           -2.7669     3.1395    -1.7478 C.ar    
  13 C13           -1.7618     3.7830    -1.0527 C.ar    
  14 S14            5.7983     5.7287     3.6092 S.3     
  15 C15           -1.6511     1.0397    -1.4249 C.ar    
  16 C16           -2.7111     1.7688    -1.9371 C.ar    
  17 F17           -3.6953     1.1413    -2.6173 F       
  18 C18            6.0734     4.7064     5.0823 C.3     
  19 C19            7.2190     5.2734     5.8804 C.ar    
  20 C20            6.9664     6.0909     6.9805 C.ar    
  21 C21            8.5201     4.9794     5.5269 C.ar    
  22 C22            8.0309     6.6116     7.7147 C.ar    
  23 C23            9.3278     6.3155     7.3491 C.ar    
  24 C24            0.4486     5.1627     0.0919 C.3     
  25 C25            9.5728     5.4989     6.2590 C.ar    
  26 B26            5.4882     6.4246     7.3911 Du      
  27 O27            5.1410     6.5386     8.7633 O.3     
  28 O28            4.4985     6.6125     6.3904 O.3     
  29 C29            0.6514     5.5879    -1.3637 C.3     
  30 C30            0.9462     7.0886    -1.4202 C.3     
  31 N31            1.7798     4.8442    -1.9381 N.3     
  32 C32            1.9823     5.1933    -3.3500 C.3     
  33 C33            2.3168     6.6822    -3.4658 C.3     
  34 C34            1.1682     7.5057    -2.8767 C.3     
  35 H35            2.4907     5.2067     0.0793 H       
  36 H36            4.3743     6.3190     1.1845 H       
  37 H37            4.2821     3.3904     4.3086 H       
  38 H38            2.4022     2.2678     3.2075 H       
  39 H39            0.1829     1.1104    -0.3305 H       
  40 H40           -3.5968     3.7057    -2.1442 H       
  41 H41           -1.8057     4.8520    -0.9053 H       
  42 H42           -1.6118    -0.0298    -1.5698 H       
  43 H43            5.1715     4.7011     5.6944 H       
  44 H44            6.3119     3.6873     4.7779 H       
  45 H45            8.7170     4.3424     4.6772 H       
  46 H46            7.8408     7.2460     8.5678 H       
  47 H47           10.1533     6.7183     7.9172 H       
  48 H48           -0.4587     5.6238     0.4821 H       
  49 H49            1.3039     5.4834     0.6866 H       
  50 H50           10.5896     5.2696     5.9763 H       
  51 H51            5.8937     6.4697     9.3665 H       
  52 H52            4.8434     6.5914     5.4872 H       
  53 H53           -0.2525     5.3737    -1.9340 H       
  54 H54            0.1018     7.6411    -1.0081 H       
  55 H55            1.8424     7.3055    -0.8389 H       
  56 H56            2.6222     4.9956    -1.4038 H       
  57 H57            2.8045     4.6037    -3.7556 H       
  58 H58            1.0721     4.9809    -3.9108 H       
  59 H59            3.2346     6.8927    -2.9167 H       
  60 H60            2.4517     6.9443    -4.5152 H       
  61 H61            0.2590     7.3249    -3.4500 H       
  62 H62            1.4212     8.5651    -2.9176 H       
@<TRIPOS>BOND
   1    1    2 ar
   2    1    6 ar
   3    1   35 1
   4    2    3 ar
   5    2   36 1
   6    3    4 ar
   7    3   14 1
   8    4    5 ar
   9    4   37 1
  10    5    6 ar
  11    5   38 1
  12    6    7 1
  13    7    8 2
  14    7    9 am
  15    9   10 1
  16    9   24 1
  17   10   11 ar
  18   10   13 ar
  19   11   15 ar
  20   11   39 1
  21   12   13 ar
  22   12   16 ar
  23   12   40 1
  24   13   41 1
  25   14   18 1
  26   15   16 ar
  27   15   42 1
  28   16   17 1
  29   18   19 1
  30   18   43 1
  31   18   44 1
  32   19   20 ar
  33   19   21 ar
  34   20   26 1
  35   20   22 ar
  36   21   25 ar
  37   21   45 1
  38   22   23 ar
  39   22   46 1
  40   23   25 ar
  41   23   47 1
  42   24   29 1
  43   24   48 1
  44   24   49 1
  45   25   50 1
  46   26   27 1
  47   26   28 1
  48   27   51 1
  49   28   52 1
  50   29   30 1
  51   29   31 1
  52   29   53 1
  53   30   34 1
  54   30   54 1
  55   30   55 1
  56   31   32 1
  57   31   56 1
  58   32   33 1
  59   32   57 1
  60   32   58 1
  61   33   34 1
  62   33   59 1
  63   33   60 1
  64   34   61 1
  65   34   62 1

#	End of record

