#	Name: ASD01917598
#	Creating user name:	WinNT
#	Creation time:	15. 06. 2019 20:09

#	Modifying user name:	WinNT
#	Modification time:	15. 06. 2019 20:09

#	Program:	/corina/corina34_cracker 3.40 0067  02.08.2006

@<TRIPOS>MOLECULE
ASD01917598
  49   52    0    0    0
SMALL
NO_CHARGES


@<TRIPOS>ATOM
   1 C1             0.5002     2.0859    -0.4261 C.ar    
   2 C2             0.7688     0.7505    -0.7674 C.ar    
   3 C3             2.0580     0.3430    -0.9267 C.ar    
   4 C4             3.1157     1.2341    -0.7556 C.ar    
   5 C5             2.8917     2.5348    -0.4245 C.ar    
   6 C6             1.5740     2.9937    -0.2517 C.ar    
   7 N7             1.3233     4.2660     0.0726 N.ar    
   8 C8             0.0966     4.6989     0.2350 C.ar    
   9 C9            -1.0040     3.8588     0.0790 C.ar    
  10 C10           -0.8187     2.5483    -0.2579 C.ar    
  11 C11           -1.9932     1.6217    -0.4390 C.3     
  12 C12           -1.9877     1.0635    -1.8635 C.3     
  13 C13           -3.1802     0.1227    -2.0473 C.3     
  14 C14           -3.0787    -1.0307    -1.0473 C.3     
  15 C15           -3.0843    -0.4726     0.3773 C.3     
  16 C16           -1.8918     0.4682     0.5611 C.3     
  17 S17           -2.6335     4.4884     0.3087 S.o2    
  18 O18           -3.3158     3.5472     1.1259 O.2     
  19 O19           -2.4890     5.8587     0.6562 O.2     
  20 C20           -3.4319     4.4549    -1.2617 C.ar    
  21 C21           -4.2805     3.4123    -1.5835 C.ar    
  22 C22           -4.9068     3.3860    -2.8155 C.ar    
  23 C23           -4.6848     4.4025    -3.7256 C.ar    
  24 C24           -3.8368     5.4457    -3.4034 C.ar    
  25 C25           -3.2139     5.4742    -2.1697 C.ar    
  26 C26           -5.3668     4.3733    -5.0691 C.3     
  27 Cl27          -4.4840    -2.1394    -1.2639 Cl      
  28 H28           -0.0426     0.0506    -0.9023 H       
  29 H29            2.2637    -0.6843    -1.1888 H       
  30 H30            4.1298     0.8866    -0.8875 H       
  31 H31            3.7229     3.2121    -0.2949 H       
  32 H32           -0.0652     5.7341     0.4969 H       
  33 H33           -2.9191     2.1708    -0.2675 H       
  34 H34           -2.0599     1.8852    -2.5760 H       
  35 H35           -1.0618     0.5144    -2.0349 H       
  36 H36           -4.1060     0.6719    -1.8759 H       
  37 H37           -3.1762    -0.2749    -3.0622 H       
  38 H38           -2.1529    -1.5799    -1.2187 H       
  39 H39           -4.0101     0.0766     0.5487 H       
  40 H40           -3.0120    -1.2943     1.0898 H       
  41 H41           -0.9660    -0.0809     0.3897 H       
  42 H42           -1.8958     0.8658     1.5760 H       
  43 H43           -4.4540     2.6181    -0.8725 H       
  44 H44           -5.5693     2.5710    -3.0672 H       
  45 H45           -3.6631     6.2397    -4.1146 H       
  46 H46           -2.5543     6.2910    -1.9166 H       
  47 H47           -6.3243     4.8897    -5.0018 H       
  48 H48           -4.7371     4.8703    -5.8071 H       
  49 H49           -5.5322     3.3389    -5.3702 H       
@<TRIPOS>BOND
   1    1    2 ar
   2    1    6 ar
   3    1   10 ar
   4    2    3 ar
   5    2   28 1
   6    3    4 ar
   7    3   29 1
   8    4    5 ar
   9    4   30 1
  10    5    6 ar
  11    5   31 1
  12    6    7 ar
  13    7    8 ar
  14    8    9 ar
  15    8   32 1
  16    9   10 ar
  17    9   17 1
  18   10   11 1
  19   11   12 1
  20   11   16 1
  21   11   33 1
  22   12   13 1
  23   12   34 1
  24   12   35 1
  25   13   14 1
  26   13   36 1
  27   13   37 1
  28   14   15 1
  29   14   27 1
  30   14   38 1
  31   15   16 1
  32   15   39 1
  33   15   40 1
  34   16   41 1
  35   16   42 1
  36   17   18 2
  37   17   19 2
  38   17   20 1
  39   20   21 ar
  40   20   25 ar
  41   21   22 ar
  42   21   43 1
  43   22   23 ar
  44   22   44 1
  45   23   24 ar
  46   23   26 1
  47   24   25 ar
  48   24   45 1
  49   25   46 1
  50   26   47 1
  51   26   48 1
  52   26   49 1

#	End of record

