#	Name: ASD05130017
#	Creating user name:	WinNT
#	Creation time:	15. 06. 2019 20:56

#	Modifying user name:	WinNT
#	Modification time:	15. 06. 2019 20:56

#	Program:	/corina/corina34_cracker 3.40 0067  02.08.2006

@<TRIPOS>MOLECULE
ASD05130017
  64   67    0    0    0
SMALL
NO_CHARGES


@<TRIPOS>ATOM
   1 N1            -2.2210     1.3425    -0.0124 N.am    
   2 C2            -2.2168    -0.0052    -0.0181 C.2     
   3 O3            -3.2677    -0.6165    -0.0136 O.2     
   4 N4            -1.0475    -0.6754    -0.0287 N.am    
   5 C5            -3.4920     2.0710    -0.0009 C.3     
   6 C6            -0.9546     2.0790    -0.0117 C.3     
   7 N7             1.3213    -4.8572    -0.0542 N.am    
   8 C8             1.3052    -6.2007     0.0486 C.2     
   9 C9             0.0436    -6.9080     0.2813 C.2     
  10 C10           -1.1188    -6.1955     0.3936 C.2     
  11 C11           -1.0755    -4.7852     0.2819 C.ar    
  12 C12           -2.2407    -4.0161     0.3907 C.ar    
  13 N13           -2.1827    -2.7065     0.2849 N.ar    
  14 C14           -1.0400    -2.0631     0.0740 C.ar    
  15 C15            0.1603    -2.7470    -0.0462 C.ar    
  16 C16            0.1566    -4.1337     0.0576 C.ar    
  17 O17            2.3436    -6.8295    -0.0527 O.2     
  18 C18            2.5902    -4.1611    -0.2809 C.3     
  19 C19            2.8359    -4.0254    -1.7849 C.3     
  20 C20            0.0267    -8.3854     0.3938 C.ar    
  21 C21           -0.1264    -8.9897     1.6416 C.ar    
  22 C22           -0.1415   -10.3660     1.7451 C.ar    
  23 C23           -0.0050   -11.1505     0.6130 C.ar    
  24 C24            0.1476   -10.5554    -0.6355 C.ar    
  25 C25            0.1579    -9.1744    -0.7476 C.ar    
  26 C26           -0.2748    -8.1397     2.8771 C.3     
  27 F27           -0.0197   -12.4971     0.7205 F       
  28 N28            0.2860   -11.3523    -1.7792 N.am    
  29 C29           -0.2446   -10.9481    -2.9503 C.2     
  30 O30           -0.7711    -9.8553    -3.0343 O.2     
  31 N31           -0.1915   -11.7551    -4.0284 N.am    
  32 C32           -0.6561   -11.2994    -5.2671 C.ar    
  33 C33           -0.0230   -11.6983    -6.4366 C.ar    
  34 C34           -0.4838   -11.2465    -7.6604 C.ar    
  35 C35           -1.5755   -10.3966    -7.7193 C.ar    
  36 C36           -2.2083    -9.9976    -6.5541 C.ar    
  37 C37           -1.7544   -10.4521    -5.3287 C.ar    
  38 F38           -3.2732    -9.1684    -6.6142 F       
  39 F39            0.1319   -11.6343    -8.7986 F       
  40 H40           -0.2112    -0.1904    -0.1080 H       
  41 H41           -3.8004     2.2473     1.0296 H       
  42 H42           -3.3682     3.0259    -0.5115 H       
  43 H43           -4.2533     1.4816    -0.5121 H       
  44 H44           -0.3839     1.8212    -0.9039 H       
  45 H45           -1.1572     3.1500    -0.0069 H       
  46 H46           -0.3806     1.8138     0.8761 H       
  47 H47           -2.0570    -6.7024     0.5648 H       
  48 H48           -3.1908    -4.5002     0.5619 H       
  49 H49            1.0824    -2.2116    -0.2180 H       
  50 H50            2.5467    -3.1701     0.1709 H       
  51 H51            3.4027    -4.7307     0.1701 H       
  52 H52            2.0233    -3.4558    -2.2359 H       
  53 H53            3.7800    -3.5075    -1.9536 H       
  54 H54            2.8794    -5.0164    -2.2368 H       
  55 H55           -0.2597   -10.8320     2.7122 H       
  56 H56            0.2718    -8.7106    -1.7163 H       
  57 H57           -1.3307    -7.9326     3.0509 H       
  58 H58            0.1374    -8.6708     3.7351 H       
  59 H59            0.2617    -7.2010     2.7389 H       
  60 H60            0.7637   -12.1950    -1.7283 H       
  61 H61            0.1687   -12.6519    -3.9457 H       
  62 H62            0.8289   -12.3605    -6.3911 H       
  63 H63           -1.9336   -10.0443    -8.6753 H       
  64 H64           -2.2512   -10.1446    -4.4205 H       
@<TRIPOS>BOND
   1    1    2 am
   2    1    5 1
   3    1    6 1
   4    2    3 2
   5    2    4 am
   6    4   14 1
   7    4   40 1
   8    5   41 1
   9    5   42 1
  10    5   43 1
  11    6   44 1
  12    6   45 1
  13    6   46 1
  14    7    8 am
  15    7   16 1
  16    7   18 1
  17    8    9 1
  18    8   17 2
  19    9   10 2
  20    9   20 1
  21   10   11 1
  22   10   47 1
  23   11   12 ar
  24   11   16 ar
  25   12   13 ar
  26   12   48 1
  27   13   14 ar
  28   14   15 ar
  29   15   16 ar
  30   15   49 1
  31   18   19 1
  32   18   50 1
  33   18   51 1
  34   19   52 1
  35   19   53 1
  36   19   54 1
  37   20   21 ar
  38   20   25 ar
  39   21   22 ar
  40   21   26 1
  41   22   23 ar
  42   22   55 1
  43   23   24 ar
  44   23   27 1
  45   24   25 ar
  46   24   28 1
  47   25   56 1
  48   26   57 1
  49   26   58 1
  50   26   59 1
  51   28   29 am
  52   28   60 1
  53   29   30 2
  54   29   31 am
  55   31   32 1
  56   31   61 1
  57   32   33 ar
  58   32   37 ar
  59   33   34 ar
  60   33   62 1
  61   34   35 ar
  62   34   39 1
  63   35   36 ar
  64   35   63 1
  65   36   37 ar
  66   36   38 1
  67   37   64 1

#	End of record

