#	Name: ASD03330408
#	Creating user name:	WinNT
#	Creation time:	15. 06. 2019 20:37

#	Modifying user name:	WinNT
#	Modification time:	15. 06. 2019 20:37

#	Program:	/corina/corina34_cracker 3.40 0067  02.08.2006

@<TRIPOS>MOLECULE
ASD03330408
  57   59    0    0    0
SMALL
NO_CHARGES


@<TRIPOS>ATOM
   1 C1             0.0175     3.6095    -3.8831 C.3     
   2 N2             0.1064     2.4449    -2.9909 N.3     
   3 C3             0.5437     1.2440    -3.7254 C.3     
   4 C4             1.7729     1.6051    -4.5189 C.2     
   5 N5             2.1622     2.8833    -4.7659 N.pl3   
   6 C6             1.4260     4.0589    -4.2924 C.3     
   7 C7             2.6801     0.7871    -5.1086 C.2     
   8 N8             3.6106     1.5678    -5.7040 N.2     
   9 C9             3.3044     2.8296    -5.5002 C.2     
  10 C10            4.0737     3.9954    -5.9881 C.ar    
  11 C11            5.0402     3.8310    -6.9808 C.ar    
  12 C12            2.6563    -0.6864    -5.1019 C.2     
  13 O13            1.7614    -1.2775    -4.5284 O.2     
  14 C14            3.6026    -2.8437    -5.7246 C.3     
  15 N15            3.6262    -1.3789    -5.7313 N.am    
  16 C16            5.7540     4.9222    -7.4319 C.ar    
  17 C17            5.5130     6.1773    -6.9021 C.ar    
  18 C18            4.5559     6.3468    -5.9176 C.ar    
  19 C19            3.8317     5.2645    -5.4617 C.ar    
  20 C20            3.1437    -2.6916    -8.1759 C.3     
  21 C21            2.7100    -3.3445    -6.8619 C.3     
  22 C22            2.8397    -4.8644    -6.9804 C.3     
  23 C23            5.0019    -3.3695    -5.9155 C.2     
  24 N24            5.3999    -4.4788    -5.2616 N.am    
  25 C25            1.2541    -2.9783    -6.5667 C.3     
  26 O26            5.7699    -2.7945    -6.6574 O.2     
  27 C27            6.7794    -4.9532    -5.3963 C.3     
  28 C28            4.4531    -5.2101    -4.4161 C.3     
  29 H29           -0.5504     3.3410    -4.7738 H       
  30 H30           -0.4869     4.4251    -3.3650 H       
  31 H31            0.7169     2.6334    -2.2100 H       
  32 H32            0.7811     0.4472    -3.0205 H       
  33 H33           -0.2473     0.9164    -4.4000 H       
  34 H34            1.3587     4.7971    -5.0916 H       
  35 H35            1.9381     4.4920    -3.4332 H       
  36 H36            5.2295     2.8517    -7.3949 H       
  37 H37            3.2087    -3.1963    -4.7714 H       
  38 H38            4.3399    -0.9074    -6.1887 H       
  39 H39            6.5027     4.7963    -8.2000 H       
  40 H40            6.0746     7.0282    -7.2583 H       
  41 H41            4.3724     7.3291    -5.5079 H       
  42 H42            3.0849     5.3981    -4.6931 H       
  43 H43            4.1809    -2.9525    -8.3862 H       
  44 H44            2.5079    -3.0484    -8.9861 H       
  45 H45            3.0514    -1.6088    -8.0915 H       
  46 H46            3.8606    -5.1210    -7.2632 H       
  47 H47            2.6014    -5.3252    -6.0218 H       
  48 H48            2.1493    -5.2297    -7.7408 H       
  49 H49            0.6182    -3.3351    -7.3769 H       
  50 H50            0.9451    -3.4434    -5.6306 H       
  51 H51            1.1618    -1.8955    -6.4822 H       
  52 H52            7.3978    -4.4965    -4.6236 H       
  53 H53            6.8031    -6.0374    -5.2870 H       
  54 H54            7.1638    -4.6786    -6.3786 H       
  55 H55            3.8992    -5.9247    -5.0249 H       
  56 H56            4.9982    -5.7426    -3.6367 H       
  57 H57            3.7575    -4.5073    -3.9575 H       
@<TRIPOS>BOND
   1    1    2 1
   2    1    6 1
   3    1   29 1
   4    1   30 1
   5    2    3 1
   6    2   31 1
   7    3    4 1
   8    3   32 1
   9    3   33 1
  10    4    5 1
  11    4    7 2
  12    5    6 1
  13    5    9 1
  14    6   34 1
  15    6   35 1
  16    7    8 1
  17    7   12 1
  18    8    9 2
  19    9   10 1
  20   10   11 ar
  21   10   19 ar
  22   11   16 ar
  23   11   36 1
  24   12   13 2
  25   12   15 am
  26   14   15 1
  27   14   23 1
  28   14   21 1
  29   14   37 1
  30   15   38 1
  31   16   17 ar
  32   16   39 1
  33   17   18 ar
  34   17   40 1
  35   18   19 ar
  36   18   41 1
  37   19   42 1
  38   20   21 1
  39   20   43 1
  40   20   44 1
  41   20   45 1
  42   21   25 1
  43   21   22 1
  44   22   46 1
  45   22   47 1
  46   22   48 1
  47   23   24 am
  48   23   26 2
  49   24   27 1
  50   24   28 1
  51   25   49 1
  52   25   50 1
  53   25   51 1
  54   27   52 1
  55   27   53 1
  56   27   54 1
  57   28   55 1
  58   28   56 1
  59   28   57 1

#	End of record

