#	Name: ASD01412093
#	Creating user name:	WinNT
#	Creation time:	15. 06. 2019 19:20

#	Modifying user name:	WinNT
#	Modification time:	15. 06. 2019 19:20

#	Program:	/corina/corina34_cracker 3.40 0067  02.08.2006

@<TRIPOS>MOLECULE
ASD01412093
  83   89    0    0    0
SMALL
NO_CHARGES


@<TRIPOS>ATOM
   1 C1             1.3392     3.8281    -2.6751 C.ar    
   2 C2             0.7048     2.5546    -2.7002 C.ar    
   3 C3            -0.5228     2.7182    -3.3680 C.2     
   4 C4            -0.6092     4.0120    -3.7253 C.2     
   5 N5             0.4884     4.7179    -3.2661 N.pl3   
   6 C6            -1.6177     4.7283    -4.5412 C.2     
   7 C7            -1.2078     5.6214    -5.4865 C.2     
   8 C8             0.2310     5.8355    -5.8354 C.3     
   9 C9             0.9999     6.6532    -4.7786 C.3     
  10 C10            0.5869     6.1626    -3.3851 C.3     
  11 N11           -2.9573     4.7001    -4.5460 N.2     
  12 C12           -3.3756     5.5820    -5.4154 C.2     
  13 O13           -2.3153     6.1778    -5.9885 O.3     
  14 C14           -1.5477     1.6457    -3.6333 C.3     
  15 C15           -0.9179     0.5363    -4.4780 C.3     
  16 C16           -1.9584    -0.5526    -4.7474 C.3     
  17 C17           -2.4420    -1.1359    -3.4182 C.3     
  18 C18           -3.0717    -0.0265    -2.5735 C.3     
  19 C19           -2.0313     1.0624    -2.3041 C.3     
  20 C20            2.5950     3.9831    -2.1048 C.ar    
  21 C21            3.1869     2.8395    -1.5545 C.ar    
  22 C22            2.5465     1.5950    -1.5696 C.ar    
  23 C23            1.3111     1.4235    -2.1313 C.ar    
  24 C24            4.5240     2.9495    -0.9416 C.2     
  25 N25            5.1116     1.8611    -0.4063 N.am    
  26 O26            5.0962     4.0223    -0.9193 O.2     
  27 C27            6.4854     1.9427     0.0959 C.3     
  28 C28            6.5676     2.9523     1.2117 C.2     
  29 C29            6.9469     0.5596     0.5996 C.3     
  30 C30            7.7103    -0.0476    -0.6035 C.3     
  31 C31            8.4496     1.1790    -1.1934 C.3     
  32 C32            7.4407     2.3378    -1.0439 C.3     
  33 N33            5.5646     3.0509     2.1066 N.am    
  34 O34            7.5363     3.6761     1.3044 O.2     
  35 C35            5.5704     4.0778     3.0502 C.ar    
  36 C36            5.0268     3.8625     4.3132 C.ar    
  37 C37            5.0307     4.8727     5.2476 C.ar    
  38 C38            5.5829     6.1186     4.9262 C.ar    
  39 C39            6.1287     6.3305     3.6543 C.ar    
  40 C40            6.1251     5.3129     2.7281 C.ar    
  41 C41            5.5890     7.2005     5.9204 C.2     
  42 C42            6.1223     8.4019     5.6081 C.2     
  43 C43            6.1282     9.4459     6.5674 C.2     
  44 O44            5.6531     9.2598     7.6717 O.2     
  45 O45            6.6608    10.6457     6.2555 O.3     
  46 H46            0.7128     4.8639    -5.9444 H       
  47 H47            0.2852     6.3589    -6.7900 H       
  48 H48            2.0720     6.5101    -4.9140 H       
  49 H49            0.7531     7.7098    -4.8827 H       
  50 H50           -0.3816     6.5974    -3.1378 H       
  51 H51            1.3185     6.5208    -2.6608 H       
  52 H52           -4.4101     5.7978    -5.6386 H       
  53 H53           -2.3930     2.0758    -4.1704 H       
  54 H54           -0.5733     0.9519    -5.4250 H       
  55 H55           -0.0725     0.1062    -3.9410 H       
  56 H56           -2.8037    -0.1225    -5.2845 H       
  57 H57           -1.5097    -1.3430    -5.3492 H       
  58 H58           -3.1832    -1.9117    -3.6101 H       
  59 H59           -1.5966    -1.5660    -2.8812 H       
  60 H60           -3.9171     0.4036    -3.1105 H       
  61 H61           -3.4163    -0.4421    -1.6265 H       
  62 H62           -1.1859     0.6323    -1.7671 H       
  63 H63           -2.4799     1.8527    -1.7023 H       
  64 H64            3.0928     4.9413    -2.0865 H       
  65 H65            3.0426     0.7450    -1.1250 H       
  66 H66            0.8235     0.4599    -2.1369 H       
  67 H67            4.6248     1.0237    -0.3536 H       
  68 H68            7.6108     0.6680     1.4573 H       
  69 H69            6.0871    -0.0589     0.8573 H       
  70 H70            8.4213    -0.8028    -0.2686 H       
  71 H71            7.0147    -0.4660    -1.3310 H       
  72 H72            9.3562     1.3874    -0.6254 H       
  73 H73            8.6865     1.0126    -2.2443 H       
  74 H74            6.8821     2.4685    -1.9707 H       
  75 H75            7.9651     3.2591    -0.7904 H       
  76 H76            4.8387     2.4076     2.0943 H       
  77 H77            4.6008     2.9013     4.5601 H       
  78 H78            4.6083     4.7048     6.2273 H       
  79 H79            6.5553     7.2901     3.4020 H       
  80 H80            6.5462     5.4753     1.7469 H       
  81 H81            5.1672     7.0353     6.9008 H       
  82 H82            6.5441     8.5671     4.6277 H       
  83 H83            6.6190    11.2930     6.9727 H       
@<TRIPOS>BOND
   1    1    2 ar
   2    1   20 ar
   3    1    5 1
   4    2    3 1
   5    2   23 ar
   6    3    4 2
   7    3   14 1
   8    4    5 1
   9    4    6 1
  10    5   10 1
  11    6    7 2
  12    6   11 1
  13    7    8 1
  14    7   13 1
  15    8    9 1
  16    8   46 1
  17    8   47 1
  18    9   10 1
  19    9   48 1
  20    9   49 1
  21   10   50 1
  22   10   51 1
  23   11   12 2
  24   12   13 1
  25   12   52 1
  26   14   15 1
  27   14   19 1
  28   14   53 1
  29   15   16 1
  30   15   54 1
  31   15   55 1
  32   16   17 1
  33   16   56 1
  34   16   57 1
  35   17   18 1
  36   17   58 1
  37   17   59 1
  38   18   19 1
  39   18   60 1
  40   18   61 1
  41   19   62 1
  42   19   63 1
  43   20   21 ar
  44   20   64 1
  45   21   22 ar
  46   21   24 1
  47   22   23 ar
  48   22   65 1
  49   23   66 1
  50   24   25 am
  51   24   26 2
  52   25   27 1
  53   25   67 1
  54   27   28 1
  55   27   29 1
  56   27   32 1
  57   28   33 am
  58   28   34 2
  59   29   30 1
  60   29   68 1
  61   29   69 1
  62   30   31 1
  63   30   70 1
  64   30   71 1
  65   31   32 1
  66   31   72 1
  67   31   73 1
  68   32   74 1
  69   32   75 1
  70   33   35 1
  71   33   76 1
  72   35   36 ar
  73   35   40 ar
  74   36   37 ar
  75   36   77 1
  76   37   38 ar
  77   37   78 1
  78   38   39 ar
  79   38   41 1
  80   39   40 ar
  81   39   79 1
  82   40   80 1
  83   41   42 2
  84   41   81 1
  85   42   43 1
  86   42   82 1
  87   43   44 2
  88   43   45 1
  89   45   83 1

#	End of record

