#	Name: ASD03090018
#	Creating user name:	WinNT
#	Creation time:	15. 06. 2019 20:28

#	Modifying user name:	WinNT
#	Modification time:	15. 06. 2019 20:28

#	Program:	/corina/corina34_cracker 3.40 0067  02.08.2006

@<TRIPOS>MOLECULE
ASD03090018
  46   48    0    0    0
SMALL
NO_CHARGES


@<TRIPOS>ATOM
   1 C1            -0.1323     1.1511     0.1619 C.ar    
   2 C2            -0.0338    -0.2177     0.3322 C.ar    
   3 C3             1.2007    -0.8347     0.2783 C.ar    
   4 C4             2.3436    -0.0791     0.0528 C.ar    
   5 C5             2.2415     1.2951    -0.1177 C.ar    
   6 C6             1.0041     1.9063    -0.0627 C.ar    
   7 S7            -1.7098     1.9336     0.2241 S.o2    
   8 O8            -1.5838     3.1488    -0.5015 O.2     
   9 O9            -2.6668     0.9331    -0.0956 O.2     
  10 N10           -1.9850     2.3570     1.8012 N.am    
  11 N11            3.5973    -0.7020    -0.0020 N.pl3   
  12 C12            3.9995    -1.5382    -0.9781 C.2     
  13 C13            5.2888    -1.9534    -0.6949 C.2     
  14 C14            5.6630    -1.2950     0.5604 C.2     
  15 C15            4.5952    -0.5426     0.9298 C.2     
  16 C16            6.1136    -2.8667    -1.4895 C.2     
  17 O17            5.6752    -3.3430    -2.5158 O.2     
  18 C18            7.5067    -3.2149    -1.0322 C.3     
  19 C19            8.1462    -4.1788    -2.0336 C.3     
  20 C20            3.1834    -1.9520    -2.1756 C.3     
  21 C21            4.5169     0.3061     2.1385 C.ar    
  22 C22            3.2745     0.6682     2.6608 C.ar    
  23 C23            3.2076     1.4596     3.7887 C.ar    
  24 C24            4.3701     1.8949     4.4022 C.ar    
  25 C25            5.6057     1.5392     3.8882 C.ar    
  26 C26            5.6850     0.7430     2.7644 C.ar    
  27 Cl27           4.2782     2.8910     5.8210 Cl      
  28 H28           -0.9231    -0.8048     0.5079 H       
  29 H29            1.2770    -1.9037     0.4117 H       
  30 H30            3.1287     1.8854    -0.2932 H       
  31 H31            0.9240     2.9751    -0.1956 H       
  32 H32           -1.3216     2.1571     2.4800 H       
  33 H33           -2.8098     2.8050     2.0462 H       
  34 H34            6.6026    -1.3871     1.0849 H       
  35 H35            8.1059    -2.3066    -0.9688 H       
  36 H36            7.4596    -3.6883    -0.0515 H       
  37 H37            9.1538    -4.4307    -1.7028 H       
  38 H38            7.5470    -5.0872    -2.0970 H       
  39 H39            8.1934    -3.7055    -3.0143 H       
  40 H40            3.3595    -1.2540    -2.9941 H       
  41 H41            3.4752    -2.9557    -2.4848 H       
  42 H42            2.1253    -1.9457    -1.9140 H       
  43 H43            2.3671     0.3298     2.1826 H       
  44 H44            2.2467     1.7405     4.1938 H       
  45 H45            6.5091     1.8819     4.3707 H       
  46 H46            6.6493     0.4625     2.3671 H       
@<TRIPOS>BOND
   1    1    2 ar
   2    1    6 ar
   3    1    7 1
   4    2    3 ar
   5    2   28 1
   6    3    4 ar
   7    3   29 1
   8    4    5 ar
   9    4   11 1
  10    5    6 ar
  11    5   30 1
  12    6   31 1
  13    7    8 2
  14    7    9 2
  15    7   10 am
  16   10   32 1
  17   10   33 1
  18   11   12 1
  19   11   15 1
  20   12   13 2
  21   12   20 1
  22   13   14 1
  23   13   16 1
  24   14   15 2
  25   14   34 1
  26   15   21 1
  27   16   17 2
  28   16   18 1
  29   18   19 1
  30   18   35 1
  31   18   36 1
  32   19   37 1
  33   19   38 1
  34   19   39 1
  35   20   40 1
  36   20   41 1
  37   20   42 1
  38   21   22 ar
  39   21   26 ar
  40   22   23 ar
  41   22   43 1
  42   23   24 ar
  43   23   44 1
  44   24   25 ar
  45   24   27 1
  46   25   26 ar
  47   25   45 1
  48   26   46 1

#	End of record

