#	Name: ASD01122016
#	Creating user name:	WinNT
#	Creation time:	15. 06. 2019 18:59

#	Modifying user name:	WinNT
#	Modification time:	15. 06. 2019 18:59

#	Program:	/corina/corina34_cracker 3.40 0067  02.08.2006

@<TRIPOS>MOLECULE
ASD01122016
  68   69    0    0    0
SMALL
NO_CHARGES


@<TRIPOS>ATOM
   1 C1            -1.7450     2.4634     2.4192 C.2     
   2 S2            -2.1384     1.4124     3.7760 S.3     
   3 C3            -3.6755     1.0031     3.0184 C.2     
   4 C4            -3.7612     1.6672     1.8504 C.2     
   5 N5            -2.7163     2.4435     1.5603 N.2     
   6 C6            -4.9319     1.5489     0.9564 C.2     
   7 C7            -5.5200     2.5667     0.2729 C.2     
   8 C8            -6.5934     2.0045    -0.4486 C.2     
   9 C9            -6.6068     0.6865    -0.1728 C.2     
  10 O10           -5.5980     0.4134     0.6726 O.3     
  11 P11           -7.7861    -0.5211    -0.8373 P.3     
  12 C12           -4.7159     0.0693     3.5810 C.3     
  13 N13           -0.5801     3.2022     2.2919 N.pl3   
  14 O14           -8.9708     0.1881    -1.3703 O.2     
  15 C15           -4.4607    -1.3486     3.0657 C.3     
  16 C16           -3.1408    -1.8693     3.6379 C.3     
  17 C17           -5.6042    -2.2648     3.5060 C.3     
  18 C18           -6.9934    -1.4712    -2.1761 C.3     
  19 O19           -6.5266    -0.5598    -3.2055 O.3     
  20 C20           -5.3891     0.1083    -2.9576 C.2     
  21 C21           -4.9117     1.1660    -3.9191 C.3     
  22 C22           -3.5555     1.7018    -3.4557 C.3     
  23 C23           -4.7697     0.5586    -5.3162 C.3     
  24 C24           -5.9250     2.3115    -3.9616 C.3     
  25 O25           -4.7480    -0.1382    -1.9636 O.2     
  26 C26           -8.3046    -1.6580     0.4900 C.3     
  27 O27           -9.2369    -2.6340    -0.0454 O.3     
  28 C28           -8.7191    -3.6358    -0.7733 C.2     
  29 C29           -9.6320    -4.6284    -1.4460 C.3     
  30 C30           -8.7940    -5.6590    -2.2053 C.3     
  31 C31          -10.4799    -5.3392    -0.3892 C.3     
  32 C32          -10.5491    -3.8946    -2.4266 C.3     
  33 O33           -7.5211    -3.7419    -0.8893 O.2     
  34 H34           -5.2226     3.6049     0.2810 H       
  35 H35           -7.2758     2.5315    -1.0990 H       
  36 H36           -4.6594     0.0759     4.6695 H       
  37 H37           -5.7067     0.3973     3.2666 H       
  38 H38            0.0971     3.1635     2.9853 H       
  39 H39           -0.4416     3.7583     1.5092 H       
  40 H40           -4.4046    -1.3349     1.9772 H       
  41 H41           -2.3261    -1.2166     3.3242 H       
  42 H42           -3.1969    -1.8830     4.7264 H       
  43 H43           -2.9590    -2.8794     3.2707 H       
  44 H44           -6.5313    -1.9421     3.0322 H       
  45 H45           -5.3827    -3.2902     3.2101 H       
  46 H46           -5.7133    -2.2147     4.5893 H       
  47 H47           -6.1478    -2.0292    -1.7741 H       
  48 H48           -7.7156    -2.1654    -2.6058 H       
  49 H49           -2.8335     0.8857    -3.4255 H       
  50 H50           -3.2102     2.4668    -4.1511 H       
  51 H51           -3.6566     2.1345    -2.4604 H       
  52 H52           -5.7160     0.1069    -5.6138 H       
  53 H53           -4.5008     1.3403    -6.0266 H       
  54 H54           -3.9912    -0.2041    -5.3033 H       
  55 H55           -6.0794     2.6976    -2.9540 H       
  56 H56           -5.5463     3.1081    -4.6019 H       
  57 H57           -6.8714     1.9448    -4.3591 H       
  58 H58           -7.4306    -2.1719     0.8903 H       
  59 H59           -8.7887    -1.0913     1.2853 H       
  60 H60           -8.1406    -6.1817    -1.5067 H       
  61 H61           -9.4543    -6.3769    -2.6918 H       
  62 H62           -8.1900    -5.1526    -2.9581 H       
  63 H63          -11.0769    -4.6050     0.1516 H       
  64 H64          -11.1402    -6.0571    -0.8758 H       
  65 H65           -9.8265    -5.8619     0.3093 H       
  66 H66           -9.9451    -3.3882    -3.1795 H       
  67 H67          -11.2094    -4.6125    -2.9132 H       
  68 H68          -11.1461    -3.1604    -1.8857 H       
@<TRIPOS>BOND
   1    1    2 1
   2    1   13 1
   3    1    5 2
   4    2    3 1
   5    3    4 2
   6    3   12 1
   7    4    5 1
   8    4    6 1
   9    6    7 2
  10    6   10 1
  11    7    8 1
  12    7   34 1
  13    8    9 2
  14    8   35 1
  15    9   10 1
  16    9   11 1
  17   11   14 2
  18   11   18 1
  19   11   26 1
  20   12   15 1
  21   12   36 1
  22   12   37 1
  23   13   38 1
  24   13   39 1
  25   15   16 1
  26   15   17 1
  27   15   40 1
  28   16   41 1
  29   16   42 1
  30   16   43 1
  31   17   44 1
  32   17   45 1
  33   17   46 1
  34   18   19 1
  35   18   47 1
  36   18   48 1
  37   19   20 1
  38   20   21 1
  39   20   25 2
  40   21   22 1
  41   21   23 1
  42   21   24 1
  43   22   49 1
  44   22   50 1
  45   22   51 1
  46   23   52 1
  47   23   53 1
  48   23   54 1
  49   24   55 1
  50   24   56 1
  51   24   57 1
  52   26   27 1
  53   26   58 1
  54   26   59 1
  55   27   28 1
  56   28   29 1
  57   28   33 2
  58   29   30 1
  59   29   31 1
  60   29   32 1
  61   30   60 1
  62   30   61 1
  63   30   62 1
  64   31   63 1
  65   31   64 1
  66   31   65 1
  67   32   66 1
  68   32   67 1
  69   32   68 1

#	End of record

