#	Name: ASD01916392
#	Creating user name:	WinNT
#	Creation time:	15. 06. 2019 20:07

#	Modifying user name:	WinNT
#	Modification time:	15. 06. 2019 20:07

#	Program:	/corina/corina34_cracker 3.40 0067  02.08.2006

@<TRIPOS>MOLECULE
ASD01916392
  34   36    0    0    0
SMALL
NO_CHARGES


@<TRIPOS>ATOM
   1 N1            -0.0157     1.3066     0.0092 N.ar    
   2 C2             0.0021    -0.0041     0.0020 C.ar    
   3 C3             1.1967    -0.7211    -0.0128 C.ar    
   4 C4             2.3902    -0.0572    -0.0206 C.ar    
   5 C5             2.3672     1.3504    -0.0132 C.ar    
   6 C6             3.5535     2.1011    -0.0200 C.ar    
   7 C7             3.4892     3.4613    -0.0122 C.ar    
   8 C8             2.2611     4.1187     0.0030 C.ar    
   9 C9             1.0917     3.4224     0.0100 C.ar    
  10 C10            1.1167     2.0170     0.0022 C.ar    
  11 C11           -1.3043    -0.7554     0.0104 C.3     
  12 C12           -2.1475    -0.2988     1.2026 C.3     
  13 C13           -3.4235    -1.0326     1.2109 C.1     
  14 C14           -4.4412    -1.6179     1.2174 C.1     
  15 C15           -5.6825    -2.3318     1.2254 C.ar    
  16 C16           -6.6196    -2.0799     2.2282 C.ar    
  17 C17           -7.8141    -2.7779     2.2221 C.ar    
  18 C18           -8.0346    -3.7059     1.2136 C.ar    
  19 C19           -7.0626    -3.9059     0.2508 C.ar    
  20 N20           -5.9353    -3.2246     0.2754 N.ar    
  21 H21            1.1789    -1.8009    -0.0177 H       
  22 H22            3.3255    -0.5970    -0.0317 H       
  23 H23            4.5116     1.6027    -0.0311 H       
  24 H24            4.4024     4.0379    -0.0174 H       
  25 H25            2.2365     5.1984     0.0097 H       
  26 H26            0.1481     3.9476     0.0221 H       
  27 H27           -1.8446    -0.5550    -0.9148 H       
  28 H28           -1.1080    -1.8244     0.0924 H       
  29 H29           -1.6072    -0.4991     2.1278 H       
  30 H30           -2.3437     0.7703     1.1207 H       
  31 H31           -6.4152    -1.3508     2.9983 H       
  32 H32           -8.5585    -2.6048     2.9853 H       
  33 H33           -8.9569    -4.2670     1.1815 H       
  34 H34           -7.2316    -4.6276    -0.5347 H       
@<TRIPOS>BOND
   1    1    2 ar
   2    1   10 ar
   3    2    3 ar
   4    2   11 1
   5    3    4 ar
   6    3   21 1
   7    4    5 ar
   8    4   22 1
   9    5    6 ar
  10    5   10 ar
  11    6    7 ar
  12    6   23 1
  13    7    8 ar
  14    7   24 1
  15    8    9 ar
  16    8   25 1
  17    9   10 ar
  18    9   26 1
  19   11   12 1
  20   11   27 1
  21   11   28 1
  22   12   13 1
  23   12   29 1
  24   12   30 1
  25   13   14 3
  26   14   15 1
  27   15   16 ar
  28   15   20 ar
  29   16   17 ar
  30   16   31 1
  31   17   18 ar
  32   17   32 1
  33   18   19 ar
  34   18   33 1
  35   19   20 ar
  36   19   34 1

#	End of record

