#	Name: ASD01028770
#	Creating user name:	WinNT
#	Creation time:	15. 06. 2019 18:58

#	Modifying user name:	WinNT
#	Modification time:	15. 06. 2019 18:58

#	Program:	/corina/corina34_cracker 3.40 0067  02.08.2006

@<TRIPOS>MOLECULE
ASD01028770
  29   31    0    0    0
SMALL
NO_CHARGES


@<TRIPOS>ATOM
   1 N1            -0.0157     1.3059     0.0092 N.ar    
   2 C2             0.0021    -0.0041     0.0020 C.ar    
   3 C3             1.2047    -0.7195    -0.0133 C.ar    
   4 C4             2.3983    -0.0476    -0.0211 C.ar    
   5 C5             2.3699     1.3597    -0.0132 C.ar    
   6 N6             3.4995     2.0727    -0.0196 N.ar    
   7 C7             3.4781     3.3843    -0.0120 C.ar    
   8 C8             2.2813     4.0950     0.0036 C.ar    
   9 C9             1.0888     3.4259     0.0114 C.ar    
  10 C10            1.1149     2.0165     0.0022 C.ar    
  11 O11            1.1884    -2.0780    -0.0200 O.3     
  12 C12           -0.0925    -2.7114    -0.0108 C.3     
  13 N13            0.3438    -6.3083     0.5836 N.2     
  14 N14            0.1916    -4.9970     1.0630 N.pl3   
  15 C15            0.0870    -4.2077    -0.0201 C.2     
  16 N16            0.1674    -4.9652    -1.0837 N.2     
  17 C17            0.3230    -6.2380    -0.7215 C.2     
  18 C18            0.1536    -4.5736     2.4650 C.3     
  19 Cl19          -0.4172     4.2892     0.0320 Cl      
  20 H20           -0.9331    -0.5443     0.0084 H       
  21 H21            3.3360    -0.5833    -0.0326 H       
  22 H22            4.4122     3.9262    -0.0176 H       
  23 H23            2.2947     5.1749     0.0100 H       
  24 H24           -0.6373    -2.4164     0.8861 H       
  25 H25           -0.6546    -2.4074    -0.8938 H       
  26 H26            0.4167    -7.0757    -1.3966 H       
  27 H27            1.1645    -4.3464     2.8035 H       
  28 H28           -0.4695    -3.6842     2.5592 H       
  29 H29           -0.2625    -5.3750     3.0755 H       
@<TRIPOS>BOND
   1    1    2 ar
   2    1   10 ar
   3    2    3 ar
   4    2   20 1
   5    3    4 ar
   6    3   11 1
   7    4    5 ar
   8    4   21 1
   9    5    6 ar
  10    5   10 ar
  11    6    7 ar
  12    7    8 ar
  13    7   22 1
  14    8    9 ar
  15    8   23 1
  16    9   10 ar
  17    9   19 1
  18   11   12 1
  19   12   15 1
  20   12   24 1
  21   12   25 1
  22   13   14 1
  23   13   17 2
  24   14   15 1
  25   14   18 1
  26   15   16 2
  27   16   17 1
  28   17   26 1
  29   18   27 1
  30   18   28 1
  31   18   29 1

#	End of record

