#	Name: ASD09080020
#	Creating user name:	WinNT
#	Creation time:	15. 06. 2019 21:20

#	Modifying user name:	WinNT
#	Modification time:	15. 06. 2019 21:20

#	Program:	/corina/corina34_cracker 3.40 0067  02.08.2006

@<TRIPOS>MOLECULE
ASD09080020
  58   59    0    0    0
SMALL
NO_CHARGES


@<TRIPOS>ATOM
   1 C1            -0.0167     1.3799     0.0096 C.ar    
   2 C2             0.0021    -0.0041     0.0020 C.ar    
   3 C3            -1.1844    -0.7169     0.0091 C.ar    
   4 C4            -2.3938    -0.0494     0.0242 C.ar    
   5 C5            -2.4179     1.3436     0.0324 C.ar    
   6 C6            -1.2209     2.0565     0.0305 C.ar    
   7 Cl7            1.4756     2.2669     0.0001 Cl      
   8 Cl8           -1.1526    -2.4526    -0.0017 Cl      
   9 C9            -3.7143     2.0655     0.0481 C.ar    
  10 C10           -3.7388     3.4586     0.0563 C.ar    
  11 C11           -4.9474     4.1250     0.0704 C.ar    
  12 C12           -6.1329     3.4124     0.0765 C.ar    
  13 C13           -6.1145     2.0293     0.0689 C.ar    
  14 C14           -4.9116     1.3528     0.0489 C.ar    
  15 C15           -7.4494     4.1455     0.0919 C.3     
  16 C16           -7.9073     4.4019    -1.3453 C.3     
  17 C17           -9.2797     5.0244    -1.3318 C.2     
  18 C18           -9.4926     6.1795    -1.9576 C.2     
  19 C19          -10.8308     6.7865    -1.9444 C.2     
  20 O20          -11.7431     6.2336    -1.3621 O.2     
  21 N21           -6.9653     5.3107    -2.0032 N.am    
  22 O22           -5.8924     7.3800    -2.1070 O.3     
  23 C23           -5.7192     8.6934    -1.5126 C.3     
  24 C24           -5.2095     8.5407    -0.0781 C.3     
  25 C25           -4.7051     9.4942    -2.3317 C.3     
  26 C26           -7.0607     9.4291    -1.5016 C.3     
  27 C27           -6.7582     6.5447    -1.5024 C.2     
  28 O28           -7.3528     6.9035    -0.5053 O.2     
  29 O29          -11.0465     7.9564    -2.5782 O.3     
  30 C30          -12.4432     9.8187    -3.2933 C.3     
  31 C31          -12.3928     8.4973    -2.5236 C.3     
  32 H32            0.9456    -0.5295    -0.0098 H       
  33 H33           -3.3190    -0.6065     0.0293 H       
  34 H34           -1.2346     3.1364     0.0372 H       
  35 H35           -2.8137     4.0160     0.0519 H       
  36 H36           -4.9675     5.2048     0.0771 H       
  37 H37           -7.0430     1.4778     0.0744 H       
  38 H38           -4.8983     0.2729     0.0430 H       
  39 H39           -8.1955     3.5418     0.6087 H       
  40 H40           -7.3295     5.0969     0.6102 H       
  41 H41           -7.9418     3.4581    -1.8895 H       
  42 H42          -10.0904     4.5331    -0.8143 H       
  43 H43           -8.6819     6.6707    -2.4750 H       
  44 H44           -6.4906     5.0244    -2.7991 H       
  45 H45           -4.2538     8.0166    -0.0859 H       
  46 H46           -5.0795     9.5267     0.3682 H       
  47 H47           -5.9321     7.9702     0.5055 H       
  48 H48           -5.0682     9.6030    -3.3536 H       
  49 H49           -4.5751    10.4802    -1.8854 H       
  50 H50           -3.7494     8.9701    -2.3395 H       
  51 H51           -7.7832     8.8586    -0.9180 H       
  52 H52           -6.9307    10.4150    -1.0553 H       
  53 H53           -7.4238     9.5378    -2.5235 H       
  54 H54          -11.7482    10.5278    -2.8437 H       
  55 H55          -12.1634     9.6448    -4.3323 H       
  56 H56          -13.4539    10.2247    -3.2523 H       
  57 H57          -13.0878     7.7882    -2.9733 H       
  58 H58          -12.6726     8.6712    -1.4846 H       
@<TRIPOS>BOND
   1    1    2 ar
   2    1    7 1
   3    1    6 ar
   4    2    3 ar
   5    2   32 1
   6    3    4 ar
   7    3    8 1
   8    4    5 ar
   9    4   33 1
  10    5    6 ar
  11    5    9 1
  12    6   34 1
  13    9   10 ar
  14    9   14 ar
  15   10   11 ar
  16   10   35 1
  17   11   12 ar
  18   11   36 1
  19   12   13 ar
  20   12   15 1
  21   13   14 ar
  22   13   37 1
  23   14   38 1
  24   15   16 1
  25   15   39 1
  26   15   40 1
  27   16   17 1
  28   16   21 1
  29   16   41 1
  30   17   18 2
  31   17   42 1
  32   18   19 1
  33   18   43 1
  34   19   20 2
  35   19   29 1
  36   21   27 am
  37   21   44 1
  38   22   23 1
  39   22   27 1
  40   23   24 1
  41   23   25 1
  42   23   26 1
  43   24   45 1
  44   24   46 1
  45   24   47 1
  46   25   48 1
  47   25   49 1
  48   25   50 1
  49   26   51 1
  50   26   52 1
  51   26   53 1
  52   27   28 2
  53   29   31 1
  54   30   31 1
  55   30   54 1
  56   30   55 1
  57   30   56 1
  58   31   57 1
  59   31   58 1

#	End of record

