#	Name: ASD01120331
#	Creating user name:	WinNT
#	Creation time:	15. 06. 2019 18:59

#	Modifying user name:	WinNT
#	Modification time:	15. 06. 2019 18:59

#	Program:	/corina/corina34_cracker 3.40 0067  02.08.2006

@<TRIPOS>MOLECULE
ASD01120331
  34   36    0    0    0
SMALL
NO_CHARGES


@<TRIPOS>ATOM
   1 O1            -0.0162     1.3443     0.0094 O.3     
   2 C2             0.0021    -0.0041     0.0020 C.2     
   3 O3             1.0631    -0.5976    -0.0113 O.2     
   4 C4            -1.2595    -0.7555     0.0100 C.2     
   5 C5            -1.3708    -2.1117     0.0038 C.2     
   6 C6            -2.7466    -2.4306     0.0161 C.ar    
   7 C7            -3.4530    -1.2131     0.0299 C.ar    
   8 N8            -2.5241    -0.1991     0.0311 N.pl3   
   9 C9            -4.8453    -1.2260     0.0440 C.ar    
  10 C10           -5.5278    -2.4230     0.0444 C.ar    
  11 C11           -4.8451    -3.6295     0.0309 C.ar    
  12 C12           -3.4584    -3.6494     0.0160 C.ar    
  13 C13           -2.7302    -4.9394     0.0013 C.ar    
  14 C14           -3.0514    -5.9352     0.9233 C.ar    
  15 C15           -2.3696    -7.1347     0.9046 C.ar    
  16 C16           -1.3689    -7.3503    -0.0260 C.ar    
  17 C17           -1.0457    -6.3663    -0.9432 C.ar    
  18 C18           -1.7247    -5.1650    -0.9384 C.ar    
  19 C19           -0.6274    -8.6622    -0.0403 C.3     
  20 F20           -1.2864    -9.5610    -0.8859 F       
  21 F21            0.6763    -8.4559    -0.5040 F       
  22 F22           -0.5838    -9.1874     1.2556 F       
  23 N23           -5.5947     0.0505     0.0590 N.pl3   
  24 O24           -6.8127     0.0415     0.0713 O.2     
  25 O25           -4.9935     1.1097     0.0591 O.2     
  26 H26            0.8393     1.7950     0.0037 H       
  27 H27           -0.5536    -2.8177    -0.0087 H       
  28 H28           -2.7237     0.7501     0.0395 H       
  29 H29           -6.6077    -2.4213     0.0557 H       
  30 H30           -5.3959    -4.5585     0.0314 H       
  31 H31           -3.8320    -5.7678     1.6507 H       
  32 H32           -2.6174    -7.9066     1.6181 H       
  33 H33           -0.2636    -6.5404    -1.6672 H       
  34 H34           -1.4718    -4.3977    -1.6551 H       
@<TRIPOS>BOND
   1    1    2 1
   2    1   26 1
   3    2    3 2
   4    2    4 1
   5    4    5 2
   6    4    8 1
   7    5    6 1
   8    5   27 1
   9    6    7 ar
  10    6   12 ar
  11    7    8 1
  12    7    9 ar
  13    8   28 1
  14    9   10 ar
  15    9   23 1
  16   10   11 ar
  17   10   29 1
  18   11   12 ar
  19   11   30 1
  20   12   13 1
  21   13   14 ar
  22   13   18 ar
  23   14   15 ar
  24   14   31 1
  25   15   16 ar
  26   15   32 1
  27   16   17 ar
  28   16   19 1
  29   17   18 ar
  30   17   33 1
  31   18   34 1
  32   19   20 1
  33   19   21 1
  34   19   22 1
  35   23   24 2
  36   23   25 2

#	End of record

