#	Name: ASD01560044
#	Creating user name:	WinNT
#	Creation time:	15. 06. 2019 19:22

#	Modifying user name:	WinNT
#	Modification time:	15. 06. 2019 19:22

#	Program:	/corina/corina34_cracker 3.40 0067  02.08.2006

@<TRIPOS>MOLECULE
ASD01560044
  38   41    0    0    0
SMALL
NO_CHARGES


@<TRIPOS>ATOM
   1 Br1            0.0021    -0.0041     0.0020 Br      
   2 C2            -0.0236     1.8867     0.0124 C.ar    
   3 C3             1.1673     2.5925     0.0048 C.ar    
   4 C4             1.1546     3.9721     0.0124 C.ar    
   5 C5            -0.0611     4.6556     0.0276 C.ar    
   6 C6            -1.2578     3.9393     0.0352 C.ar    
   7 C7            -1.2331     2.5599     0.0218 C.ar    
   8 C8            -0.0812     6.1369     0.0363 C.2     
   9 C9             0.6433     6.9764     0.9010 C.2     
  10 N10            0.3689     8.2200     0.6073 N.2     
  11 N11           -0.5408     8.2527    -0.4548 N.am    
  12 C12           -0.8164     6.9584    -0.8142 C.2     
  13 N13           -1.6719     6.7024    -1.8214 N.2     
  14 C14           -2.2504     7.6914    -2.4689 C.2     
  15 S15           -3.3682     7.3419    -3.7853 S.3     
  16 C16           -3.3128     5.5328    -3.7727 C.3     
  17 C17           -4.2203     4.9949    -4.8488 C.2     
  18 N18           -5.5788     5.0140    -4.6765 N.am    
  19 C19           -6.3974     4.5362    -5.6312 C.2     
  20 O20           -7.6005     4.5626    -5.4573 O.2     
  21 N21           -5.9037     4.0299    -6.7764 N.am    
  22 C22           -4.5721     3.9928    -6.9851 C.2     
  23 O23           -4.1250     3.5344    -8.0210 O.2     
  24 C24           -3.6983     4.4967    -5.9904 C.2     
  25 Cl25          -1.9794     4.4631    -6.2306 Cl      
  26 N26           -1.9878     8.9946    -2.1237 N.am    
  27 C27           -1.1290     9.2672    -1.1200 C.2     
  28 O28           -0.8942    10.4192    -0.8111 O.2     
  29 H29            2.1080     2.0622    -0.0066 H       
  30 H30            2.0842     4.5218     0.0068 H       
  31 H31           -2.2021     4.4634     0.0474 H       
  32 H32           -2.1592     2.0041     0.0273 H       
  33 H33            1.3154     6.6476     1.6799 H       
  34 H34           -2.2918     5.1993    -3.9583 H       
  35 H35           -3.6440     5.1659    -2.8012 H       
  36 H36           -5.9542     5.3751    -3.8582 H       
  37 H37           -6.5084     3.6899    -7.4544 H       
  38 H38           -2.4174     9.7194    -2.6043 H       
@<TRIPOS>BOND
   1    1    2 1
   2    2    3 ar
   3    2    7 ar
   4    3    4 ar
   5    3   29 1
   6    4    5 ar
   7    4   30 1
   8    5    6 ar
   9    5    8 1
  10    6    7 ar
  11    6   31 1
  12    7   32 1
  13    8    9 1
  14    8   12 2
  15    9   10 2
  16    9   33 1
  17   10   11 1
  18   11   12 1
  19   11   27 am
  20   12   13 1
  21   13   14 2
  22   14   15 1
  23   14   26 1
  24   15   16 1
  25   16   17 1
  26   16   34 1
  27   16   35 1
  28   17   18 1
  29   17   24 2
  30   18   19 am
  31   18   36 1
  32   19   20 2
  33   19   21 am
  34   21   22 am
  35   21   37 1
  36   22   23 2
  37   22   24 1
  38   24   25 1
  39   26   27 am
  40   26   38 1
  41   27   28 2

#	End of record

