#	Name: ASD03430922
#	Creating user name:	WinNT
#	Creation time:	15. 06. 2019 20:41

#	Modifying user name:	WinNT
#	Modification time:	15. 06. 2019 20:41

#	Program:	/corina/corina34_cracker 3.40 0067  02.08.2006

@<TRIPOS>MOLECULE
ASD03430922
  48   53    0    0    0
SMALL
NO_CHARGES


@<TRIPOS>ATOM
   1 O1            -0.0175     1.4360     0.0099 O.3     
   2 C2             0.0021    -0.0041     0.0020 C.3     
   3 C3             1.3458    -0.3165    -0.6701 C.3     
   4 C4             2.1582     0.9227    -0.4074 C.ar    
   5 C5             1.2618     1.9072     0.0003 C.ar    
   6 C6             1.7450     3.1697     0.3235 C.ar    
   7 C7             3.1023     3.4542     0.2323 C.ar    
   8 C8             3.9759     2.4544    -0.1784 C.ar    
   9 C9             3.5058     1.1997    -0.4981 C.ar    
  10 N10            2.1634    -2.4021    -1.1237 N.am    
  11 C11            1.9846    -1.5483    -0.0960 C.2     
  12 C12            1.1907    -0.5949    -2.1357 C.ar    
  13 C13            0.6786     0.1256    -3.1923 C.ar    
  14 C14            0.6791    -0.4172    -4.4663 C.ar    
  15 C15            1.1940    -1.6833    -4.6740 C.ar    
  16 C16            1.7062    -2.4095    -3.6185 C.ar    
  17 C17            1.7091    -1.8724    -2.3338 C.ar    
  18 O18            2.2812    -1.7379     1.0647 O.2     
  19 C19            5.3712     3.0475    -0.1635 C.3     
  20 C20            5.1635     4.3313     0.6742 C.3     
  21 O21            3.7680     4.6165     0.4796 O.3     
  22 C22            2.7647    -3.7310    -0.9875 C.3     
  23 C23            1.6693    -4.7592    -0.6978 C.3     
  24 C24            2.2922    -6.1466    -0.4263 C.3     
  25 C25            1.3028    -7.1368    -1.0803 C.3     
  26 C26            0.1991    -6.2306    -1.6695 C.3     
  27 O27            0.8377    -4.9497    -1.8631 O.3     
  28 Br28          -0.0257     1.8565    -2.9028 Br      
  29 H29           -0.0226    -0.3969     1.0185 H       
  30 H30           -0.8260    -0.3989    -0.5867 H       
  31 H31            1.0587     3.9376     0.6486 H       
  32 H32            4.1936     0.4322    -0.8211 H       
  33 H33            0.2779     0.1468    -5.2953 H       
  34 H34            1.1949    -2.1064    -5.6676 H       
  35 H35            2.1061    -3.3981    -3.7893 H       
  36 H36            6.0757     2.3737     0.3243 H       
  37 H37            5.7021     3.2904    -1.1733 H       
  38 H38            5.3763     4.1442     1.7267 H       
  39 H39            5.7807     5.1450     0.2931 H       
  40 H40            3.2755    -3.9954    -1.9134 H       
  41 H41            3.4817    -3.7229    -0.1665 H       
  42 H42            1.0665    -4.4409     0.1528 H       
  43 H43            3.2738    -6.2226    -0.8940 H       
  44 H44            2.3636    -6.3300     0.6458 H       
  45 H45            1.7952    -7.7024    -1.8713 H       
  46 H46            0.8850    -7.8098    -0.3315 H       
  47 H47           -0.1499    -6.6284    -2.6224 H       
  48 H48           -0.6307    -6.1388    -0.9688 H       
@<TRIPOS>BOND
   1    1    2 1
   2    1    5 1
   3    2    3 1
   4    2   29 1
   5    2   30 1
   6    3    4 1
   7    3   11 1
   8    3   12 1
   9    4    5 ar
  10    4    9 ar
  11    5    6 ar
  12    6    7 ar
  13    6   31 1
  14    7    8 ar
  15    7   21 1
  16    8    9 ar
  17    8   19 1
  18    9   32 1
  19   10   11 am
  20   10   17 1
  21   10   22 1
  22   11   18 2
  23   12   13 ar
  24   12   17 ar
  25   13   14 ar
  26   13   28 1
  27   14   15 ar
  28   14   33 1
  29   15   16 ar
  30   15   34 1
  31   16   17 ar
  32   16   35 1
  33   19   20 1
  34   19   36 1
  35   19   37 1
  36   20   21 1
  37   20   38 1
  38   20   39 1
  39   22   23 1
  40   22   40 1
  41   22   41 1
  42   23   24 1
  43   23   27 1
  44   23   42 1
  45   24   25 1
  46   24   43 1
  47   24   44 1
  48   25   26 1
  49   25   45 1
  50   25   46 1
  51   26   27 1
  52   26   47 1
  53   26   48 1

#	End of record

