#	Name: ASD01870082
#	Creating user name:	WinNT
#	Creation time:	15. 06. 2019 19:38

#	Modifying user name:	WinNT
#	Modification time:	15. 06. 2019 19:38

#	Program:	/corina/corina34_cracker 3.40 0067  02.08.2006

@<TRIPOS>MOLECULE
ASD01870082
  40   42    0    0    0
SMALL
NO_CHARGES


@<TRIPOS>ATOM
   1 C1            -0.0168     1.3887     0.0097 C.ar    
   2 C2             0.0021    -0.0041     0.0020 C.ar    
   3 C3            -1.1546    -0.7231     0.0087 C.ar    
   4 C4            -2.3911    -0.0573     0.0241 C.ar    
   5 C5            -2.4086     1.3608     0.0324 C.ar    
   6 C6            -1.1955     2.0705     0.0302 C.ar    
   7 N7            -3.5394    -0.7457     0.0304 N.ar    
   8 C8            -4.7022    -0.1456     0.0443 C.ar    
   9 C9            -4.8043     1.2615     0.0533 C.ar    
  10 C10           -3.6431     2.0310     0.0478 C.ar    
  11 C11           -6.1234     1.9094     0.0680 C.2     
  12 Cl12          -6.1510    -1.1019     0.0511 Cl      
  13 C13           -6.2139     3.2577     0.0766 C.2     
  14 C14           -7.5261     3.9022     0.0912 C.2     
  15 O15           -8.5375     3.2240     0.0955 O.2     
  16 C16           -7.6250     5.3757     0.1006 C.ar    
  17 C17            1.2834     2.1505     0.0014 C.3     
  18 C18           -8.8785     5.9938     0.1145 C.ar    
  19 C19           -8.9665     7.3678     0.1232 C.ar    
  20 C20           -7.8106     8.1402     0.1182 C.ar    
  21 C21           -6.5619     7.5293     0.1043 C.ar    
  22 C22           -6.4654     6.1558     0.1014 C.ar    
  23 O23           -7.9015     9.4943     0.1263 O.3     
  24 C24           -6.6746    10.2269     0.1205 C.3     
  25 H25            0.9495    -0.5223    -0.0098 H       
  26 H26           -1.1211    -1.8026     0.0019 H       
  27 H27           -1.1981     3.1505     0.0365 H       
  28 H28           -3.6905     3.1100     0.0548 H       
  29 H29           -7.0204     1.3079     0.0718 H       
  30 H30           -5.3169     3.8591     0.0727 H       
  31 H31            1.5871     2.3397    -1.0283 H       
  32 H32            1.1520     3.0993     0.5216 H       
  33 H33            2.0517     1.5635     0.5047 H       
  34 H34           -9.7770     5.3944     0.1181 H       
  35 H35           -9.9347     7.8462     0.1336 H       
  36 H36           -5.6663     8.1329     0.1004 H       
  37 H37           -5.4949     5.6820     0.0910 H       
  38 H38           -6.8895    11.2955     0.1281 H       
  39 H39           -6.0921     9.9671     1.0044 H       
  40 H40           -6.1064     9.9769    -0.7755 H       
@<TRIPOS>BOND
   1    1    2 ar
   2    1   17 1
   3    1    6 ar
   4    2    3 ar
   5    2   25 1
   6    3    4 ar
   7    3   26 1
   8    4    5 ar
   9    4    7 ar
  10    5    6 ar
  11    5   10 ar
  12    6   27 1
  13    7    8 ar
  14    8    9 ar
  15    8   12 1
  16    9   10 ar
  17    9   11 1
  18   10   28 1
  19   11   13 2
  20   11   29 1
  21   13   14 1
  22   13   30 1
  23   14   15 2
  24   14   16 1
  25   16   18 ar
  26   16   22 ar
  27   17   31 1
  28   17   32 1
  29   17   33 1
  30   18   19 ar
  31   18   34 1
  32   19   20 ar
  33   19   35 1
  34   20   21 ar
  35   20   23 1
  36   21   22 ar
  37   21   36 1
  38   22   37 1
  39   23   24 1
  40   24   38 1
  41   24   39 1
  42   24   40 1

#	End of record

