#	Name: ASD01900059
#	Creating user name:	WinNT
#	Creation time:	15. 06. 2019 19:51

#	Modifying user name:	WinNT
#	Modification time:	15. 06. 2019 19:51

#	Program:	/corina/corina34_cracker 3.40 0067  02.08.2006

@<TRIPOS>MOLECULE
ASD01900059
  38   40    0    0    0
SMALL
NO_CHARGES


@<TRIPOS>ATOM
   1 C1            -0.0167     1.3813     0.0096 C.ar    
   2 C2             0.0021    -0.0041     0.0020 C.ar    
   3 C3             1.2195    -0.6672    -0.0132 C.ar    
   4 C4             2.3825     0.0862    -0.0203 C.ar    
   5 C5             2.2884     1.4763    -0.0120 C.ar    
   6 N6             1.1025     2.0721     0.0027 N.ar    
   7 C7             3.5223     2.2960    -0.0189 C.2     
   8 N8             3.4377     3.6411    -0.0109 N.am    
   9 O9             4.6109     1.7556    -0.0318 O.2     
  10 C10            4.6094     4.4196    -0.0174 C.2     
  11 C11            4.6683     5.7761    -0.0107 C.2     
  12 N12            5.9797     6.1293    -0.0200 N.am    
  13 N13            6.7419     4.9543    -0.0328 N.2     
  14 C14            5.9248     3.9326    -0.0260 C.2     
  15 S15            6.5725     7.6756    -0.0173 S.o2    
  16 O16            7.8784     7.6056    -0.5731 O.2     
  17 O17            5.5447     8.5003    -0.5489 O.2     
  18 C18            6.7735     8.1541     1.6666 C.ar    
  19 C19            7.9699     7.9133     2.3153 C.ar    
  20 C20            8.1276     8.2888     3.6366 C.ar    
  21 C21            7.0890     8.9053     4.3085 C.ar    
  22 C22            5.8925     9.1470     3.6592 C.ar    
  23 C23            5.7364     8.7756     2.3371 C.ar    
  24 C24            9.4318     8.0253     4.3442 C.3     
  25 H25           -0.9634     1.9010     0.0169 H       
  26 H26           -0.9227    -0.5620     0.0082 H       
  27 H27            1.2605    -1.7464    -0.0191 H       
  28 H28            3.3482    -0.3973    -0.0318 H       
  29 H29            2.5689     4.0724    -0.0005 H       
  30 H30            3.8256     6.4515    -0.0001 H       
  31 H31            6.2137     2.8919    -0.0324 H       
  32 H32            8.7815     7.4316     1.7903 H       
  33 H33            7.2119     9.1980     5.3408 H       
  34 H34            5.0808     9.6285     4.1843 H       
  35 H35            4.8018     8.9644     1.8299 H       
  36 H36           10.0958     8.8796     4.2123 H       
  37 H37            9.2439     7.8718     5.4069 H       
  38 H38            9.8989     7.1340     3.9254 H       
@<TRIPOS>BOND
   1    1    2 ar
   2    1    6 ar
   3    1   25 1
   4    2    3 ar
   5    2   26 1
   6    3    4 ar
   7    3   27 1
   8    4    5 ar
   9    4   28 1
  10    5    6 ar
  11    5    7 1
  12    7    8 am
  13    7    9 2
  14    8   10 1
  15    8   29 1
  16   10   11 2
  17   10   14 1
  18   11   12 1
  19   11   30 1
  20   12   13 1
  21   12   15 am
  22   13   14 2
  23   14   31 1
  24   15   16 2
  25   15   17 2
  26   15   18 1
  27   18   19 ar
  28   18   23 ar
  29   19   20 ar
  30   19   32 1
  31   20   21 ar
  32   20   24 1
  33   21   22 ar
  34   21   33 1
  35   22   23 ar
  36   22   34 1
  37   23   35 1
  38   24   36 1
  39   24   37 1
  40   24   38 1

#	End of record

