#	Name: ASD00960293
#	Creating user name:	WinNT
#	Creation time:	15. 06. 2019 18:53

#	Modifying user name:	WinNT
#	Modification time:	15. 06. 2019 18:53

#	Program:	/corina/corina34_cracker 3.40 0067  02.08.2006

@<TRIPOS>MOLECULE
ASD00960293
  35   37    0    0    0
SMALL
NO_CHARGES


@<TRIPOS>ATOM
   1 C1            -0.0166     1.3765     0.0096 C.2     
   2 C2             0.0021    -0.0041     0.0020 C.2     
   3 N3             1.2776     1.8205    -0.0004 N.pl3   
   4 C4             2.1109     0.7512    -0.0003 C.2     
   5 C5             1.3609    -0.3978    -0.0066 C.2     
   6 N6             1.7741     3.1334     0.0042 N.2     
   7 C7             3.0388     3.3181    -0.2321 C.2     
   8 N8             3.8839     2.2703    -0.5237 N.pl3   
   9 C9             3.6120     0.9263     0.0175 C.3     
  10 N10            4.1141     0.8272     1.3945 N.3     
  11 C11            1.8589    -1.7404    -0.0190 C.1     
  12 N12            2.2540    -2.8054    -0.0288 N.1     
  13 C13           -1.2143     2.2197     0.0201 C.2     
  14 O14           -2.3179     1.7085     0.0232 O.2     
  15 O15           -1.0933     3.5631     0.0263 O.3     
  16 C16           -2.3227     4.3357     0.0366 C.3     
  17 C17           -1.9921     5.8059     0.0423 C.ar    
  18 C18           -1.8466     6.4863    -1.1522 C.ar    
  19 C19           -1.5432     7.8350    -1.1469 C.ar    
  20 C20           -1.3858     8.5033     0.0529 C.ar    
  21 C21           -1.5322     7.8231     1.2474 C.ar    
  22 C22           -1.8398     6.4754     1.2421 C.ar    
  23 H23           -0.8569    -0.6587     0.0025 H       
  24 H24            3.4380     4.3211    -0.1993 H       
  25 H25            4.6599     2.4171    -1.0870 H       
  26 H26            4.0839     0.1691    -0.6086 H       
  27 H27            5.1094     0.9892     1.4290 H       
  28 H28            3.6229     1.4628     2.0051 H       
  29 H29           -2.9083     4.0984    -0.8516 H       
  30 H30           -2.8992     4.0894     0.9283 H       
  31 H31           -1.9696     5.9642    -2.0895 H       
  32 H32           -1.4289     8.3664    -2.0801 H       
  33 H33           -1.1481     9.5568     0.0570 H       
  34 H34           -1.4088     8.3452     2.1847 H       
  35 H35           -1.9578     5.9448     2.1753 H       
@<TRIPOS>BOND
   1    1    2 2
   2    1    3 1
   3    1   13 1
   4    2    5 1
   5    2   23 1
   6    3    4 1
   7    3    6 1
   8    4    5 2
   9    4    9 1
  10    5   11 1
  11    6    7 2
  12    7    8 1
  13    7   24 1
  14    8    9 1
  15    8   25 1
  16    9   10 1
  17    9   26 1
  18   10   27 1
  19   10   28 1
  20   11   12 3
  21   13   14 2
  22   13   15 1
  23   15   16 1
  24   16   17 1
  25   16   29 1
  26   16   30 1
  27   17   18 ar
  28   17   22 ar
  29   18   19 ar
  30   18   31 1
  31   19   20 ar
  32   19   32 1
  33   20   21 ar
  34   20   33 1
  35   21   22 ar
  36   21   34 1
  37   22   35 1

#	End of record

