#	Name: ASD04550036
#	Creating user name:	WinNT
#	Creation time:	15. 06. 2019 20:49

#	Modifying user name:	WinNT
#	Modification time:	15. 06. 2019 20:49

#	Program:	/corina/corina34_cracker 3.40 0067  02.08.2006

@<TRIPOS>MOLECULE
ASD04550036
  40   40    0    0    0
SMALL
NO_CHARGES


@<TRIPOS>ATOM
   1 C1            -0.0167     1.3781     0.0096 C.ar    
   2 C2             0.0021    -0.0041     0.0020 C.ar    
   3 C3            -1.1855    -0.7115     0.0095 C.ar    
   4 C4            -2.3919    -0.0367     0.0251 C.ar    
   5 C5            -2.4106     1.3455     0.0336 C.ar    
   6 C6            -1.2230     2.0529     0.0305 C.ar    
   7 C7            -3.6866    -0.8078     0.0322 C.3     
   8 C8            -4.1113    -1.0780     1.4771 C.3     
   9 C9            -4.4261     0.2479     2.1725 C.3     
  10 C10           -5.3570    -1.9663     1.4849 C.3     
  11 C11            1.2780     2.1493     0.0014 C.3     
  12 C12            1.3579     3.0101     1.2358 C.2     
  13 C13            1.3352     3.0367    -1.2437 C.3     
  14 N14            2.4353     3.7928     1.4430 N.am    
  15 O15            0.4525     2.9985     2.0428 O.2     
  16 S16            2.5230     4.7387     2.7994 S.o2    
  17 O17            3.7589     5.4274     2.6671 O.2     
  18 O18            1.2894     5.4439     2.8153 O.2     
  19 C19            2.5975     3.5555     4.1724 C.3     
  20 H20            0.9446    -0.5313    -0.0101 H       
  21 H21           -1.1709    -1.7913     0.0029 H       
  22 H22           -3.3531     1.8728     0.0454 H       
  23 H23           -1.2376     3.1328     0.0372 H       
  24 H24           -4.4589    -0.2259    -0.4707 H       
  25 H25           -3.5482    -1.7551    -0.4890 H       
  26 H26           -3.3021    -1.5822     2.0054 H       
  27 H27           -3.5387     0.8808     2.1670 H       
  28 H28           -5.2353     0.7522     1.6442 H       
  29 H29           -4.7287     0.0555     3.2019 H       
  30 H30           -5.1327    -2.9110     0.9894 H       
  31 H31           -5.6595    -2.1588     2.5142 H       
  32 H32           -6.1661    -1.4621     0.9566 H       
  33 H33            2.1160     1.4524    -0.0103 H       
  34 H34            2.2717     3.5945    -1.2496 H       
  35 H35            1.2775     2.4141    -2.1365 H       
  36 H36            0.4972     3.7336    -1.2320 H       
  37 H37            3.1593     3.8021     0.7976 H       
  38 H38            3.4781     2.9231     4.0596 H       
  39 H39            2.6577     4.0973     5.1162 H       
  40 H40            1.7013     2.9349     4.1662 H       
@<TRIPOS>BOND
   1    1    2 ar
   2    1   11 1
   3    1    6 ar
   4    2    3 ar
   5    2   20 1
   6    3    4 ar
   7    3   21 1
   8    4    5 ar
   9    4    7 1
  10    5    6 ar
  11    5   22 1
  12    6   23 1
  13    7    8 1
  14    7   24 1
  15    7   25 1
  16    8    9 1
  17    8   10 1
  18    8   26 1
  19    9   27 1
  20    9   28 1
  21    9   29 1
  22   10   30 1
  23   10   31 1
  24   10   32 1
  25   11   12 1
  26   11   13 1
  27   11   33 1
  28   12   14 am
  29   12   15 2
  30   13   34 1
  31   13   35 1
  32   13   36 1
  33   14   16 am
  34   14   37 1
  35   16   17 2
  36   16   18 2
  37   16   19 1
  38   19   38 1
  39   19   39 1
  40   19   40 1

#	End of record

