#	Name: ASD00660028
#	Creating user name:	WinNT
#	Creation time:	15. 06. 2019 18:37

#	Modifying user name:	WinNT
#	Modification time:	15. 06. 2019 18:37

#	Program:	/corina/corina34_cracker 3.40 0067  02.08.2006

@<TRIPOS>MOLECULE
ASD00660028
  72   76    0    0    0
SMALL
NO_CHARGES


@<TRIPOS>ATOM
   1 C1             6.5671    -2.3909    -6.3230 C.ar    
   2 C2             6.2161    -3.5262    -5.6038 C.ar    
   3 C3             6.1217    -3.4903    -4.2312 C.ar    
   4 C4             6.3823    -2.2980    -3.5503 C.ar    
   5 C5             6.7397    -1.1445    -4.2856 C.ar    
   6 C6             6.8289    -1.2036    -5.6754 C.ar    
   7 N7             6.2999    -2.2209    -2.2012 N.2     
   8 C8             6.5437    -1.1033    -1.5625 C.2     
   9 N9             6.8951     0.0564    -2.1967 N.am    
  10 C10            7.0077     0.0953    -3.5445 C.2     
  11 C11            7.1400     1.2129    -1.4451 C.ar    
  12 O12            7.3200     1.1204    -4.1221 O.2     
  13 S13            6.4121    -1.0936     0.1946 S.3     
  14 C14            6.0398    -2.8398     0.4915 C.3     
  15 C15            7.2134    -3.6834     0.0646 C.2     
  16 N16            7.0250    -4.9700    -0.2897 N.am    
  17 O17            8.3273    -3.2044     0.0397 O.2     
  18 C18            8.1592    -5.8052    -0.7082 C.3     
  19 C19            8.1718    -7.0799     0.1404 C.3     
  20 C20            6.8113    -7.7718     0.0392 C.3     
  21 C21            5.7226    -6.8418     0.5801 C.3     
  22 C22            5.6826    -5.5664    -0.2590 C.3     
  23 C23            6.0787     1.9662    -0.9624 C.ar    
  24 C24            6.3238     3.1071    -0.2210 C.ar    
  25 C25            7.6255     3.4976     0.0396 C.ar    
  26 C26            8.6841     2.7485    -0.4404 C.ar    
  27 C27            8.4451     1.6048    -1.1767 C.ar    
  28 Cl28           4.9977     4.0506     0.3830 Cl      
  29 C29            5.7705    -3.0576     1.9818 C.3     
  30 C30            4.5331    -2.2600     2.3983 C.3     
  31 C31            4.2728    -2.4655     3.8920 C.3     
  32 C32            3.0355    -1.6679     4.3085 C.3     
  33 C33            9.2653    -8.0207    -0.3686 C.3     
  34 N34           10.5724    -7.3611    -0.2533 N.3     
  35 C35           10.8863    -7.0458     1.1462 C.3     
  36 C36            9.8405    -6.0752     1.6996 C.3     
  37 C37            8.4534    -6.7164     1.6004 C.3     
  38 H38            6.6398    -2.4406    -7.3994 H       
  39 H39            6.0144    -4.4485    -6.1283 H       
  40 H40            5.8473    -4.3794    -3.6829 H       
  41 H41            7.1013    -0.3246    -6.2406 H       
  42 H42            5.1586    -3.1262    -0.0826 H       
  43 H43            8.0509    -6.0679    -1.7605 H       
  44 H44            9.0902    -5.2582    -0.5598 H       
  45 H45            6.6011    -8.0089    -1.0037 H       
  46 H46            6.8271    -8.6913     0.6244 H       
  47 H47            4.7565    -7.3437     0.5279 H       
  48 H48            5.9446    -6.5858     1.6160 H       
  49 H49            4.9781    -4.8611     0.1818 H       
  50 H50            5.3730    -5.8076    -1.2759 H       
  51 H51            5.0628     1.6616    -1.1660 H       
  52 H52            7.8151     4.3893     0.6187 H       
  53 H53            9.6990     3.0557    -0.2355 H       
  54 H54            9.2726     1.0203    -1.5509 H       
  55 H55            5.5994    -4.1177     2.1689 H       
  56 H56            6.6313    -2.7210     2.5595 H       
  57 H57            4.7000    -1.2011     2.2010 H       
  58 H58            3.6701    -2.6042     1.8284 H       
  59 H59            4.1059    -3.5244     4.0893 H       
  60 H60            5.1358    -2.1213     4.4619 H       
  61 H61            2.8500    -1.8143     5.3726 H       
  62 H62            3.2024    -0.6090     4.1111 H       
  63 H63            2.1724    -2.0121     3.7386 H       
  64 H64            9.2653    -8.9336     0.2270 H       
  65 H65            9.0743    -8.2683    -1.4128 H       
  66 H66           11.2994    -7.9240    -0.6689 H       
  67 H67           10.8784    -7.9627     1.7355 H       
  68 H68           11.8733    -6.5868     1.2024 H       
  69 H69           10.0654    -5.8540     2.7430 H       
  70 H70            9.8573    -5.1526     1.1195 H       
  71 H71            7.7002    -6.0115     1.9521 H       
  72 H72            8.4242    -7.6179     2.2124 H       
@<TRIPOS>BOND
   1    1    2 ar
   2    1    6 ar
   3    1   38 1
   4    2    3 ar
   5    2   39 1
   6    3    4 ar
   7    3   40 1
   8    4    5 ar
   9    4    7 1
  10    5    6 ar
  11    5   10 1
  12    6   41 1
  13    7    8 2
  14    8    9 1
  15    8   13 1
  16    9   10 am
  17    9   11 1
  18   10   12 2
  19   11   23 ar
  20   11   27 ar
  21   13   14 1
  22   14   15 1
  23   14   29 1
  24   14   42 1
  25   15   16 am
  26   15   17 2
  27   16   18 1
  28   16   22 1
  29   18   19 1
  30   18   43 1
  31   18   44 1
  32   19   20 1
  33   19   33 1
  34   19   37 1
  35   20   21 1
  36   20   45 1
  37   20   46 1
  38   21   22 1
  39   21   47 1
  40   21   48 1
  41   22   49 1
  42   22   50 1
  43   23   24 ar
  44   23   51 1
  45   24   25 ar
  46   24   28 1
  47   25   26 ar
  48   25   52 1
  49   26   27 ar
  50   26   53 1
  51   27   54 1
  52   29   30 1
  53   29   55 1
  54   29   56 1
  55   30   31 1
  56   30   57 1
  57   30   58 1
  58   31   32 1
  59   31   59 1
  60   31   60 1
  61   32   61 1
  62   32   62 1
  63   32   63 1
  64   33   34 1
  65   33   64 1
  66   33   65 1
  67   34   35 1
  68   34   66 1
  69   35   36 1
  70   35   67 1
  71   35   68 1
  72   36   37 1
  73   36   69 1
  74   36   70 1
  75   37   71 1
  76   37   72 1

#	End of record

