#	Name: ASD01903285
#	Creating user name:	WinNT
#	Creation time:	15. 06. 2019 19:54

#	Modifying user name:	WinNT
#	Modification time:	15. 06. 2019 19:54

#	Program:	/corina/corina34_cracker 3.40 0067  02.08.2006

@<TRIPOS>MOLECULE
ASD01903285
  42   45    0    0    0
SMALL
NO_CHARGES


@<TRIPOS>ATOM
   1 C1             0.0313     1.3112     0.0786 C.ar    
   2 C2            -1.0993     1.6199    -0.6605 C.ar    
   3 C3            -1.0988     2.7500    -1.4634 C.ar    
   4 C4             0.0419     3.5361    -1.4976 C.ar    
   5 C5             1.1427     3.1652    -0.7281 C.ar    
   6 N6             1.1010     2.0748     0.0276 N.ar    
   7 C7             2.3697     3.9947    -0.7535 C.2     
   8 O8             2.4133     4.9941    -1.4437 O.2     
   9 N9             3.4376     3.6411    -0.0113 N.am    
  10 C10            4.6295     4.3682    -0.1092 C.ar    
  11 C11            4.5905     5.7426    -0.3045 C.ar    
  12 C12            5.7668     6.4599    -0.4005 C.ar    
  13 C13            6.9883     5.8066    -0.3018 C.ar    
  14 C14            7.0271     4.4324    -0.1066 C.ar    
  15 C15            5.8517     3.7160    -0.0053 C.ar    
  16 N16            8.1834     6.5344    -0.4052 N.am    
  17 C17            8.8317     6.7732    -1.5594 C.2     
  18 C18           10.0422     7.5683    -1.2639 C.ar    
  19 C19           10.0419     7.7671     0.1317 C.ar    
  20 C20            8.8285     7.0901     0.6362 C.2     
  21 O21            8.4813     6.3979    -2.6600 O.2     
  22 O22            8.4766     7.0385     1.7975 O.2     
  23 C23           12.0825     8.8159    -1.4272 C.ar    
  24 C24           12.0824     9.0104    -0.0587 C.ar    
  25 C25           11.0650     8.4887     0.7252 C.ar    
  26 C26           11.0656     8.0959    -2.0348 C.ar    
  27 I27            5.7085     8.5331    -0.6958 I       
  28 C28           11.0734     7.8874    -3.5273 C.3     
  29 H29            0.0327     0.4340     0.7086 H       
  30 H30           -1.9723     0.9860    -0.6118 H       
  31 H31           -1.9676     3.0117    -2.0491 H       
  32 H32            0.0774     4.4234    -2.1123 H       
  33 H33            3.3802     2.8827     0.5906 H       
  34 H34            3.6404     6.2504    -0.3816 H       
  35 H35            7.9772     3.9246    -0.0302 H       
  36 H36            5.8821     2.6472     0.1466 H       
  37 H37           12.8804     9.2277    -2.0273 H       
  38 H38           12.8804     9.5728     0.4030 H       
  39 H39           11.0697     8.6444     1.7939 H       
  40 H40           10.5357     8.7030    -4.0109 H       
  41 H41           12.1024     7.8676    -3.8860 H       
  42 H42           10.5876     6.9409    -3.7644 H       
@<TRIPOS>BOND
   1    1    2 ar
   2    1    6 ar
   3    1   29 1
   4    2    3 ar
   5    2   30 1
   6    3    4 ar
   7    3   31 1
   8    4    5 ar
   9    4   32 1
  10    5    6 ar
  11    5    7 1
  12    7    8 2
  13    7    9 am
  14    9   10 1
  15    9   33 1
  16   10   11 ar
  17   10   15 ar
  18   11   12 ar
  19   11   34 1
  20   12   27 1
  21   12   13 ar
  22   13   14 ar
  23   13   16 1
  24   14   15 ar
  25   14   35 1
  26   15   36 1
  27   16   17 am
  28   16   20 am
  29   17   18 1
  30   17   21 2
  31   18   19 ar
  32   18   26 ar
  33   19   20 1
  34   19   25 ar
  35   20   22 2
  36   23   24 ar
  37   23   26 ar
  38   23   37 1
  39   24   25 ar
  40   24   38 1
  41   25   39 1
  42   26   28 1
  43   28   40 1
  44   28   41 1
  45   28   42 1

#	End of record

