#	Name: ASD01870456
#	Creating user name:	WinNT
#	Creation time:	15. 06. 2019 19:39

#	Modifying user name:	WinNT
#	Modification time:	15. 06. 2019 19:39

#	Program:	/corina/corina34_cracker 3.40 0067  02.08.2006

@<TRIPOS>MOLECULE
ASD01870456
  39   42    0    0    0
SMALL
NO_CHARGES


@<TRIPOS>ATOM
   1 F1             0.0021    -0.0041     0.0020 F       
   2 C2            -0.0162     1.3468     0.0094 C.ar    
   3 C3            -1.2242     2.0232     0.0304 C.ar    
   4 C4            -1.2417     3.4050     0.0379 C.ar    
   5 C5            -0.0538     4.1120     0.0246 C.ar    
   6 C6            -0.0742     5.6188     0.0333 C.3     
   7 C7            -0.0603     6.1131     1.4569 C.2     
   8 O8            -0.0362     5.3188     2.3753 O.2     
   9 C9            -0.0754     7.5000     1.7229 C.2     
  10 S10           -0.1178     8.7465     0.4923 S.3     
  11 C11           -0.1132    10.0385     1.6868 C.ar    
  12 N12           -0.1364    11.3634     1.5135 N.ar    
  13 C13           -0.1292    12.2018     2.5229 C.ar    
  14 C14           -0.0968    11.7461     3.8327 C.ar    
  15 C15           -0.0718    10.3918     4.0772 C.ar    
  16 C16           -0.0800     9.5022     2.9786 C.ar    
  17 C17           -0.0647     8.0478     2.9732 C.2     
  18 C18           -0.0358     7.2369     4.2087 C.ar    
  19 C19           -1.1208     7.2594     5.0875 C.ar    
  20 C20           -1.0878     6.5007     6.2386 C.ar    
  21 C21            0.0185     5.7177     6.5239 C.ar    
  22 Cl22           0.0525     4.7654     7.9750 Cl      
  23 C23            1.0975     5.6909     5.6560 C.ar    
  24 C24            1.0742     6.4410     4.4990 C.ar    
  25 C25            1.1529     3.4377     0.0037 C.ar    
  26 C26            1.1730     2.0559     0.0019 C.ar    
  27 H27           -2.1524     1.4711     0.0405 H       
  28 H28           -2.1838     3.9329     0.0539 H       
  29 H29            0.8032     5.9971    -0.4913 H       
  30 H30           -0.9764     5.9729    -0.4655 H       
  31 H31           -0.1485    13.2644     2.3307 H       
  32 H32           -0.0910    12.4480     4.6536 H       
  33 H33           -0.0468    10.0158     5.0894 H       
  34 H34           -1.9838     7.8698     4.8663 H       
  35 H35           -1.9262     6.5175     6.9193 H       
  36 H36            1.9572     5.0780     5.8837 H       
  37 H37            1.9145     6.4161     3.8209 H       
  38 H38            2.0803     3.9910    -0.0071 H       
  39 H39            2.1158     1.5293    -0.0099 H       
@<TRIPOS>BOND
   1    1    2 1
   2    2   26 ar
   3    2    3 ar
   4    3    4 ar
   5    3   27 1
   6    4    5 ar
   7    4   28 1
   8    5    6 1
   9    5   25 ar
  10    6    7 1
  11    6   29 1
  12    6   30 1
  13    7    8 2
  14    7    9 1
  15    9   17 2
  16    9   10 1
  17   10   11 1
  18   11   16 ar
  19   11   12 ar
  20   12   13 ar
  21   13   14 ar
  22   13   31 1
  23   14   15 ar
  24   14   32 1
  25   15   16 ar
  26   15   33 1
  27   16   17 1
  28   17   18 1
  29   18   24 ar
  30   18   19 ar
  31   19   20 ar
  32   19   34 1
  33   20   21 ar
  34   20   35 1
  35   21   22 1
  36   21   23 ar
  37   23   24 ar
  38   23   36 1
  39   24   37 1
  40   25   26 ar
  41   25   38 1
  42   26   39 1

#	End of record

