#	Name: ASD01901111
#	Creating user name:	WinNT
#	Creation time:	15. 06. 2019 19:53

#	Modifying user name:	WinNT
#	Modification time:	15. 06. 2019 19:53

#	Program:	/corina/corina34_cracker 3.40 0067  02.08.2006

@<TRIPOS>MOLECULE
ASD01901111
  37   39    0    0    0
SMALL
NO_CHARGES


@<TRIPOS>ATOM
   1 C1            -0.0184     1.5028     0.0103 C.2     
   2 C2             0.0021    -0.0041     0.0020 C.3     
   3 O3            -1.3386    -0.4987     0.0122 O.3     
   4 C4            -1.4983    -1.8482     0.0064 C.ar    
   5 C5            -2.7814    -2.4025     0.0157 C.ar    
   6 C6            -2.9355    -3.7857     0.0098 C.ar    
   7 C7            -1.8225    -4.6031    -0.0052 C.ar    
   8 C8            -0.5541    -4.0519    -0.0143 C.ar    
   9 C9            -0.3903    -2.6790    -0.0143 C.ar    
  10 N10           -5.9120    -0.6236    -0.4565 N.pl3   
  11 N11           -5.3578     0.0883     0.6142 N.2     
  12 C12           -4.2008    -0.4419     0.9108 C.2     
  13 C13           -3.9749    -1.5194     0.0323 C.2     
  14 C14           -5.0522    -1.6044    -0.8003 C.2     
  15 C15           -7.2052    -0.3538    -1.0898 C.3     
  16 C16            2.4725     1.5850    -0.0130 C.ar    
  17 C17            1.2453     2.2555     0.0023 C.ar    
  18 C18            1.2403     3.6588     0.0094 C.ar    
  19 C19            2.4551     4.3180     0.0009 C.ar    
  20 C20            3.6277     3.5799    -0.0142 C.ar    
  21 N21            3.6028     2.2592    -0.0206 N.ar    
  22 Cl22           5.1552     4.4048    -0.0255 Cl      
  23 O23           -1.0766     2.0947     0.0185 O.2     
  24 H24            0.5123    -0.3556    -0.8948 H       
  25 H25            0.5293    -0.3651     0.8851 H       
  26 H26           -3.9246    -4.2194     0.0173 H       
  27 H27           -1.9430    -5.6763    -0.0094 H       
  28 H28            0.3123    -4.6967    -0.0257 H       
  29 H29            0.6025    -2.2540    -0.0264 H       
  30 H30           -3.5336    -0.1111     1.6930 H       
  31 H31           -5.1917    -2.3267    -1.5911 H       
  32 H32           -7.0683     0.3521    -1.9091 H       
  33 H33           -7.6211    -1.2839    -1.4773 H       
  34 H34           -7.8883     0.0712    -0.3544 H       
  35 H35            2.4929     0.5052    -0.0142 H       
  36 H36            0.3113     4.2094     0.0209 H       
  37 H37            2.4900     5.3975     0.0056 H       
@<TRIPOS>BOND
   1    1    2 1
   2    1   17 1
   3    1   23 2
   4    2    3 1
   5    2   24 1
   6    2   25 1
   7    3    4 1
   8    4    5 ar
   9    4    9 ar
  10    5    6 ar
  11    5   13 1
  12    6    7 ar
  13    6   26 1
  14    7    8 ar
  15    7   27 1
  16    8    9 ar
  17    8   28 1
  18    9   29 1
  19   10   11 1
  20   10   14 1
  21   10   15 1
  22   11   12 2
  23   12   13 1
  24   12   30 1
  25   13   14 2
  26   14   31 1
  27   15   32 1
  28   15   33 1
  29   15   34 1
  30   16   17 ar
  31   16   21 ar
  32   16   35 1
  33   17   18 ar
  34   18   19 ar
  35   18   36 1
  36   19   20 ar
  37   19   37 1
  38   20   21 ar
  39   20   22 1

#	End of record

