#	Name: ASD03540579
#	Creating user name:	WinNT
#	Creation time:	15. 06. 2019 20:43

#	Modifying user name:	WinNT
#	Modification time:	15. 06. 2019 20:43

#	Program:	/corina/corina34_cracker 3.40 0067  02.08.2006

@<TRIPOS>MOLECULE
ASD03540579
  50   54    0    0    0
SMALL
NO_CHARGES


@<TRIPOS>ATOM
   1 N1            -0.0164     1.3583     0.0095 N.pl3   
   2 C2             0.0021    -0.0041     0.0020 C.2     
   3 N3             1.1924    -0.7087    -0.0140 N.am    
   4 C4             2.3800    -0.0696    -0.0227 C.2     
   5 C5             2.3925     1.4049    -0.0149 C.ar    
   6 C6             3.5867     2.1166    -0.0230 C.ar    
   7 C7             3.5547     3.5096    -0.0149 C.ar    
   8 C8             2.3272     4.1827     0.0012 C.ar    
   9 C9             1.1453     3.4776     0.0097 C.ar    
  10 C10            1.1638     2.0883     0.0022 C.ar    
  11 N11           -1.2446    -0.4278     0.0121 N.2     
  12 C12           -2.0750     0.6257     0.0260 C.2     
  13 C13           -1.3358     1.7487     0.0298 C.2     
  14 C14            4.8168     4.2767    -0.0229 C.2     
  15 O15            5.8830     3.6928    -0.0365 O.2     
  16 N16            4.7865     5.6241    -0.0152 N.am    
  17 C17            6.0384     6.3850    -0.0231 C.3     
  18 C18            5.3127     9.9005     1.1554 C.ar    
  19 C19            5.5960     8.5481     1.1844 C.ar    
  20 C20            5.7298     7.8601    -0.0119 C.ar    
  21 C21            5.5734     8.5614    -1.1976 C.ar    
  22 C22            5.2913     9.9135    -1.1482 C.ar    
  23 N23            5.1705    10.5354     0.0084 N.ar    
  24 O24            3.4214    -0.6979    -0.0364 O.2     
  25 C25            1.1625    -2.1734    -0.0211 C.3     
  26 C26            1.1374    -2.6684    -1.4443 C.ar    
  27 C27            2.3227    -2.9198    -2.1097 C.ar    
  28 C28            2.2997    -3.3738    -3.4151 C.ar    
  29 C29            1.0914    -3.5768    -4.0551 C.ar    
  30 C30           -0.0940    -3.3263    -3.3894 C.ar    
  31 C31           -0.0710    -2.8764    -2.0825 C.ar    
  32 H32            4.5317     1.5939    -0.0350 H       
  33 H33            2.3076     5.2625     0.0073 H       
  34 H34            0.2027     4.0046     0.0228 H       
  35 H35           -3.1540     0.5796     0.0361 H       
  36 H36           -1.7066     2.7630     0.0403 H       
  37 H37            3.9358     6.0901    -0.0043 H       
  38 H38            6.6244     6.1297     0.8599 H       
  39 H39            6.6071     6.1396    -0.9200 H       
  40 H40            5.2025    10.4428     2.0828 H       
  41 H41            5.7117     8.0337     2.1269 H       
  42 H42            5.6711     8.0576    -2.1479 H       
  43 H43            5.1680    10.4670    -2.0673 H       
  44 H44            2.0502    -2.5574     0.4815 H       
  45 H45            0.2707    -2.5211     0.5003 H       
  46 H46            3.2668    -2.7611    -1.6097 H       
  47 H47            3.2258    -3.5695    -3.9352 H       
  48 H48            1.0734    -3.9308    -5.0753 H       
  49 H49           -1.0380    -3.4846    -3.8895 H       
  50 H50           -0.9971    -2.6842    -1.5612 H       
@<TRIPOS>BOND
   1    1    2 1
   2    1   10 1
   3    1   13 1
   4    2    3 1
   5    2   11 2
   6    3    4 am
   7    3   25 1
   8    4    5 1
   9    4   24 2
  10    5    6 ar
  11    5   10 ar
  12    6    7 ar
  13    6   32 1
  14    7    8 ar
  15    7   14 1
  16    8    9 ar
  17    8   33 1
  18    9   10 ar
  19    9   34 1
  20   11   12 1
  21   12   13 2
  22   12   35 1
  23   13   36 1
  24   14   15 2
  25   14   16 am
  26   16   17 1
  27   16   37 1
  28   17   20 1
  29   17   38 1
  30   17   39 1
  31   18   19 ar
  32   18   23 ar
  33   18   40 1
  34   19   20 ar
  35   19   41 1
  36   20   21 ar
  37   21   22 ar
  38   21   42 1
  39   22   23 ar
  40   22   43 1
  41   25   26 1
  42   25   44 1
  43   25   45 1
  44   26   27 ar
  45   26   31 ar
  46   27   28 ar
  47   27   46 1
  48   28   29 ar
  49   28   47 1
  50   29   30 ar
  51   29   48 1
  52   30   31 ar
  53   30   49 1
  54   31   50 1

#	End of record

