#	Name: ASD03130009
#	Creating user name:	WinNT
#	Creation time:	15. 06. 2019 20:33

#	Modifying user name:	WinNT
#	Modification time:	15. 06. 2019 20:33

#	Program:	/corina/corina34_cracker 3.40 0067  02.08.2006

@<TRIPOS>MOLECULE
ASD03130009
 362  362    0    0    0
SMALL
NO_CHARGES


@<TRIPOS>ATOM
   1 C1           -18.9239     9.4183    -3.2036 C.2     
   2 O2           -18.6087    10.5787    -3.0893 O.2     
   3 C3           -19.8799     9.0008    -4.2912 C.3     
   4 C4           -20.3024    10.2300    -5.0984 C.3     
   5 C5           -21.2730     9.8062    -6.2025 C.3     
   6 C6           -21.6955    11.0353    -7.0097 C.3     
   7 C7           -22.6660    10.6115    -8.1139 C.3     
   8 C8           -23.0885    11.8407    -8.9210 C.3     
   9 C9           -24.0591    11.4168   -10.0252 C.3     
  10 C10          -24.4816    12.6460   -10.8323 C.3     
  11 C11          -25.4522    12.2221   -11.9365 C.3     
  12 C12          -25.8747    13.4513   -12.7437 C.3     
  13 C13          -26.8453    13.0275   -13.8479 C.3     
  14 C14          -27.2678    14.2566   -14.6550 C.3     
  15 C15          -28.2384    13.8328   -15.7592 C.3     
  16 C16          -28.6609    15.0620   -16.5663 C.3     
  17 C17          -29.6314    14.6381   -17.6705 C.3     
  18 N18          -42.1780   -41.1890     3.5095 N.am    
  19 C19          -17.4033     8.8178    -1.1917 C.3     
  20 C20          -18.3641     8.4012    -2.2754 C.2     
  21 N21          -16.9986     7.6378    -0.4160 N.3     
  22 O22          -18.6793     7.2408    -2.3897 O.2     
  23 C23          -14.9829     5.8131     0.4912 C.3     
  24 C24          -15.6647     6.8227     1.4168 C.3     
  25 C25          -16.8819     6.1901     2.0407 C.2     
  26 N26          -16.0693     8.0027     0.6411 N.3     
  27 O27          -17.9785     6.6745     1.8571 O.2     
  28 N28          -11.7519     5.9741    -1.4838 N.pl3   
  29 C29          -10.9624     5.2449    -2.3412 C.2     
  30 N30          -11.3233     4.0441    -2.6973 N.2     
  31 N31           -9.7922     5.7823    -2.8229 N.pl3   
  32 C32          -13.6807     6.4111    -0.0449 C.3     
  33 C33          -12.9989     5.4015    -0.9705 C.3     
  34 C34          -17.9352     4.4710     3.4091 C.3     
  35 C35          -17.5264     3.6984     4.6367 C.2     
  36 N36          -16.7519     5.0860     2.8026 N.am    
  37 O37          -16.3613     3.6648     4.9720 O.2     
  38 C38          -18.2936     4.5399     0.1357 C.ar    
  39 C39          -18.7696     5.2649    -0.9407 C.ar    
  40 C40          -20.0593     5.7620    -0.9232 C.ar    
  41 C41          -20.8733     5.5338     0.1705 C.ar    
  42 C42          -20.3971     4.8092     1.2472 C.ar    
  43 C43          -19.1074     4.3121     1.2297 C.ar    
  44 C44          -18.5886     3.5214     2.4030 C.3     
  45 C45          -17.9977     3.2395     7.7565 C.3     
  46 C46          -18.0580     2.2937     6.5554 C.3     
  47 C47          -19.0658     1.2056     6.8229 C.2     
  48 N48          -18.4554     3.0447     5.3620 N.am    
  49 O49          -20.0218     1.0708     6.0889 O.2     
  50 C50          -19.5335    -1.9110     7.3065 C.3     
  51 C51          -19.8843    -0.6754     8.1378 C.3     
  52 C52          -19.8619    -1.0320     9.6018 C.2     
  53 N53          -18.9047     0.3823     7.8777 N.am    
  54 O54          -19.1024    -0.4590    10.3539 O.2     
  55 C55          -21.5719    -1.3749    12.2710 C.3     
  56 C56          -20.6642    -2.3342    11.4985 C.3     
  57 C57          -21.1568    -3.7470    11.6791 C.2     
  58 N58          -20.6859    -1.9876    10.0753 N.am    
  59 O59          -21.4930    -4.3999    10.7139 O.2     
  60 C60          -22.3801    -5.7268    14.5146 C.3     
  61 C61          -21.8048    -5.6164    13.1012 C.3     
  62 C62          -20.7365    -6.6620    12.9106 C.2     
  63 N63          -21.2238    -4.2847    12.9131 N.am    
  64 O64          -19.6015    -6.3278    12.6439 O.2     
  65 C65          -23.5358    -4.7710    14.6626 C.2     
  66 N66          -24.2578    -4.7577    15.8006 N.am    
  67 O67          -23.8162    -4.0137    13.7577 O.2     
  68 C68          -19.8688    -9.3109    11.3625 C.3     
  69 C69          -20.0037    -8.9851    12.8513 C.3     
  70 C70          -20.3820   -10.2332    13.6064 C.2     
  71 N71          -21.0422    -7.9686    13.0366 N.am    
  72 O72          -21.4172   -10.2700    14.2372 O.2     
  73 C73          -19.3643    -8.0757    10.6138 C.3     
  74 C74          -17.9482    -7.7373    11.0840 C.3     
  75 C75          -19.3479    -8.3617     9.1109 C.3     
  76 C76          -19.4819   -12.3955    15.7699 C.3     
  77 C77          -19.9377   -12.5219    14.3148 C.3     
  78 C78          -19.2694   -13.7145    13.6808 C.2     
  79 N79          -19.5699   -11.3086    13.5808 N.am    
  80 O80          -18.5561   -13.5657    12.7113 O.2     
  81 O81          -18.0547   -12.3419    15.8190 O.3     
  82 C82          -19.6708   -16.6121    12.4122 C.3     
  83 C83          -18.8146   -16.1060    13.5749 C.3     
  84 C84          -18.6622   -17.2002    14.5999 C.2     
  85 N85          -19.4643   -14.9466    14.1912 N.am    
  86 O86          -19.0573   -17.0284    15.7336 O.2     
  87 C87          -19.7225   -15.5466    11.3154 C.3     
  88 C88          -20.5657   -16.0451    10.1702 C.2     
  89 O89          -21.0752   -17.1443    10.2258 O.2     
  90 N90          -20.7538   -15.2693     9.0842 N.am    
  91 C91          -16.6555   -19.2057    16.0551 C.3     
  92 C92          -17.9385   -19.4333    15.2532 C.3     
  93 C93          -17.8654   -20.7676    14.5565 C.2     
  94 N94          -18.0867   -18.3696    14.2567 N.am    
  95 O95          -17.6951   -20.8167    13.3567 O.2     
  96 C96          -15.4698   -19.0821    15.0960 C.3     
  97 C97          -16.7865   -17.9190    16.8726 C.3     
  98 C98          -16.5812   -23.6779    14.3393 C.3     
  99 C99          -18.0146   -23.1995    14.5789 C.3     
 100 C100         -18.7447   -24.2067    15.4296 C.2     
 101 N101         -17.9893   -21.9063    15.2667 N.am    
 102 O102         -19.1991   -23.8768    16.5045 O.2     
 103 C103         -15.8785   -22.7202    13.3749 C.3     
 104 C104         -14.4666   -23.1914    13.1389 C.2     
 105 O105         -14.0638   -24.1906    13.6859 O.2     
 106 O106         -13.6566   -22.5010    12.3210 O.3     
 107 C107         -18.6309   -27.0677    16.8325 C.3     
 108 C108         -19.6024   -26.4533    15.8227 C.3     
 109 C109         -20.1660   -27.5393    14.9430 C.2     
 110 N110         -18.8926   -25.4742    14.9958 N.am    
 111 O111         -19.9919   -27.4994    13.7434 O.2     
 112 C112         -18.1543   -25.9865    17.8046 C.3     
 113 C113         -17.1975   -26.5917    18.7992 C.2     
 114 O114         -16.9237   -27.7715    18.7367 O.2     
 115 N115         -16.6460   -25.8218    19.7581 N.am    
 116 C116         -21.5250   -30.9093    15.5186 C.3     
 117 C117         -21.3170   -29.6669    14.6502 C.3     
 118 C118         -22.6170   -29.2960    13.9844 C.2     
 119 N119         -20.8634   -28.5550    15.4893 N.am    
 120 O120         -23.1156   -28.2098    14.1905 O.2     
 121 C121         -20.2034   -31.3449    16.0971 C.2     
 122 O122         -19.1839   -30.7924    15.7577 O.2     
 123 O123         -20.1589   -32.3466    16.9894 O.3     
 124 C124         -24.4894   -29.8107    12.5126 C.3     
 125 C125         -24.9560   -30.9545    11.6494 C.2     
 126 N126         -23.2256   -30.1713    13.1599 N.am    
 127 O127         -24.2977   -31.9709    11.5816 O.2     
 128 C128         -25.8890   -31.8690     8.7409 C.3     
 129 C129         -26.5584   -31.9600    10.1137 C.3     
 130 C130         -28.0546   -31.8871     9.9488 C.2     
 131 N131         -26.1049   -30.8481    10.9528 N.am    
 132 O132         -28.6804   -30.9943    10.4799 O.2     
 133 N133         -22.2654   -32.1671     7.6702 N.pl3   
 134 C134         -21.4500   -32.1266     6.5640 C.2     
 135 N135         -20.1644   -32.2960     6.6954 N.2     
 136 N136         -21.9908   -31.9076     5.3191 N.pl3   
 137 C137         -24.3798   -32.0678     8.8952 C.3     
 138 C138         -23.7104   -31.9768     7.5224 C.3     
 139 C139         -30.8297   -33.4304    10.2379 C.3     
 140 C140         -30.1517   -32.7433     9.0508 C.3     
 141 C141         -30.5507   -33.4371     7.7739 C.2     
 142 N142         -28.6972   -32.8142     9.2111 N.am    
 143 O143         -29.7036   -33.9411     7.0673 O.2     
 144 O144         -30.4225   -34.7991    10.2921 O.3     
 145 C145         -30.4245   -32.7261    11.5343 C.3     
 146 C146         -32.1121   -33.1955     5.0045 C.3     
 147 C147         -32.2369   -34.1719     6.1758 C.3     
 148 C148         -33.6636   -34.6448     6.2858 C.2     
 149 N149         -31.8490   -33.4975     7.4171 N.am    
 150 O150         -34.3687   -34.2408     7.1861 O.2     
 151 C151         -32.9065   -31.9248     5.3129 C.3     
 152 C152         -30.6396   -32.8379     4.7933 C.3     
 153 C153         -29.8765   -34.0770     4.3208 C.3     
 154 C154         -35.5056   -36.0610     5.5519 C.3     
 155 C155         -35.8119   -37.0042     4.4172 C.2     
 156 N156         -34.1559   -35.5167     5.3836 N.am    
 157 O157         -34.9844   -37.2023     3.5530 O.2     
 158 C158         -37.8292   -37.7492     2.0631 C.3     
 159 C159         -37.3034   -38.5446     3.2597 C.3     
 160 C160         -38.3473   -39.5382     3.7003 C.2     
 161 N161         -37.0056   -37.6277     4.3627 N.am    
 162 O162         -38.9207   -39.3864     4.7581 O.2     
 163 C163         -39.0102   -36.8831     2.5058 C.3     
 164 C164         -36.7157   -36.8530     1.5174 C.3     
 165 C165         -35.5938   -37.7233     0.9476 C.3     
 166 C166         -39.5131   -42.8638     2.6349 C.3     
 167 C167         -39.7337   -41.5001     3.2926 C.3     
 168 C168         -41.0463   -40.9243     2.8272 C.2     
 169 N169         -38.6436   -40.5955     2.9187 N.am    
 170 O170         -41.0842   -40.2228     1.8386 O.2     
 171 C171         -38.1986   -43.4651     3.1363 C.3     
 172 C172         -40.6709   -43.7969     2.9949 C.3     
 173 C173         -40.5590   -45.0866     2.1793 C.3     
 174 H174         -19.3898     8.2842    -4.9503 H       
 175 H175         -20.7604     8.5398    -3.8437 H       
 176 H176         -20.7924    10.9466    -4.4393 H       
 177 H177         -19.4219    10.6911    -5.5459 H       
 178 H178         -20.7829     9.0895    -6.8616 H       
 179 H179         -22.1535     9.3451    -5.7550 H       
 180 H180         -22.1855    11.7520    -6.3506 H       
 181 H181         -20.8150    11.4964    -7.4572 H       
 182 H182         -22.1760     9.8949    -8.7730 H       
 183 H183         -23.5465    10.1504    -7.6664 H       
 184 H184         -23.5786    12.5573    -8.2619 H       
 185 H185         -22.2080    12.3017    -9.3685 H       
 186 H186         -23.5691    10.7002   -10.6843 H       
 187 H187         -24.9396    10.9558    -9.5777 H       
 188 H188         -24.9716    13.3626   -10.1732 H       
 189 H189         -23.6011    13.1070   -11.2798 H       
 190 H190         -24.9622    11.5055   -12.5956 H       
 191 H191         -26.3327    11.7611   -11.4890 H       
 192 H192         -26.3647    14.1679   -12.0846 H       
 193 H193         -24.9942    13.9124   -13.1912 H       
 194 H194         -26.3552    12.3108   -14.5070 H       
 195 H195         -27.7258    12.5664   -13.4004 H       
 196 H196         -27.7578    14.9733   -13.9959 H       
 197 H197         -26.3873    14.7177   -15.1025 H       
 198 H198         -27.7483    13.1162   -16.4183 H       
 199 H199         -29.1189    13.3717   -15.3117 H       
 200 H200         -29.1509    15.7786   -15.9072 H       
 201 H201         -27.7804    15.5230   -17.0138 H       
 202 H202         -29.9324    15.5138   -18.2455 H       
 203 H203         -29.1414    13.9215   -18.3296 H       
 204 H204         -30.5119    14.1771   -17.2230 H       
 205 H205         -42.1605   -41.8074     4.2566 H       
 206 H206         -43.0100   -40.7612     3.2534 H       
 207 H207         -16.5229     9.2754    -1.6430 H       
 208 H208         -17.8890     9.5371    -0.5323 H       
 209 H209         -17.8033     7.1585    -0.0405 H       
 210 H210         -14.7624     4.9018     1.0471 H       
 211 H211         -15.6454     5.5791    -0.3421 H       
 212 H212         -14.9697     7.1240     2.2007 H       
 213 H213         -15.2647     8.4820     0.2656 H       
 214 H214         -11.4834     6.8677    -1.2188 H       
 215 H215         -10.7662     3.5296    -3.3022 H       
 216 H216          -9.5237     6.6759    -2.5579 H       
 217 H217          -9.2352     5.2678    -3.4278 H       
 218 H218         -13.9011     7.3224    -0.6007 H       
 219 H219         -13.0182     6.6451     0.7885 H       
 220 H220         -13.6614     5.1675    -1.8038 H       
 221 H221         -12.7784     4.4902    -0.4146 H       
 222 H222         -18.6457     5.2487     3.6891 H       
 223 H223         -15.8748     4.6985     2.9494 H       
 224 H224         -17.2875     4.1477     0.1201 H       
 225 H225         -18.1337     5.4432    -1.7953 H       
 226 H226         -20.4310     6.3290    -1.7640 H       
 227 H227         -21.8807     5.9228     0.1845 H       
 228 H228         -21.0329     4.6312     2.1019 H       
 229 H229         -17.8520     2.7969     2.0558 H       
 230 H230         -19.4157     2.9974     2.8822 H       
 231 H231         -18.9793     3.6850     7.9178 H       
 232 H232         -17.7020     2.6807     8.6445 H       
 233 H233         -17.2688     4.0265     7.5631 H       
 234 H234         -17.0764     1.8481     6.3941 H       
 235 H235         -19.3872     3.0716     5.0938 H       
 236 H236         -19.5497    -1.6531     6.2476 H       
 237 H237         -18.5385    -2.2622     7.5797 H       
 238 H238         -20.2624    -2.6980     7.5000 H       
 239 H239         -20.8794    -0.3242     7.8645 H       
 240 H240         -18.1400     0.4902     8.4647 H       
 241 H241         -21.5557    -1.6328    13.3299 H       
 242 H242         -21.2155    -0.3531    12.1404 H       
 243 H243         -22.5910    -1.4554    11.8930 H       
 244 H244         -19.6450    -2.2538    11.8765 H       
 245 H245         -21.2934    -2.4459     9.4737 H       
 246 H246         -22.7269    -6.7456    14.6872 H       
 247 H247         -21.6074    -5.4779    15.2419 H       
 248 H248         -22.5999    -5.7722    12.3721 H       
 249 H249         -20.8874    -3.7901    13.6766 H       
 250 H250         -24.0336    -5.3633    16.5244 H       
 251 H251         -25.0017    -4.1425    15.8959 H       
 252 H252         -19.1604   -10.1291    11.2324 H       
 253 H253         -20.8404    -9.6049    10.9654 H       
 254 H254         -19.0535    -8.6066    13.2280 H       
 255 H255         -21.9500    -8.2359    13.2499 H       
 256 H256         -20.0254    -7.2330    10.8161 H       
 257 H257         -17.5888    -6.8573    10.5506 H       
 258 H258         -17.9599    -7.5336    12.1548 H       
 259 H259         -17.2871    -8.5800    10.8817 H       
 260 H260         -20.3567    -8.6028     8.7759 H       
 261 H261         -18.9885    -7.4817     8.5775 H       
 262 H262         -18.6868    -9.2044     8.9085 H       
 263 H263         -19.8948   -11.4841    16.2021 H       
 264 H264         -19.8328   -13.2579    16.3367 H       
 265 H265         -21.0194   -12.6520    14.2829 H       
 266 H266         -18.7420   -11.2791    13.0763 H       
 267 H267         -17.6947   -12.2615    16.7129 H       
 268 H268         -19.2339   -17.5263    12.0103 H       
 269 H269         -20.6807   -16.8175    12.7671 H       
 270 H270         -17.8316   -15.8167    13.2033 H       
 271 H271         -20.0348   -15.0656    14.9667 H       
 272 H272         -20.1593   -14.6324    11.7173 H       
 273 H273         -18.7126   -15.3412    10.9605 H       
 274 H274         -20.3463   -14.3902     9.0398 H       
 275 H275         -21.2965   -15.5902     8.3471 H       
 276 H276         -16.4929   -20.0482    16.7272 H       
 277 H277         -18.7951   -19.4217    15.9271 H       
 278 H278         -17.7707   -18.5070    13.3500 H       
 279 H279         -14.5558   -18.9199    15.6673 H       
 280 H280         -15.3765   -19.9987    14.5136 H       
 281 H281         -15.6325   -18.2395    14.4239 H       
 282 H282         -16.8189   -17.0625    16.1993 H       
 283 H283         -17.7037   -17.9539    17.4605 H       
 284 H284         -15.9303   -17.8241    17.5403 H       
 285 H285         -16.0424   -23.6999    15.2865 H       
 286 H286         -16.5995   -24.6789    13.9083 H       
 287 H287         -18.5266   -23.0925    13.6226 H       
 288 H288         -18.0617   -21.8696    16.2333 H       
 289 H289         -16.4173   -22.6982    12.4277 H       
 290 H290         -15.8602   -21.7192    13.8059 H       
 291 H291         -12.7597   -22.8421    12.2008 H       
 292 H292         -19.1357   -27.8584    17.3876 H       
 293 H293         -17.7735   -27.4849    16.3044 H       
 294 H294         -20.4148   -25.9585    16.3549 H       
 295 H295         -18.5292   -25.7381    14.1360 H       
 296 H296         -17.6495   -25.1958    17.2495 H       
 297 H297         -19.0117   -25.5693    18.3327 H       
 298 H298         -16.8650   -24.8781    19.8081 H       
 299 H299         -16.0301   -26.2113    20.3983 H       
 300 H300         -22.2165   -30.6752    16.3280 H       
 301 H301         -21.9377   -31.7135    14.9094 H       
 302 H302         -20.5659   -29.8774    13.8888 H       
 303 H303         -21.0651   -28.5497    16.4381 H       
 304 H304         -19.2883   -32.5906    17.3325 H       
 305 H305         -24.3412   -28.9256    11.8939 H       
 306 H306         -25.2405   -29.6002    13.2739 H       
 307 H307         -22.8269   -31.0401    12.9950 H       
 308 H308         -26.2925   -32.6429     8.0879 H       
 309 H309         -26.0838   -30.8887     8.3059 H       
 310 H310         -26.2906   -32.9049    10.5866 H       
 311 H311         -26.6314   -30.0352    11.0070 H       
 312 H312         -21.8839   -32.3217     8.5485 H       
 313 H313         -19.5891   -32.2674     5.9150 H       
 314 H314         -22.9476   -31.7815     5.2213 H       
 315 H315         -21.4155   -31.8790     4.5386 H       
 316 H316         -23.9763   -31.2939     9.5482 H       
 317 H317         -24.1851   -33.0481     9.3301 H       
 318 H318         -23.9052   -30.9965     7.0875 H       
 319 H319         -24.1139   -32.7507     6.8694 H       
 320 H320         -31.9118   -33.3777    10.1187 H       
 321 H321         -30.4622   -31.6993     9.0095 H       
 322 H322         -28.1967   -33.5282     8.7863 H       
 323 H323         -30.8146   -35.2975    11.0222 H       
 324 H324         -30.9075   -33.2156    12.3800 H       
 325 H325         -29.3423   -32.7788    11.6536 H       
 326 H326         -30.7351   -31.6820    11.4929 H       
 327 H327         -32.5064   -33.6601     4.1007 H       
 328 H328         -31.5826   -35.0272     6.0072 H       
 329 H329         -32.5265   -33.0944     7.9823 H       
 330 H330         -32.5122   -31.4602     6.2167 H       
 331 H331         -32.8175   -31.2292     4.4784 H       
 332 H332         -33.9555   -32.1796     5.4633 H       
 333 H333         -30.5605   -32.0535     4.0406 H       
 334 H334         -30.2132   -32.4847     5.7322 H       
 335 H335         -29.9042   -34.8395     5.0991 H       
 336 H336         -30.3407   -34.4658     3.4144 H       
 337 H337         -28.8410   -33.8083     4.1121 H       
 338 H338         -36.2288   -35.2456     5.5519 H       
 339 H339         -35.5649   -36.5993     6.4979 H       
 340 H340         -33.6166   -35.7838     4.6229 H       
 341 H341         -38.1558   -38.4381     1.2841 H       
 342 H342         -36.3953   -39.0749     2.9727 H       
 343 H343         -37.6675   -37.4693     5.0539 H       
 344 H344         -38.6837   -36.1942     3.2848 H       
 345 H345         -39.3848   -36.3164     1.6533 H       
 346 H346         -39.8035   -37.5216     2.8946 H       
 347 H347         -37.1162   -36.2148     0.7298 H       
 348 H348         -36.3213   -36.2327     2.3223 H       
 349 H349         -34.8243   -37.0853     0.5128 H       
 350 H350         -35.1590   -38.3243     1.7461 H       
 351 H351         -35.9988   -38.3801     0.1778 H       
 352 H352         -39.4675   -42.7420     1.5527 H       
 353 H353         -39.7525   -41.6180     4.3761 H       
 354 H354         -38.1352   -40.7575     2.1087 H       
 355 H355         -38.2442   -43.5869     4.2185 H       
 356 H356         -38.0414   -44.4366     2.6677 H       
 357 H357         -37.3737   -42.8004     2.8798 H       
 358 H358         -40.6291   -44.0344     4.0578 H       
 359 H359         -41.6173   -43.3054     2.7693 H       
 360 H360         -41.3839   -45.7513     2.4357 H       
 361 H361         -40.6008   -44.8490     1.1163 H       
 362 H362         -39.6126   -45.5781     2.4048 H       
@<TRIPOS>BOND
   1    1   20 1
   2    1    2 2
   3    1    3 1
   4    3    4 1
   5    3  174 1
   6    3  175 1
   7    4    5 1
   8    4  176 1
   9    4  177 1
  10    5    6 1
  11    5  178 1
  12    5  179 1
  13    6    7 1
  14    6  180 1
  15    6  181 1
  16    7    8 1
  17    7  182 1
  18    7  183 1
  19    8    9 1
  20    8  184 1
  21    8  185 1
  22    9   10 1
  23    9  186 1
  24    9  187 1
  25   10   11 1
  26   10  188 1
  27   10  189 1
  28   11   12 1
  29   11  190 1
  30   11  191 1
  31   12   13 1
  32   12  192 1
  33   12  193 1
  34   13   14 1
  35   13  194 1
  36   13  195 1
  37   14   15 1
  38   14  196 1
  39   14  197 1
  40   15   16 1
  41   15  198 1
  42   15  199 1
  43   16   17 1
  44   16  200 1
  45   16  201 1
  46   17  202 1
  47   17  203 1
  48   17  204 1
  49   18  168 am
  50   18  205 1
  51   18  206 1
  52   19   20 1
  53   19   21 1
  54   19  207 1
  55   19  208 1
  56   20   22 2
  57   21   26 1
  58   21  209 1
  59   23   32 1
  60   23   24 1
  61   23  210 1
  62   23  211 1
  63   24   26 1
  64   24   25 1
  65   24  212 1
  66   25   27 2
  67   25   36 am
  68   26  213 1
  69   28   33 1
  70   28   29 1
  71   28  214 1
  72   29   30 2
  73   29   31 1
  74   30  215 1
  75   31  216 1
  76   31  217 1
  77   32   33 1
  78   32  218 1
  79   32  219 1
  80   33  220 1
  81   33  221 1
  82   34   35 1
  83   34   36 1
  84   34   44 1
  85   34  222 1
  86   35   37 2
  87   35   48 am
  88   36  223 1
  89   38   39 ar
  90   38   43 ar
  91   38  224 1
  92   39   40 ar
  93   39  225 1
  94   40   41 ar
  95   40  226 1
  96   41   42 ar
  97   41  227 1
  98   42   43 ar
  99   42  228 1
 100   43   44 1
 101   44  229 1
 102   44  230 1
 103   45   46 1
 104   45  231 1
 105   45  232 1
 106   45  233 1
 107   46   47 1
 108   46   48 1
 109   46  234 1
 110   47   49 2
 111   47   53 am
 112   48  235 1
 113   50   51 1
 114   50  236 1
 115   50  237 1
 116   50  238 1
 117   51   52 1
 118   51   53 1
 119   51  239 1
 120   52   54 2
 121   52   58 am
 122   53  240 1
 123   55   56 1
 124   55  241 1
 125   55  242 1
 126   55  243 1
 127   56   57 1
 128   56   58 1
 129   56  244 1
 130   57   59 2
 131   57   63 am
 132   58  245 1
 133   60   65 1
 134   60   61 1
 135   60  246 1
 136   60  247 1
 137   61   63 1
 138   61   62 1
 139   61  248 1
 140   62   64 2
 141   62   71 am
 142   63  249 1
 143   65   66 am
 144   65   67 2
 145   66  250 1
 146   66  251 1
 147   68   73 1
 148   68   69 1
 149   68  252 1
 150   68  253 1
 151   69   71 1
 152   69   70 1
 153   69  254 1
 154   70   72 2
 155   70   79 am
 156   71  255 1
 157   73   74 1
 158   73   75 1
 159   73  256 1
 160   74  257 1
 161   74  258 1
 162   74  259 1
 163   75  260 1
 164   75  261 1
 165   75  262 1
 166   76   81 1
 167   76   77 1
 168   76  263 1
 169   76  264 1
 170   77   79 1
 171   77   78 1
 172   77  265 1
 173   78   80 2
 174   78   85 am
 175   79  266 1
 176   81  267 1
 177   82   87 1
 178   82   83 1
 179   82  268 1
 180   82  269 1
 181   83   85 1
 182   83   84 1
 183   83  270 1
 184   84   86 2
 185   84   94 am
 186   85  271 1
 187   87   88 1
 188   87  272 1
 189   87  273 1
 190   88   89 2
 191   88   90 am
 192   90  274 1
 193   90  275 1
 194   91   96 1
 195   91   97 1
 196   91   92 1
 197   91  276 1
 198   92   94 1
 199   92   93 1
 200   92  277 1
 201   93   95 2
 202   93  101 am
 203   94  278 1
 204   96  279 1
 205   96  280 1
 206   96  281 1
 207   97  282 1
 208   97  283 1
 209   97  284 1
 210   98  103 1
 211   98   99 1
 212   98  285 1
 213   98  286 1
 214   99  101 1
 215   99  100 1
 216   99  287 1
 217  100  102 2
 218  100  110 am
 219  101  288 1
 220  103  104 1
 221  103  289 1
 222  103  290 1
 223  104  105 2
 224  104  106 1
 225  106  291 1
 226  107  112 1
 227  107  108 1
 228  107  292 1
 229  107  293 1
 230  108  110 1
 231  108  109 1
 232  108  294 1
 233  109  111 2
 234  109  119 am
 235  110  295 1
 236  112  113 1
 237  112  296 1
 238  112  297 1
 239  113  114 2
 240  113  115 am
 241  115  298 1
 242  115  299 1
 243  116  121 1
 244  116  117 1
 245  116  300 1
 246  116  301 1
 247  117  118 1
 248  117  119 1
 249  117  302 1
 250  118  120 2
 251  118  126 am
 252  119  303 1
 253  121  122 2
 254  121  123 1
 255  123  304 1
 256  124  125 1
 257  124  126 1
 258  124  305 1
 259  124  306 1
 260  125  127 2
 261  125  131 am
 262  126  307 1
 263  128  137 1
 264  128  129 1
 265  128  308 1
 266  128  309 1
 267  129  131 1
 268  129  130 1
 269  129  310 1
 270  130  132 2
 271  130  142 am
 272  131  311 1
 273  133  138 1
 274  133  134 1
 275  133  312 1
 276  134  135 2
 277  134  136 1
 278  135  313 1
 279  136  314 1
 280  136  315 1
 281  137  138 1
 282  137  316 1
 283  137  317 1
 284  138  318 1
 285  138  319 1
 286  139  140 1
 287  139  144 1
 288  139  145 1
 289  139  320 1
 290  140  142 1
 291  140  141 1
 292  140  321 1
 293  141  143 2
 294  141  149 am
 295  142  322 1
 296  144  323 1
 297  145  324 1
 298  145  325 1
 299  145  326 1
 300  146  147 1
 301  146  151 1
 302  146  152 1
 303  146  327 1
 304  147  149 1
 305  147  148 1
 306  147  328 1
 307  148  150 2
 308  148  156 am
 309  149  329 1
 310  151  330 1
 311  151  331 1
 312  151  332 1
 313  152  153 1
 314  152  333 1
 315  152  334 1
 316  153  335 1
 317  153  336 1
 318  153  337 1
 319  154  155 1
 320  154  156 1
 321  154  338 1
 322  154  339 1
 323  155  157 2
 324  155  161 am
 325  156  340 1
 326  158  159 1
 327  158  163 1
 328  158  164 1
 329  158  341 1
 330  159  161 1
 331  159  160 1
 332  159  342 1
 333  160  162 2
 334  160  169 am
 335  161  343 1
 336  163  344 1
 337  163  345 1
 338  163  346 1
 339  164  165 1
 340  164  347 1
 341  164  348 1
 342  165  349 1
 343  165  350 1
 344  165  351 1
 345  166  167 1
 346  166  171 1
 347  166  172 1
 348  166  352 1
 349  167  169 1
 350  167  168 1
 351  167  353 1
 352  168  170 2
 353  169  354 1
 354  171  355 1
 355  171  356 1
 356  171  357 1
 357  172  173 1
 358  172  358 1
 359  172  359 1
 360  173  360 1
 361  173  361 1
 362  173  362 1

#	End of record

