#	Name: ASD00190009
#	Creating user name:	WinNT
#	Creation time:	15. 06. 2019 18:33

#	Modifying user name:	WinNT
#	Modification time:	15. 06. 2019 18:33

#	Program:	/corina/corina34_cracker 3.40 0067  02.08.2006

@<TRIPOS>MOLECULE
ASD00190009
  48   52    0    0    0
SMALL
NO_CHARGES


@<TRIPOS>ATOM
   1 C1            -0.0168     1.3859     0.0097 C.ar    
   2 C2             0.0021    -0.0041     0.0020 C.ar    
   3 C3             1.1802    -0.6902    -0.0125 C.ar    
   4 C4             2.3960     0.0106    -0.0204 C.ar    
   5 C5             2.3702     1.4250    -0.0130 C.ar    
   6 C6             1.1483     2.0987     0.0024 C.ar    
   7 N7             3.5675    -0.6426    -0.0342 N.ar    
   8 C8             4.7275    -0.0223    -0.0415 C.ar    
   9 C9             4.8198     1.3781    -0.0354 C.ar    
  10 C10            3.6469     2.1444    -0.0214 C.ar    
  11 N11            5.8657     2.2772    -0.0403 N.pl3   
  12 C12            5.3167     3.5317    -0.0291 C.2     
  13 N13            4.0016     3.4333    -0.0181 N.2     
  14 N14            5.8930    -0.7739    -0.0553 N.pl3   
  15 C15            5.8209    -2.2371    -0.0615 C.3     
  16 C16            6.0722     4.7869    -0.0292 C.2     
  17 C17            7.4149     4.9203    -0.0406 C.2     
  18 C18            7.7851     6.3306    -0.0364 C.2     
  19 C19            6.7017     7.1042    -0.0224 C.2     
  20 C20            5.4996     6.1870    -0.0231 C.3     
  21 C21            7.2153    -2.8086    -0.0765 C.ar    
  22 C22            7.8644    -3.0759     1.1147 C.ar    
  23 C23            9.1426    -3.5998     1.1036 C.ar    
  24 C24            9.7749    -3.8578    -0.1040 C.ar    
  25 C25            9.1214    -3.5886    -1.2978 C.ar    
  26 C26            7.8411    -3.0700    -1.2814 C.ar    
  27 O27           11.0325    -4.3727    -0.1175 O.3     
  28 C28           11.6215    -4.6129    -1.3971 C.3     
  29 H29           -0.9624     1.9076     0.0170 H       
  30 H30           -0.9305    -0.5487     0.0080 H       
  31 H31            1.1778    -1.7702    -0.0176 H       
  32 H32            1.1239     3.1784     0.0077 H       
  33 H33            6.8114     2.0617    -0.0496 H       
  34 H34            6.7558    -0.3307    -0.0609 H       
  35 H35            5.2977    -2.5789     0.8315 H       
  36 H36            5.2820    -2.5706    -0.9484 H       
  37 H37            8.1160     4.0989    -0.0509 H       
  38 H38            8.8007     6.6978    -0.0436 H       
  39 H39            6.6847     8.1841    -0.0165 H       
  40 H40            4.8933     6.3584    -0.9125 H       
  41 H41            4.9047     6.3421     0.8770 H       
  42 H42            7.3719    -2.8746     2.0545 H       
  43 H43            9.6494    -3.8082     2.0343 H       
  44 H44            9.6115    -3.7886    -2.2392 H       
  45 H45            7.3319    -2.8604    -2.2105 H       
  46 H46           11.0082    -5.3230    -1.9519 H       
  47 H47           11.6828    -3.6758    -1.9505 H       
  48 H48           12.6227    -5.0230    -1.2651 H       
@<TRIPOS>BOND
   1    1    2 ar
   2    1    6 ar
   3    1   29 1
   4    2    3 ar
   5    2   30 1
   6    3    4 ar
   7    3   31 1
   8    4    5 ar
   9    4    7 ar
  10    5    6 ar
  11    5   10 ar
  12    6   32 1
  13    7    8 ar
  14    8    9 ar
  15    8   14 1
  16    9   10 ar
  17    9   11 1
  18   10   13 1
  19   11   12 1
  20   11   33 1
  21   12   13 2
  22   12   16 1
  23   14   15 1
  24   14   34 1
  25   15   21 1
  26   15   35 1
  27   15   36 1
  28   16   17 2
  29   16   20 1
  30   17   18 1
  31   17   37 1
  32   18   19 2
  33   18   38 1
  34   19   20 1
  35   19   39 1
  36   20   40 1
  37   20   41 1
  38   21   22 ar
  39   21   26 ar
  40   22   23 ar
  41   22   42 1
  42   23   24 ar
  43   23   43 1
  44   24   25 ar
  45   24   27 1
  46   25   26 ar
  47   25   44 1
  48   26   45 1
  49   27   28 1
  50   28   46 1
  51   28   47 1
  52   28   48 1

#	End of record

