#	Name: ASD03740056
#	Creating user name:	WinNT
#	Creation time:	15. 06. 2019 20:46

#	Modifying user name:	WinNT
#	Modification time:	15. 06. 2019 20:46

#	Program:	/corina/corina34_cracker 3.40 0067  02.08.2006

@<TRIPOS>MOLECULE
ASD03740056
  50   53    0    0    0
SMALL
NO_CHARGES


@<TRIPOS>ATOM
   1 C1            -0.0168     1.3849     0.0097 C.ar    
   2 C2             0.0021    -0.0041     0.0020 C.ar    
   3 C3             1.1850    -0.6877    -0.0125 C.ar    
   4 C4             2.3894     0.0113    -0.0203 C.ar    
   5 C5             2.3718     1.4195    -0.0131 C.ar    
   6 C6             1.1486     2.0963     0.0023 C.ar    
   7 N7             3.7063    -0.3680    -0.0346 N.pl3   
   8 N8             4.5133     0.7743    -0.0364 N.2     
   9 C9             3.7704     1.8474    -0.0241 C.2     
  10 O10            4.2163     3.1315    -0.0222 O.3     
  11 C11            4.1915    -1.7503    -0.0454 C.3     
  12 C12            4.3443    -2.2179    -1.4698 C.ar    
  13 C13            5.6318     3.3268    -0.0344 C.3     
  14 C14            5.9400     4.8254    -0.0302 C.3     
  15 N15            5.4770     5.4170     1.2321 N.3     
  16 C16            5.9642     6.8010     1.3771 C.3     
  17 C17            5.5439    -2.0358    -2.1322 C.ar    
  18 C18            5.6841    -2.4647    -3.4388 C.ar    
  19 C19            4.6248    -3.0762    -4.0829 C.ar    
  20 C20            3.4254    -3.2591    -3.4203 C.ar    
  21 C21            4.7272     7.7034     1.5693 C.3     
  22 C22            3.6510     6.7149     2.0903 C.3     
  23 C23            4.0002     5.4281     1.3019 C.3     
  24 C24            3.2867    -2.8341    -2.1122 C.ar    
  25 C25            4.7772    -3.5429    -5.5077 C.3     
  26 H26           -0.9621     1.9071     0.0170 H       
  27 H27           -0.9296    -0.5502     0.0080 H       
  28 H28            1.1859    -1.7677    -0.0176 H       
  29 H29            1.1256     3.1760     0.0077 H       
  30 H30            5.1565    -1.8005     0.4590 H       
  31 H31            3.4771    -2.3902     0.4724 H       
  32 H32            6.0702     2.8632     0.8494 H       
  33 H33            6.0537     2.8716    -0.9305 H       
  34 H34            7.0151     4.9756    -0.1291 H       
  35 H35            5.4280     5.3039    -0.8651 H       
  36 H36            6.6162     6.8754     2.2474 H       
  37 H37            6.5052     7.0997     0.4792 H       
  38 H38            6.3715    -1.5581    -1.6289 H       
  39 H39            6.6211    -2.3218    -3.9565 H       
  40 H40            2.5977    -3.7365    -3.9236 H       
  41 H41            4.9274     8.4797     2.3079 H       
  42 H42            4.4197     8.1430     0.6204 H       
  43 H43            3.7544     6.5554     3.1636 H       
  44 H44            2.6483     7.0639     1.8438 H       
  45 H45            3.5733     5.4694     0.2998 H       
  46 H46            3.6388     4.5476     1.8332 H       
  47 H47            2.3497    -2.9770    -1.5945 H       
  48 H48            5.1390    -4.5711    -5.5165 H       
  49 H49            3.8120    -3.4930    -6.0116 H       
  50 H50            5.4910    -2.9022    -6.0255 H       
@<TRIPOS>BOND
   1    1    2 ar
   2    1    6 ar
   3    1   26 1
   4    2    3 ar
   5    2   27 1
   6    3    4 ar
   7    3   28 1
   8    4    5 ar
   9    4    7 1
  10    5    6 ar
  11    5    9 1
  12    6   29 1
  13    7    8 1
  14    7   11 1
  15    8    9 2
  16    9   10 1
  17   10   13 1
  18   11   12 1
  19   11   30 1
  20   11   31 1
  21   12   17 ar
  22   12   24 ar
  23   13   14 1
  24   13   32 1
  25   13   33 1
  26   14   15 1
  27   14   34 1
  28   14   35 1
  29   15   16 1
  30   15   23 1
  31   16   21 1
  32   16   36 1
  33   16   37 1
  34   17   18 ar
  35   17   38 1
  36   18   19 ar
  37   18   39 1
  38   19   20 ar
  39   19   25 1
  40   20   24 ar
  41   20   40 1
  42   21   22 1
  43   21   41 1
  44   21   42 1
  45   22   23 1
  46   22   43 1
  47   22   44 1
  48   23   45 1
  49   23   46 1
  50   24   47 1
  51   25   48 1
  52   25   49 1
  53   25   50 1

#	End of record

