#	Name: ASD02590056
#	Creating user name:	WinNT
#	Creation time:	15. 06. 2019 20:25

#	Modifying user name:	WinNT
#	Modification time:	15. 06. 2019 20:25

#	Program:	/corina/corina34_cracker 3.40 0067  02.08.2006

@<TRIPOS>MOLECULE
ASD02590056
  76   81    0    0    0
SMALL
NO_CHARGES


@<TRIPOS>ATOM
   1 O1            -0.0173     1.4248     0.0099 O.3     
   2 C2             0.0021    -0.0041     0.0020 C.3     
   3 O3            -3.3570    -0.7927    -3.6996 O.3     
   4 C4            -3.7692    -0.4946    -4.9591 C.ar    
   5 C5            -3.1508    -1.0820    -6.0597 C.ar    
   6 C6            -4.8166     0.3959    -5.1632 C.ar    
   7 N7            -5.2233     0.6907    -6.3792 N.ar    
   8 C8            -4.6551     0.1552    -7.4534 C.ar    
   9 C9            -3.6019    -0.7503    -7.3242 C.ar    
  10 C10           -5.1481     0.5176    -8.7999 C.2     
  11 N11           -6.1744     1.3864    -9.0549 N.pl3   
  12 C12           -6.3221     1.4523   -10.4279 C.ar    
  13 C13           -5.3486     0.5935   -10.9682 C.ar    
  14 N14           -4.6640     0.0594    -9.9282 N.2     
  15 C15           -7.1776     2.1491   -11.2701 C.ar    
  16 C16           -7.0716     1.9982   -12.6357 C.ar    
  17 C17           -6.1102     1.1497   -13.1789 C.ar    
  18 C18           -5.2518     0.4490   -12.3565 C.ar    
  19 C19            1.2801     2.0237     0.0007 C.3     
  20 C20            1.1386     3.5471     0.0102 C.3     
  21 O21            0.5393     3.9622     1.2393 O.3     
  22 C22            0.3415     5.2951     1.4097 C.ar    
  23 C23           -0.2374     5.7768     2.5809 C.ar    
  24 C24           -0.4201     7.1412     2.7131 C.ar    
  25 C25           -0.0209     7.9834     1.6753 C.ar    
  26 N26            0.5275     7.4863     0.5727 N.ar    
  27 C27            0.7198     6.1938     0.4193 C.ar    
  28 C28           -0.2106     9.4445     1.8039 C.2     
  29 N29           -0.7384    10.0476     2.8408 N.2     
  30 C30           -0.7609    11.3852     2.6275 C.ar    
  31 C31           -0.2013    11.6132     1.3578 C.ar    
  32 N32            0.1440    10.3704     0.8604 N.pl3   
  33 C33           -1.2062    12.4713     3.3890 C.ar    
  34 C34           -1.0917    13.7516     2.8871 C.ar    
  35 C35           -0.5366    13.9687     1.6286 C.ar    
  36 C36           -0.0939    12.9079     0.8687 C.ar    
  37 C37           -1.4333    -0.5336     0.0129 C.3     
  38 O38           -2.0889    -0.1578    -1.2000 O.3     
  39 C39           -3.4428    -0.6056    -1.2917 C.3     
  40 C40           -4.0419    -0.1488    -2.6234 C.3     
  41 O41           -1.5240    14.8080     3.6261 O.3     
  42 C42           -1.3768    16.1070     3.0491 C.3     
  43 O43           -6.0173     1.0101   -14.5283 O.3     
  44 C44           -6.9360     1.7626   -15.3231 C.3     
  45 H45            0.5123    -0.3556    -0.8948 H       
  46 H46            0.5293    -0.3651     0.8851 H       
  47 H47           -2.3374    -1.7803    -5.9289 H       
  48 H48           -5.3030     0.8511    -4.3132 H       
  49 H49           -3.1421    -1.1834    -8.2002 H       
  50 H50           -6.6999     1.8660    -8.3956 H       
  51 H51           -7.9258     2.8086   -10.8556 H       
  52 H52           -7.7386     2.5411   -13.2890 H       
  53 H53           -4.5077    -0.2076   -12.7828 H       
  54 H54            1.8338     1.7047     0.8837 H       
  55 H55            1.8168     1.7143    -0.8961 H       
  56 H56            2.1235     4.0041    -0.0863 H       
  57 H57            0.5101     3.8589    -0.8239 H       
  58 H58           -0.5371     5.1005     3.3677 H       
  59 H59           -0.8664     7.5493     3.6080 H       
  60 H60            1.1691     5.8259    -0.4914 H       
  61 H61            0.5551    10.1881     0.0009 H       
  62 H62           -1.6380    12.3083     4.3653 H       
  63 H63           -0.4523    14.9751     1.2457 H       
  64 H64            0.3353    13.0834    -0.1067 H       
  65 H65           -1.4190    -1.6203     0.0965 H       
  66 H66           -1.9701    -0.1109     0.8621 H       
  67 H67           -3.4702    -1.6938    -1.2352 H       
  68 H68           -4.0213    -0.1844    -0.4695 H       
  69 H69           -3.9341     0.9316    -2.7187 H       
  70 H70           -5.0990    -0.4127    -2.6558 H       
  71 H71           -0.3222    16.2996     2.8518 H       
  72 H72           -1.9359    16.1549     2.1146 H       
  73 H73           -1.7600    16.8573     3.7406 H       
  74 H74           -7.9563     1.4758   -15.0686 H       
  75 H75           -6.7983     2.8262   -15.1285 H       
  76 H76           -6.7541     1.5598   -16.3785 H       
@<TRIPOS>BOND
   1    1    2 1
   2    1   19 1
   3    2   37 1
   4    2   45 1
   5    2   46 1
   6    3    4 1
   7    3   40 1
   8    4    5 ar
   9    4    6 ar
  10    5    9 ar
  11    5   47 1
  12    6    7 ar
  13    6   48 1
  14    7    8 ar
  15    8    9 ar
  16    8   10 1
  17    9   49 1
  18   10   11 1
  19   10   14 2
  20   11   12 1
  21   11   50 1
  22   12   13 ar
  23   12   15 ar
  24   13   14 1
  25   13   18 ar
  26   15   16 ar
  27   15   51 1
  28   16   17 ar
  29   16   52 1
  30   17   18 ar
  31   17   43 1
  32   18   53 1
  33   19   20 1
  34   19   54 1
  35   19   55 1
  36   20   21 1
  37   20   56 1
  38   20   57 1
  39   21   22 1
  40   22   23 ar
  41   22   27 ar
  42   23   24 ar
  43   23   58 1
  44   24   25 ar
  45   24   59 1
  46   25   26 ar
  47   25   28 1
  48   26   27 ar
  49   27   60 1
  50   28   29 2
  51   28   32 1
  52   29   30 1
  53   30   31 ar
  54   30   33 ar
  55   31   32 1
  56   31   36 ar
  57   32   61 1
  58   33   34 ar
  59   33   62 1
  60   34   35 ar
  61   34   41 1
  62   35   36 ar
  63   35   63 1
  64   36   64 1
  65   37   38 1
  66   37   65 1
  67   37   66 1
  68   38   39 1
  69   39   40 1
  70   39   67 1
  71   39   68 1
  72   40   69 1
  73   40   70 1
  74   41   42 1
  75   42   71 1
  76   42   72 1
  77   42   73 1
  78   43   44 1
  79   44   74 1
  80   44   75 1
  81   44   76 1

#	End of record

