#	Name: ASD03731890
#	Creating user name:	WinNT
#	Creation time:	15. 06. 2019 20:46

#	Modifying user name:	WinNT
#	Modification time:	15. 06. 2019 20:46

#	Program:	/corina/corina34_cracker 3.40 0067  02.08.2006

@<TRIPOS>MOLECULE
ASD03731890
  34   35    0    0    0
SMALL
NO_CHARGES


@<TRIPOS>ATOM
   1 C1            -0.0180     1.4743     0.0101 C.2     
   2 C2             0.0021    -0.0041     0.0020 C.ar    
   3 C3             1.2183    -0.6877    -0.0133 C.ar    
   4 C4             1.2292    -2.0722    -0.0203 C.ar    
   5 C5             0.0327    -2.7766    -0.0127 C.ar    
   6 C6            -1.1731    -2.1006     0.0020 C.ar    
   7 C7            -1.1954    -0.7208     0.0154 C.ar    
   8 O8             1.0263     2.0964     0.0035 O.2     
   9 N9            -1.1942     2.1323     0.0193 N.am    
  10 O10            2.4117    -2.7420    -0.0352 O.3     
  11 C11            3.6037    -1.9539    -0.0429 C.3     
  12 C12            0.0486    -4.2835    -0.0209 C.3     
  13 O13           -1.1619    -4.7758     0.5575 O.3     
  14 C14            0.1642    -4.7769    -1.4401 C.ar    
  15 C15            1.3895    -5.1877    -1.9311 C.ar    
  16 C16            1.4959    -5.6410    -3.2334 C.ar    
  17 C17            0.3745    -5.6831    -4.0449 C.ar    
  18 C18           -0.8505    -5.2718    -3.5521 C.ar    
  19 C19           -0.9561    -4.8239    -2.2484 C.ar    
  20 Cl20           0.5066    -6.2513    -5.6799 Cl      
  21 Cl21           3.0345    -6.1564    -3.8506 Cl      
  22 H22            2.1483    -0.1386    -0.0199 H       
  23 H23           -2.1005    -2.6541     0.0076 H       
  24 H24           -2.1391    -0.1958     0.0315 H       
  25 H25           -2.0276     1.6359     0.0206 H       
  26 H26           -1.2074     3.1022     0.0246 H       
  27 H27            3.6321    -1.3294     0.8500 H       
  28 H28            4.4735    -2.6107    -0.0546 H       
  29 H29            3.6148    -1.3204    -0.9298 H       
  30 H30            0.8998    -4.6411     0.5585 H       
  31 H31           -1.9622    -4.4963     0.0922 H       
  32 H32            2.2637    -5.1543    -1.2978 H       
  33 H33           -1.7254    -5.3043    -4.1844 H       
  34 H34           -1.9136    -4.5066    -1.8627 H       
@<TRIPOS>BOND
   1    1    2 1
   2    1    8 2
   3    1    9 am
   4    2    3 ar
   5    2    7 ar
   6    3    4 ar
   7    3   22 1
   8    4    5 ar
   9    4   10 1
  10    5    6 ar
  11    5   12 1
  12    6    7 ar
  13    6   23 1
  14    7   24 1
  15    9   25 1
  16    9   26 1
  17   10   11 1
  18   11   27 1
  19   11   28 1
  20   11   29 1
  21   12   13 1
  22   12   14 1
  23   12   30 1
  24   13   31 1
  25   14   15 ar
  26   14   19 ar
  27   15   16 ar
  28   15   32 1
  29   16   17 ar
  30   16   21 1
  31   17   18 ar
  32   17   20 1
  33   18   19 ar
  34   18   33 1
  35   19   34 1

#	End of record

