#	Name: ASD05430276
#	Creating user name:	WinNT
#	Creation time:	15. 06. 2019 21:00

#	Modifying user name:	WinNT
#	Modification time:	15. 06. 2019 21:00

#	Program:	/corina/corina34_cracker 3.40 0067  02.08.2006

@<TRIPOS>MOLECULE
ASD05430276
  72   78    0    0    0
SMALL
NO_CHARGES


@<TRIPOS>ATOM
   1 C1             0.0679     1.1671     0.4375 C.ar    
   2 C2             0.0166    -0.0116    -0.3162 C.ar    
   3 C3             1.1467    -0.4774    -0.9713 C.ar    
   4 C4             2.3363     0.2132    -0.8893 C.ar    
   5 C5             2.4024     1.3910    -0.1357 C.ar    
   6 C6             1.2656     1.8548     0.5245 C.ar    
   7 C7             4.8718    -0.0335     0.1695 C.3     
   8 C8             4.8376     1.4731     0.0346 C.2     
   9 C9             3.6675     2.1373    -0.0410 C.2     
  10 C10            6.2177    -0.4615     0.7619 C.3     
  11 C11            6.9111     0.5644     1.6656 C.3     
  12 N12            7.1065     1.8022     0.9077 N.pl3   
  13 C13            6.1208     2.1904    -0.0108 C.2     
  14 N14           -1.1861    -0.7266    -0.4091 N.pl3   
  15 C15           -1.7802    -1.1758    -1.5598 C.2     
  16 C16           -2.9109    -1.8092    -1.1936 C.2     
  17 N17           -3.0092    -1.7511     0.1427 N.2     
  18 C18           -1.9792    -1.1099     0.6246 C.2     
  19 C19           -3.8954    -2.4690    -2.1243 C.3     
  20 C20            8.2821     2.6487     1.1102 C.3     
  21 C21            8.7598     3.1652    -0.2517 C.3     
  22 N22            7.6189     3.7047    -0.9954 N.pl3   
  23 N23            6.3517     3.1219    -0.8828 N.2     
  24 C24            7.9188     3.8146     1.9934 C.ar    
  25 C25            8.8026     4.2483     2.9638 C.ar    
  26 C26            7.2525     5.9536     3.6133 C.ar    
  27 C27            6.3709     5.5232     2.6394 C.ar    
  28 C28            6.7042     4.4538     1.8293 C.ar    
  29 C29            8.4693     5.3177     3.7739 C.ar    
  30 C30            7.8065     4.8677    -1.8663 C.3     
  31 C31           -0.3202     2.6982     2.0853 C.3     
  32 O32           -0.9168     1.7995     1.1347 O.3     
  33 C33            8.1774     4.3963    -3.2738 C.3     
  34 C34            6.3903    -1.9396     1.1187 C.3     
  35 C35            7.1121    -1.3571    -0.0979 C.3     
  36 C36            1.0257     3.0597     1.4132 C.3     
  37 C37            6.8892     7.1194     4.4965 C.3     
  38 F38            6.2246     6.6523     5.6354 F       
  39 F39            8.0531     7.7946     4.8797 F       
  40 F40            6.0528     7.9936     3.7941 F       
  41 H41            1.0941    -1.3880    -1.5496 H       
  42 H42            3.2130    -0.1525    -1.4032 H       
  43 H43            4.0655    -0.3580     0.8274 H       
  44 H44            4.7455    -0.4893    -0.8125 H       
  45 H45            3.6580     3.2172    -0.0322 H       
  46 H46            6.2879     0.7639     2.5373 H       
  47 H47            7.8776     0.1753     1.9858 H       
  48 H48           -1.4123    -1.0464    -2.5670 H       
  49 H49           -1.7925    -0.9116     1.6697 H       
  50 H50           -3.6132    -3.5114    -2.2721 H       
  51 H51           -4.8941    -2.4211    -1.6902 H       
  52 H52           -3.8911    -1.9519    -3.0838 H       
  53 H53            9.0754     2.0663     1.5788 H       
  54 H54            9.5010     3.9505    -0.1030 H       
  55 H55            9.2061     2.3457    -0.8150 H       
  56 H56            9.7533     3.7515     3.0892 H       
  57 H57            5.4218     6.0224     2.5114 H       
  58 H58            6.0157     4.1179     1.0680 H       
  59 H59            9.1595     5.6561     4.5325 H       
  60 H60            6.8820     5.4435    -1.9078 H       
  61 H61            8.6065     5.4931    -1.4700 H       
  62 H62           -0.9373     3.5870     2.2169 H       
  63 H63           -0.1537     2.1973     3.0389 H       
  64 H64            9.1019     3.8205    -3.2323 H       
  65 H65            7.3773     3.7710    -3.6701 H       
  66 H66            8.3170     5.2616    -3.9218 H       
  67 H67            6.9932    -2.1788     1.9947 H       
  68 H68            5.5465    -2.6041     0.9328 H       
  69 H69            6.7432    -1.6383    -1.0843 H       
  70 H70            8.1899    -1.2131    -0.0224 H       
  71 H71            1.8171     3.1597     2.1559 H       
  72 H72            0.9332     3.9693     0.8196 H       
@<TRIPOS>BOND
   1    1    2 ar
   2    1    6 ar
   3    1   32 1
   4    2    3 ar
   5    2   14 1
   6    3    4 ar
   7    3   41 1
   8    4    5 ar
   9    4   42 1
  10    5    6 ar
  11    5    9 1
  12    6   36 1
  13    7    8 1
  14    7   10 1
  15    7   43 1
  16    7   44 1
  17    8    9 2
  18    8   13 1
  19    9   45 1
  20   10   11 1
  21   10   34 1
  22   10   35 1
  23   11   12 1
  24   11   46 1
  25   11   47 1
  26   12   13 1
  27   12   20 1
  28   13   23 2
  29   14   15 1
  30   14   18 1
  31   15   16 2
  32   15   48 1
  33   16   17 1
  34   16   19 1
  35   17   18 2
  36   18   49 1
  37   19   50 1
  38   19   51 1
  39   19   52 1
  40   20   21 1
  41   20   24 1
  42   20   53 1
  43   21   22 1
  44   21   54 1
  45   21   55 1
  46   22   23 1
  47   22   30 1
  48   24   25 ar
  49   24   28 ar
  50   25   29 ar
  51   25   56 1
  52   26   27 ar
  53   26   37 1
  54   26   29 ar
  55   27   28 ar
  56   27   57 1
  57   28   58 1
  58   29   59 1
  59   30   33 1
  60   30   60 1
  61   30   61 1
  62   31   32 1
  63   31   36 1
  64   31   62 1
  65   31   63 1
  66   33   64 1
  67   33   65 1
  68   33   66 1
  69   34   35 1
  70   34   67 1
  71   34   68 1
  72   35   69 1
  73   35   70 1
  74   36   71 1
  75   36   72 1
  76   37   38 1
  77   37   39 1
  78   37   40 1

#	End of record

