#	Name: ASD01917030
#	Creating user name:	WinNT
#	Creation time:	15. 06. 2019 20:08

#	Modifying user name:	WinNT
#	Modification time:	15. 06. 2019 20:08

#	Program:	/corina/corina34_cracker 3.40 0067  02.08.2006

@<TRIPOS>MOLECULE
ASD01917030
  38   40    0    0    0
SMALL
NO_CHARGES


@<TRIPOS>ATOM
   1 N1            -0.0170     1.4001     0.0097 N.pl3   
   2 N2             0.0021    -0.0041     0.0020 N.2     
   3 C3             1.2575    -0.3695    -0.0119 C.2     
   4 N4             2.0291     0.7143    -0.0135 N.2     
   5 C5             1.2767     1.7966    -0.0005 C.2     
   6 C6             1.7599     3.1937     0.0017 C.ar    
   7 C7             0.8459     4.2517     0.0158 C.ar    
   8 C8             1.3025     5.5547     0.0177 C.ar    
   9 C9             2.6664     5.8136     0.0056 C.ar    
  10 C10            3.5765     4.7643    -0.0089 C.ar    
  11 C11            3.1296     3.4605    -0.0046 C.ar    
  12 O12            3.1122     7.0966     0.0075 O.3     
  13 C13            4.5278     7.2916    -0.0054 C.3     
  14 F14           -0.4813     3.9996     0.0271 F       
  15 C15            1.7521    -1.7930    -0.0235 C.3     
  16 C16            1.2498    -2.5176     1.2269 C.3     
  17 C17            1.7519    -3.9628     1.2151 C.3     
  18 C18            1.2264    -4.6751    -0.0328 C.3     
  19 C19            1.7286    -3.9505    -1.2832 C.3     
  20 C20            1.2265    -2.5053    -1.2714 C.3     
  21 H21           -0.8008     1.9715     0.0167 H       
  22 H22            0.5981     6.3733     0.0283 H       
  23 H23            4.6366     4.9706    -0.0187 H       
  24 H24            3.8389     2.6460    -0.0110 H       
  25 H25            4.9665     6.8278     0.8781 H       
  26 H26            4.9491     6.8366    -0.9018 H       
  27 H27            4.7475     8.3593    -0.0023 H       
  28 H28            2.8420    -1.7989    -0.0337 H       
  29 H29            1.6242    -2.0101     2.1159 H       
  30 H30            0.1599    -2.5117     1.2371 H       
  31 H31            2.8418    -3.9687     1.2049 H       
  32 H32            1.3941    -4.4790     2.1059 H       
  33 H33            1.5841    -5.7047    -0.0412 H       
  34 H34            0.1364    -4.6693    -0.0226 H       
  35 H35            2.8186    -3.9564    -1.2934 H       
  36 H36            1.3542    -4.4580    -2.1723 H       
  37 H37            0.1366    -2.4994    -1.2613 H       
  38 H38            1.5843    -1.9891    -2.1623 H       
@<TRIPOS>BOND
   1    1    2 1
   2    1    5 1
   3    1   21 1
   4    2    3 2
   5    3    4 1
   6    3   15 1
   7    4    5 2
   8    5    6 1
   9    6    7 ar
  10    6   11 ar
  11    7    8 ar
  12    7   14 1
  13    8    9 ar
  14    8   22 1
  15    9   10 ar
  16    9   12 1
  17   10   11 ar
  18   10   23 1
  19   11   24 1
  20   12   13 1
  21   13   25 1
  22   13   26 1
  23   13   27 1
  24   15   16 1
  25   15   20 1
  26   15   28 1
  27   16   17 1
  28   16   29 1
  29   16   30 1
  30   17   18 1
  31   17   31 1
  32   17   32 1
  33   18   19 1
  34   18   33 1
  35   18   34 1
  36   19   20 1
  37   19   35 1
  38   19   36 1
  39   20   37 1
  40   20   38 1

#	End of record

