#	Name: ASD01940432
#	Creating user name:	WinNT
#	Creation time:	15. 06. 2019 20:12

#	Modifying user name:	WinNT
#	Modification time:	15. 06. 2019 20:12

#	Program:	/corina/corina34_cracker 3.40 0067  02.08.2006

@<TRIPOS>MOLECULE
ASD01940432
  21   22    0    0    0
SMALL
NO_CHARGES


@<TRIPOS>ATOM
   1 N1            -0.0169     1.3942     0.0097 N.pl3   
   2 C2             0.0021    -0.0041     0.0020 C.ar    
   3 C3             1.2152    -0.6849    -0.0132 C.ar    
   4 C4             1.2293    -2.0672    -0.0208 C.ar    
   5 C5             0.0391    -2.7721    -0.0138 C.ar    
   6 C6            -1.1674    -2.0977     0.0014 C.ar    
   7 C7            -1.1892    -0.7160     0.0153 C.ar    
   8 F8             2.3775     0.0037    -0.0210 F       
   9 C9             0.0579    -4.2790    -0.0231 C.3     
  10 C10           -0.6006    -5.0010     1.1542 C.3     
  11 C11           -1.2769    -5.0009    -0.2182 C.3     
  12 H12            0.8165     1.8906     0.0044 H       
  13 H13           -0.8634     1.8678     0.0163 H       
  14 H14            2.1703    -2.5971    -0.0327 H       
  15 H15           -2.0945    -2.6516     0.0069 H       
  16 H16           -2.1326    -0.1905     0.0316 H       
  17 H17            0.9460    -4.7353    -0.4603 H       
  18 H18           -0.1459    -5.9325     1.4912 H       
  19 H19           -1.0474    -4.3861     1.9355 H       
  20 H20           -2.1686    -4.3860    -0.3398 H       
  21 H21           -1.2672    -5.9325    -0.7841 H       
@<TRIPOS>BOND
   1    1    2 1
   2    1   12 1
   3    1   13 1
   4    2    3 ar
   5    2    7 ar
   6    3    4 ar
   7    3    8 1
   8    4    5 ar
   9    4   14 1
  10    5    6 ar
  11    5    9 1
  12    6    7 ar
  13    6   15 1
  14    7   16 1
  15    9   10 1
  16    9   11 1
  17    9   17 1
  18   10   11 1
  19   10   18 1
  20   10   19 1
  21   11   20 1
  22   11   21 1

#	End of record

