#	Name: ASD01948227
#	Creating user name:	WinNT
#	Creation time:	15. 06. 2019 20:14

#	Modifying user name:	WinNT
#	Modification time:	15. 06. 2019 20:14

#	Program:	/corina/corina34_cracker 3.40 0067  02.08.2006

@<TRIPOS>MOLECULE
ASD01948227
  52   55    0    0    0
SMALL
NO_CHARGES


@<TRIPOS>ATOM
   1 C1            -0.1934     0.1199     1.3112 C.ar    
   2 C2            -0.1782    -1.1815     1.7627 C.ar    
   3 C3            -1.3669    -1.9137     1.8576 C.ar    
   4 C4            -2.5761    -1.3158     1.4905 C.ar    
   5 C5            -2.5906    -0.0089     1.0372 C.ar    
   6 C6            -1.4015     0.7168     0.9503 C.ar    
   7 C7             0.9253    -2.0995     2.2269 C.3     
   8 N8             0.2801    -3.3692     2.5799 N.am    
   9 C9            -1.0419    -3.2573     2.3653 C.2     
  10 C10           -3.1931     0.4080    -1.6595 C.ar    
  11 C11           -4.0966     0.8002    -0.6813 C.ar    
  12 N12           -3.8023     0.5892     0.6696 N.pl3   
  13 C13           -3.4862     0.6181    -2.9935 C.ar    
  14 C14           -4.6780     1.2189    -3.3556 C.ar    
  15 C15           -5.5821     1.6112    -2.3841 C.ar    
  16 C16           -5.2953     1.4041    -1.0478 C.ar    
  17 F17           -6.1778     1.7870    -0.0992 F       
  18 I18           -5.1162     1.5352    -5.3797 I       
  19 O19           -1.8544    -4.1402     2.5628 O.2     
  20 N20           -1.4199     2.0356     0.4928 N.am    
  21 S21           -0.9373     3.2652     1.4916 S.o2    
  22 C22           -2.1404     3.2443     2.8491 C.3     
  23 C23           -3.6020     3.4340     2.4385 C.3     
  24 O24            0.9673     0.8238     1.2229 O.3     
  25 C25            1.6800     0.7471    -0.0133 C.3     
  26 O26            0.3434     2.8589     1.9540 O.2     
  27 O27           -1.0939     4.4379     0.7045 O.2     
  28 C28           -3.7890     4.8341     1.8504 C.3     
  29 O29           -5.1756     5.0594     1.5884 O.3     
  30 C30           -1.8537     2.3186     4.0330 C.3     
  31 C31           -1.7015     3.8335     4.1911 C.3     
  32 H32           -3.4980    -1.8739     1.5603 H       
  33 H33            1.6455    -2.2557     1.4237 H       
  34 H34            1.4224    -1.6764     3.0997 H       
  35 H35            0.7332    -4.1594     2.9134 H       
  36 H36           -2.2599    -0.0569    -1.3781 H       
  37 H37           -4.4375     0.8573     1.3519 H       
  38 H38           -2.7833     0.3129    -3.7545 H       
  39 H39           -6.5116     2.0807    -2.6701 H       
  40 H40           -1.7154     2.2317    -0.4100 H       
  41 H41           -3.8692     2.6873     1.6908 H       
  42 H42           -4.2429     3.3185     3.3125 H       
  43 H43            2.5841     1.3525     0.0504 H       
  44 H44            1.9503    -0.2898    -0.2132 H       
  45 H45            1.0491     1.1201    -0.8202 H       
  46 H46           -3.4280     5.5777     2.5609 H       
  47 H47           -3.2256     4.9160     0.9210 H       
  48 H48           -5.3687     5.9296     1.2135 H       
  49 H49           -2.7063     1.8450     4.5196 H       
  50 H50           -0.9421     1.7221     3.9962 H       
  51 H51           -0.6897     4.2334     4.2585 H       
  52 H52           -2.4540     4.3560     4.7817 H       
@<TRIPOS>BOND
   1    1    2 ar
   2    1   24 1
   3    1    6 ar
   4    2    3 ar
   5    2    7 1
   6    3    4 ar
   7    3    9 1
   8    4    5 ar
   9    4   32 1
  10    5    6 ar
  11    5   12 1
  12    6   20 1
  13    7    8 1
  14    7   33 1
  15    7   34 1
  16    8    9 am
  17    8   35 1
  18    9   19 2
  19   10   11 ar
  20   10   13 ar
  21   10   36 1
  22   11   12 1
  23   11   16 ar
  24   12   37 1
  25   13   14 ar
  26   13   38 1
  27   14   15 ar
  28   14   18 1
  29   15   16 ar
  30   15   39 1
  31   16   17 1
  32   20   21 am
  33   20   40 1
  34   21   22 1
  35   21   26 2
  36   21   27 2
  37   22   23 1
  38   22   30 1
  39   22   31 1
  40   23   28 1
  41   23   41 1
  42   23   42 1
  43   24   25 1
  44   25   43 1
  45   25   44 1
  46   25   45 1
  47   28   29 1
  48   28   46 1
  49   28   47 1
  50   29   48 1
  51   30   31 1
  52   30   49 1
  53   30   50 1
  54   31   51 1
  55   31   52 1

#	End of record

