#	Name: ASD01916169
#	Creating user name:	WinNT
#	Creation time:	15. 06. 2019 20:06

#	Modifying user name:	WinNT
#	Modification time:	15. 06. 2019 20:06

#	Program:	/corina/corina34_cracker 3.40 0067  02.08.2006

@<TRIPOS>MOLECULE
ASD01916169
  46   48    0    0    0
SMALL
NO_CHARGES


@<TRIPOS>ATOM
   1 C1            -0.3944     1.7233     0.1100 C.ar    
   2 C2            -0.5254     0.3730     0.3792 C.ar    
   3 N3             0.5186    -0.3555     0.7133 N.ar    
   4 C4             1.7359     0.1676     0.8061 C.ar    
   5 C5             1.9475     1.5186     0.5503 C.ar    
   6 C6             0.8628     2.3159     0.1945 C.ar    
   7 C7            -1.8837    -0.2736     0.2893 C.3     
   8 O8             1.0269     3.6384    -0.0636 O.3     
   9 C9             2.2779     4.1586     0.0420 C.ar    
  10 C10            3.2084     3.9635    -0.9685 C.ar    
  11 N11            4.4235     4.4653    -0.8715 N.ar    
  12 C12            4.8038     5.1670     0.1779 C.ar    
  13 C13            3.9317     5.4050     1.2272 C.ar    
  14 C14            2.6415     4.8990     1.1622 C.ar    
  15 C15            2.8785    -0.6953     1.1859 C.2     
  16 N16            2.6803    -2.0048     1.4355 N.am    
  17 O17            3.9945    -0.2224     1.2725 O.2     
  18 C18            3.7676    -2.8379     1.6892 C.ar    
  19 C19            3.5684    -4.2065     1.8310 C.ar    
  20 C20            4.6573    -5.0226     2.0829 C.ar    
  21 C21            5.9127    -4.4393     2.1845 C.ar    
  22 C22            6.0374    -3.0722     2.0326 C.ar    
  23 N23            4.9820    -2.3198     1.7877 N.ar    
  24 C24           -1.8187    -1.4656    -0.6677 C.3     
  25 F25            4.3291     6.1298     2.2958 F       
  26 C26            7.3976    -2.4327     2.1418 C.3     
  27 C27            7.6809    -1.6177     0.8783 C.3     
  28 H28           -1.2572     2.3108    -0.1672 H       
  29 H29            2.9379     1.9426     0.6269 H       
  30 H30           -2.1886    -0.6174     1.2777 H       
  31 H31           -2.6074     0.4517    -0.0824 H       
  32 H32            2.9342     3.3939    -1.8441 H       
  33 H33            5.8085     5.5611     0.2200 H       
  34 H34            1.9394     5.0689     1.9651 H       
  35 H35            1.7805    -2.3672     1.4384 H       
  36 H36            2.5773    -4.6270     1.7462 H       
  37 H37            4.5330    -6.0893     2.1981 H       
  38 H38            6.7829    -5.0481     2.3808 H       
  39 H39           -1.0949    -2.1909    -0.2960 H       
  40 H40           -2.8011    -1.9332    -0.7328 H       
  41 H41           -1.5137    -1.1218    -1.6561 H       
  42 H42            7.4213    -1.7754     3.0110 H       
  43 H43            8.1558    -3.2080     2.2517 H       
  44 H44            7.6571    -2.2749     0.0090 H       
  45 H45            6.9226    -0.8424     0.7684 H       
  46 H46            8.6647    -1.1551     0.9573 H       
@<TRIPOS>BOND
   1    1    2 ar
   2    1    6 ar
   3    1   28 1
   4    2    3 ar
   5    2    7 1
   6    3    4 ar
   7    4    5 ar
   8    4   15 1
   9    5    6 ar
  10    5   29 1
  11    6    8 1
  12    7   24 1
  13    7   30 1
  14    7   31 1
  15    8    9 1
  16    9   10 ar
  17    9   14 ar
  18   10   11 ar
  19   10   32 1
  20   11   12 ar
  21   12   13 ar
  22   12   33 1
  23   13   14 ar
  24   13   25 1
  25   14   34 1
  26   15   16 am
  27   15   17 2
  28   16   18 1
  29   16   35 1
  30   18   19 ar
  31   18   23 ar
  32   19   20 ar
  33   19   36 1
  34   20   21 ar
  35   20   37 1
  36   21   22 ar
  37   21   38 1
  38   22   23 ar
  39   22   26 1
  40   24   39 1
  41   24   40 1
  42   24   41 1
  43   26   27 1
  44   26   42 1
  45   26   43 1
  46   27   44 1
  47   27   45 1
  48   27   46 1

#	End of record

