#	Name: ASD01150646
#	Creating user name:	WinNT
#	Creation time:	15. 06. 2019 19:04

#	Modifying user name:	WinNT
#	Modification time:	15. 06. 2019 19:04

#	Program:	/corina/corina34_cracker 3.40 0067  02.08.2006

@<TRIPOS>MOLECULE
ASD01150646
  57   60    0    0    0
SMALL
NO_CHARGES


@<TRIPOS>ATOM
   1 C1             0.4933     1.3919    -0.9465 C.ar    
   2 C2             0.4639     0.0109    -0.9224 C.ar    
   3 C3             1.9479     0.0102     0.9677 C.ar    
   4 C4             1.9789     1.3966     0.9446 C.ar    
   5 C5             1.2509     2.0887    -0.0132 C.ar    
   6 N6             1.2801     3.4880    -0.0392 N.am    
   7 C7             0.1264     4.1736    -0.1217 C.2     
   8 N8             0.1177     5.5194    -0.1489 N.am    
   9 C9             1.2790     6.2039    -0.0930 C.2     
  10 C10            2.5443     5.4601    -0.0027 C.2     
  11 N11            2.5098     4.1538     0.0269 N.2     
  12 O12            1.2793     7.4207    -0.1175 O.2     
  13 C13           -1.1538     6.2413    -0.2397 C.3     
  14 O14           -0.9269     3.5677    -0.1731 O.2     
  15 C15           -1.6751     6.5169     1.1472 C.ar    
  16 O16            3.7301     6.1204     0.0551 O.3     
  17 C17            4.9130     5.3233     0.1416 C.3     
  18 C18            1.1883    -0.6824     0.0308 C.ar    
  19 N19            2.6816    -0.6915     1.9324 N.am    
  20 C20            2.9446    -0.1217     3.1251 C.2     
  21 O21            2.6215     1.0289     3.3320 O.2     
  22 C22            3.6402    -0.9142     4.2018 C.3     
  23 C23           -1.3233     7.6852     1.7973 C.ar    
  24 C24           -1.7993     7.9425     3.0702 C.ar    
  25 C25           -2.6286     7.0317     3.6962 C.ar    
  26 C26           -2.9840     5.8560     3.0448 C.ar    
  27 C27           -2.5085     5.6044     1.7649 C.ar    
  28 F28            1.1574    -2.0329     0.0519 F       
  29 Cl29          -3.2254     7.3547     5.2941 Cl      
  30 N30           -3.8222     4.9321     3.6748 N.3     
  31 C31           -5.0552     4.7196     2.8948 C.3     
  32 C32           -5.1499     3.2095     2.5916 C.3     
  33 C33           -4.2670     2.5748     3.6982 C.3     
  34 C34           -3.1426     3.6302     3.8450 C.3     
  35 H35           -0.0696     1.9304    -1.6945 H       
  36 H36           -0.1260    -0.5284    -1.6487 H       
  37 H37            2.5683     1.9367     1.6708 H       
  38 H38           -0.9995     7.1844    -0.7639 H       
  39 H39           -1.8771     5.6360    -0.7861 H       
  40 H40            5.7871     5.9733     0.1810 H       
  41 H41            4.8740     4.7118     1.0432 H       
  42 H42            4.9802     4.6767    -0.7333 H       
  43 H43            3.0005    -1.5876     1.7421 H       
  44 H44            3.8502    -1.9190     3.8351 H       
  45 H45            4.5754    -0.4220     4.4685 H       
  46 H46            2.9981    -0.9749     5.0805 H       
  47 H47           -0.6750     8.3985     1.3102 H       
  48 H48           -1.5223     8.8559     3.5754 H       
  49 H49           -2.7830     4.6922     1.2559 H       
  50 H50           -5.9211     5.0361     3.4764 H       
  51 H51           -5.0061     5.2826     1.9627 H       
  52 H52           -6.1802     2.8635     2.6749 H       
  53 H53           -4.7469     2.9888     1.6032 H       
  54 H54           -4.8247     2.4665     4.6284 H       
  55 H55           -3.8627     1.6162     3.3732 H       
  56 H56           -2.3885     3.4916     3.0702 H       
  57 H57           -2.6884     3.5657     4.8337 H       
@<TRIPOS>BOND
   1    1    2 ar
   2    1    5 ar
   3    1   35 1
   4    2   18 ar
   5    2   36 1
   6    3    4 ar
   7    3   19 1
   8    3   18 ar
   9    4    5 ar
  10    4   37 1
  11    5    6 1
  12    6    7 am
  13    6   11 1
  14    7    8 am
  15    7   14 2
  16    8    9 am
  17    8   13 1
  18    9   10 1
  19    9   12 2
  20   10   11 2
  21   10   16 1
  22   13   15 1
  23   13   38 1
  24   13   39 1
  25   15   23 ar
  26   15   27 ar
  27   16   17 1
  28   17   40 1
  29   17   41 1
  30   17   42 1
  31   18   28 1
  32   19   20 am
  33   19   43 1
  34   20   21 2
  35   20   22 1
  36   22   44 1
  37   22   45 1
  38   22   46 1
  39   23   24 ar
  40   23   47 1
  41   24   25 ar
  42   24   48 1
  43   25   26 ar
  44   25   29 1
  45   26   27 ar
  46   26   30 1
  47   27   49 1
  48   30   31 1
  49   30   34 1
  50   31   32 1
  51   31   50 1
  52   31   51 1
  53   32   33 1
  54   32   52 1
  55   32   53 1
  56   33   34 1
  57   33   54 1
  58   33   55 1
  59   34   56 1
  60   34   57 1

#	End of record

