#	Name: ASD03090239
#	Creating user name:	WinNT
#	Creation time:	15. 06. 2019 20:28

#	Modifying user name:	WinNT
#	Modification time:	15. 06. 2019 20:28

#	Program:	/corina/corina34_cracker 3.40 0067  02.08.2006

@<TRIPOS>MOLECULE
ASD03090239
  45   48    0    0    0
SMALL
NO_CHARGES


@<TRIPOS>ATOM
   1 C1             0.1943     1.0492     0.8774 C.ar    
   2 N2            -0.9248     1.4742     1.4456 N.ar    
   3 C3            -2.0690     0.8425     1.2819 C.ar    
   4 C4            -2.1403    -0.3070     0.4963 C.ar    
   5 C5            -0.9752    -0.7839    -0.1194 C.ar    
   6 C6             0.2011    -0.0885     0.0745 C.ar    
   7 C7            -3.4268    -1.0131     0.3156 C.2     
   8 N8            -6.9329    -1.2545     0.4120 N.pl3   
   9 C9            -7.4345    -0.0745     0.9708 C.ar    
  10 C10           -6.7041     0.6016     1.9393 C.ar    
  11 C11           -7.2012     1.7671     2.4895 C.ar    
  12 C12           -8.4267     2.2611     2.0762 C.ar    
  13 C13           -9.1571     1.5884     1.1108 C.ar    
  14 C14           -8.6612     0.4262     0.5536 C.ar    
  15 N15           -4.6248    -0.5153     0.5512 N.2     
  16 C16           -5.5546    -1.4329     0.2783 C.2     
  17 N17           -4.9650    -2.5303    -0.1357 N.2     
  18 N18           -3.5830    -2.2816    -0.1261 N.pl3   
  19 C19           -2.5205    -3.2147    -0.5092 C.3     
  20 C20           -2.2806    -3.1228    -2.0175 C.3     
  21 O21           -1.2442    -4.0330    -2.3913 O.3     
  22 F22           -8.9111     3.4010     2.6160 F       
  23 N23            1.3746     1.7507     1.0807 N.3     
  24 C24            1.1521     2.9155     1.9477 C.3     
  25 C25            1.8170     1.6434     2.4774 C.3     
  26 C26          -10.4910     2.1284     0.6635 C.3     
  27 F27          -11.0333     1.2833    -0.3106 F       
  28 F28          -11.3585     2.1944     1.7590 F       
  29 F29          -10.3194     3.4089     0.1267 F       
  30 H30           -2.9607     1.2186     1.7612 H       
  31 H31           -0.9981    -1.6717    -0.7340 H       
  32 H32            1.1179    -0.4273    -0.3851 H       
  33 H33           -7.5427    -1.9490     0.1174 H       
  34 H34           -5.7484     0.2161     2.2625 H       
  35 H35           -6.6335     2.2931     3.2427 H       
  36 H36           -9.2310    -0.0979    -0.1995 H       
  37 H37           -1.6032    -2.9583     0.0208 H       
  38 H38           -2.8182    -4.2306    -0.2499 H       
  39 H39           -3.1979    -3.3792    -2.5476 H       
  40 H40           -1.9829    -2.1069    -2.2769 H       
  41 H41           -1.0386    -4.0283    -3.3361 H       
  42 H42            1.7846     3.7896     1.7924 H       
  43 H43            0.1299     3.1215     2.2652 H       
  44 H44            1.2342     1.0087     3.1449 H       
  45 H45            2.8889     1.6768     2.6722 H       
@<TRIPOS>BOND
   1    1    2 ar
   2    1   23 1
   3    1    6 ar
   4    2    3 ar
   5    3    4 ar
   6    3   30 1
   7    4    5 ar
   8    4    7 1
   9    5    6 ar
  10    5   31 1
  11    6   32 1
  12    7   15 2
  13    7   18 1
  14    8    9 1
  15    8   16 1
  16    8   33 1
  17    9   10 ar
  18    9   14 ar
  19   10   11 ar
  20   10   34 1
  21   11   12 ar
  22   11   35 1
  23   12   13 ar
  24   12   22 1
  25   13   14 ar
  26   13   26 1
  27   14   36 1
  28   15   16 1
  29   16   17 2
  30   17   18 1
  31   18   19 1
  32   19   20 1
  33   19   37 1
  34   19   38 1
  35   20   21 1
  36   20   39 1
  37   20   40 1
  38   21   41 1
  39   23   24 1
  40   23   25 1
  41   24   25 1
  42   24   42 1
  43   24   43 1
  44   25   44 1
  45   25   45 1
  46   26   27 1
  47   26   28 1
  48   26   29 1

#	End of record

