#	Name: ASD03091033
#	Creating user name:	WinNT
#	Creation time:	15. 06. 2019 20:29

#	Modifying user name:	WinNT
#	Modification time:	15. 06. 2019 20:29

#	Program:	/corina/corina34_cracker 3.40 0067  02.08.2006

@<TRIPOS>MOLECULE
ASD03091033
  16   16    0    0    0
SMALL
NO_CHARGES


@<TRIPOS>ATOM
   1 C1            -0.0404     1.4230    -0.5152 C.2     
   2 C2            -0.0089    -0.0265    -0.2534 C.ar    
   3 C3             1.2147    -0.6893    -0.1186 C.ar    
   4 C4             1.2378    -2.0461     0.1263 C.ar    
   5 C5             0.0537    -2.7532     0.2390 C.ar    
   6 C6            -1.1637    -2.1043     0.1068 C.ar    
   7 C7            -1.2019    -0.7442    -0.1330 C.ar    
   8 O8             0.5256     1.8761    -1.4877 O.2     
   9 Cl9           -0.8937     2.4816     0.5641 Cl      
  10 N10            2.4832     0.0640    -0.2391 N.pl3   
  11 O11            3.5459    -0.5310    -0.2524 O.2     
  12 O12            2.4643     1.2788    -0.3249 O.2     
  13 F13           -2.3153    -2.8020     0.2178 F       
  14 H14            2.1828    -2.5585     0.2302 H       
  15 H15            0.0783    -3.8158     0.4306 H       
  16 H16           -2.1508    -0.2380    -0.2315 H       
@<TRIPOS>BOND
   1    1    2 1
   2    1    8 2
   3    1    9 1
   4    2    3 ar
   5    2    7 ar
   6    3    4 ar
   7    3   10 1
   8    4    5 ar
   9    4   14 1
  10    5    6 ar
  11    5   15 1
  12    6    7 ar
  13    6   13 1
  14    7   16 1
  15   10   11 2
  16   10   12 2

#	End of record

