#	Name: ASD01940300
#	Creating user name:	WinNT
#	Creation time:	15. 06. 2019 20:12

#	Modifying user name:	WinNT
#	Modification time:	15. 06. 2019 20:12

#	Program:	/corina/corina34_cracker 3.40 0067  02.08.2006

@<TRIPOS>MOLECULE
ASD01940300
  43   45    0    0    0
SMALL
NO_CHARGES


@<TRIPOS>ATOM
   1 C1             0.5396     2.3028    -2.5746 C.3     
   2 C2            -0.2835     2.9049    -3.7151 C.3     
   3 C3             0.8757     3.6971    -3.1073 C.3     
   4 S4            -0.2437     2.1963    -0.9419 S.o2    
   5 O5            -1.4474     1.4446    -1.0144 O.2     
   6 O6             0.7274     1.9294     0.0606 O.2     
   7 N7            -0.7459     3.7417    -0.6229 N.am    
   8 C8             0.1956     4.7367    -0.3192 C.ar    
   9 C9            -0.2281     5.9810     0.1434 C.ar    
  10 C10            0.7078     6.9624     0.4425 C.ar    
  11 C11            2.0593     6.7028     0.2806 C.ar    
  12 C12            2.4793     5.4663    -0.1791 C.ar    
  13 C13            1.5514     4.4818    -0.4736 C.ar    
  14 N14           -1.5957     6.2416     0.3060 N.pl3   
  15 C15           -2.0521     7.5614     0.3803 C.ar    
  16 C16           -1.9613     8.3942    -0.7308 C.ar    
  17 C17           -2.4140     9.6979    -0.6532 C.ar    
  18 C18           -2.9561    10.1741     0.5276 C.ar    
  19 C19           -3.0473     9.3480     1.6330 C.ar    
  20 C20           -2.6020     8.0419     1.5608 C.ar    
  21 I21           -3.6398    12.1511     0.6413 I       
  22 F22           -1.4311     7.9295    -1.8832 F       
  23 F23            1.9653     3.2744    -0.9166 F       
  24 F24            2.9689     7.6584     0.5715 F       
  25 F25            0.3007     8.1701     0.8909 F       
  26 C26            1.5001     1.1635    -2.9216 C.3     
  27 C27            2.2993     0.7732    -1.6766 C.3     
  28 O28            3.1362    -0.3450    -1.9790 O.3     
  29 H29           -0.1407     2.4894    -4.7127 H       
  30 H30           -1.2957     3.2370    -3.4844 H       
  31 H31            0.6262     4.5504    -2.4767 H       
  32 H32            1.7811     3.8028    -3.7049 H       
  33 H33           -1.6909     3.9591    -0.6461 H       
  34 H34            3.5335     5.2676    -0.3040 H       
  35 H35           -2.2256     5.5065     0.3670 H       
  36 H36           -2.3442    10.3455    -1.5147 H       
  37 H37           -3.4710     9.7231     2.5529 H       
  38 H38           -2.6779     7.3967     2.4236 H       
  39 H39            0.9310     0.3027    -3.2727 H       
  40 H40            2.1842     1.4907    -3.7046 H       
  41 H41            2.9167     1.6147    -1.3626 H       
  42 H42            1.6128     0.5064    -0.8731 H       
  43 H43            3.6730    -0.6474    -1.2337 H       
@<TRIPOS>BOND
   1    1    2 1
   2    1    3 1
   3    1    4 1
   4    1   26 1
   5    2    3 1
   6    2   29 1
   7    2   30 1
   8    3   31 1
   9    3   32 1
  10    4    5 2
  11    4    6 2
  12    4    7 am
  13    7    8 1
  14    7   33 1
  15    8    9 ar
  16    8   13 ar
  17    9   10 ar
  18    9   14 1
  19   10   11 ar
  20   10   25 1
  21   11   12 ar
  22   11   24 1
  23   12   13 ar
  24   12   34 1
  25   13   23 1
  26   14   15 1
  27   14   35 1
  28   15   16 ar
  29   15   20 ar
  30   16   17 ar
  31   16   22 1
  32   17   18 ar
  33   17   36 1
  34   18   19 ar
  35   18   21 1
  36   19   20 ar
  37   19   37 1
  38   20   38 1
  39   26   27 1
  40   26   39 1
  41   26   40 1
  42   27   28 1
  43   27   41 1
  44   27   42 1
  45   28   43 1

#	End of record

