#	Name: ASD01811978
#	Creating user name:	WinNT
#	Creation time:	15. 06. 2019 19:27

#	Modifying user name:	WinNT
#	Modification time:	15. 06. 2019 19:27

#	Program:	/corina/corina34_cracker 3.40 0067  02.08.2006

@<TRIPOS>MOLECULE
ASD01811978
  38   40    0    0    0
SMALL
NO_CHARGES


@<TRIPOS>ATOM
   1 C1            -0.2313     1.2802     0.1887 C.ar    
   2 C2            -0.0841    -0.0928     0.1021 C.ar    
   3 C3             1.1762    -0.6523    -0.0203 C.ar    
   4 C4             2.2925     0.1664    -0.0559 C.ar    
   5 C5             2.1422     1.5531     0.0139 C.ar    
   6 C6             0.8789     2.1045     0.1446 C.ar    
   7 N7             3.5786    -0.3825    -0.1344 N.pl3   
   8 C8             4.3260     1.0280     1.7248 C.3     
   9 C9             4.3597     2.1206     0.6890 C.2     
  10 N10            3.2750     2.3702    -0.0756 N.am    
  11 S11            5.6871     2.9905     0.4939 S.2     
  12 C12            4.0329    -0.9613    -1.3217 C.ar    
  13 C13            3.2563    -0.8922    -2.4717 C.ar    
  14 C14            3.7085    -1.4656    -3.6438 C.ar    
  15 C15            4.9328    -2.1081    -3.6737 C.ar    
  16 C16            5.7081    -2.1793    -2.5307 C.ar    
  17 C17            5.2649    -1.6027    -1.3568 C.ar    
  18 Cl18          -1.4847    -1.1175     0.1478 Cl      
  19 C19            3.0093     1.1046     2.5003 C.3     
  20 C20            3.0493     0.1210     3.6715 C.3     
  21 C21            4.4386    -0.3394     1.0501 C.3     
  22 H22           -1.2171     1.7104     0.2865 H       
  23 H23            1.2886    -1.7244    -0.0875 H       
  24 H24            0.7604     3.1759     0.2117 H       
  25 H25            5.1598     1.1582     2.4146 H       
  26 H26            3.2812     3.1200    -0.6909 H       
  27 H27            2.3000    -0.3908    -2.4489 H       
  28 H28            3.1052    -1.4125    -4.5380 H       
  29 H29            5.2840    -2.5557    -4.5917 H       
  30 H30            6.6633    -2.6824    -2.5574 H       
  31 H31            5.8710    -1.6583    -0.4647 H       
  32 H32            2.8699     2.1166     2.8803 H       
  33 H33            2.1823     0.8479     1.8383 H       
  34 H34            3.1888    -0.8911     3.2914 H       
  35 H35            3.8764     0.3776     4.3335 H       
  36 H36            2.1113     0.1755     4.2240 H       
  37 H37            4.1294    -1.1153     1.7504 H       
  38 H38            5.4730    -0.5126     0.7532 H       
@<TRIPOS>BOND
   1    1    2 ar
   2    1    6 ar
   3    1   22 1
   4    2    3 ar
   5    2   18 1
   6    3    4 ar
   7    3   23 1
   8    4    5 ar
   9    4    7 1
  10    5    6 ar
  11    5   10 1
  12    6   24 1
  13    7   12 1
  14    7   21 1
  15    8    9 1
  16    8   19 1
  17    8   21 1
  18    8   25 1
  19    9   10 am
  20    9   11 2
  21   10   26 1
  22   12   13 ar
  23   12   17 ar
  24   13   14 ar
  25   13   27 1
  26   14   15 ar
  27   14   28 1
  28   15   16 ar
  29   15   29 1
  30   16   17 ar
  31   16   30 1
  32   17   31 1
  33   19   20 1
  34   19   32 1
  35   19   33 1
  36   20   34 1
  37   20   35 1
  38   20   36 1
  39   21   37 1
  40   21   38 1

#	End of record

