#	Name: ASD01881543
#	Creating user name:	WinNT
#	Creation time:	15. 06. 2019 19:42

#	Modifying user name:	WinNT
#	Modification time:	15. 06. 2019 19:42

#	Program:	/corina/corina34_cracker 3.40 0067  02.08.2006

@<TRIPOS>MOLECULE
ASD01881543
  45   48    0    0    0
SMALL
NO_CHARGES


@<TRIPOS>ATOM
   1 C1            -0.0168     1.3906     0.0097 C.ar    
   2 C2             0.0021    -0.0041     0.0020 C.ar    
   3 C3            -1.1637    -0.7166     0.0093 C.ar    
   4 C4            -2.3838    -0.0521     0.0250 C.ar    
   5 C5            -2.4172     1.3550     0.0333 C.ar    
   6 C6            -1.2184     2.0735     0.0306 C.ar    
   7 N7            -3.7011    -0.4439     0.0356 N.pl3   
   8 N8            -4.4345     0.6150     0.0488 N.2     
   9 N9            -3.7239     1.6876     0.0480 N.2     
  10 C10           -4.1868    -1.8260     0.0320 C.3     
  11 N11            1.1880     2.1028     0.0020 N.pl3   
  12 Br12          -1.2402     3.9643     0.0417 Br      
  13 C13            2.4641     1.3833    -0.0140 C.3     
  14 C14            3.5995     2.3742    -0.0196 C.ar    
  15 C15            4.1316     2.8223     1.1750 C.ar    
  16 C16            5.1730     3.7313     1.1699 C.ar    
  17 C17            5.6823     4.1923    -0.0297 C.ar    
  18 C18            5.1504     3.7438    -1.2242 C.ar    
  19 C19            4.1125     2.8309    -1.2192 C.ar    
  20 C20           -4.3417    -2.3158     1.4732 C.3     
  21 C21           -4.9519    -3.7026     1.6862 C.3     
  22 C22           -3.4567    -3.4802     1.9225 C.3     
  23 C23            5.7528     4.2201     2.4722 C.3     
  24 F24            6.7995     3.3777     2.8620 F       
  25 F25            6.2386     5.5217     2.3070 F       
  26 F26            4.7587     4.2148     3.4565 F       
  27 C27            5.7053     4.2467    -2.5320 C.3     
  28 F28            6.7434     5.1505    -2.2814 F       
  29 F29            6.1955     3.1682    -3.2761 F       
  30 F30            4.6922     4.8883    -3.2525 F       
  31 H31            0.9476    -0.5259    -0.0102 H       
  32 H32           -1.1368    -1.7962     0.0025 H       
  33 H33           -5.1520    -1.8706    -0.4726 H       
  34 H34           -3.4728    -2.4607    -0.4927 H       
  35 H35            1.1782     3.0727     0.0073 H       
  36 H36            2.5367     0.7525     0.8719 H       
  37 H37            2.5197     0.7621    -0.9079 H       
  38 H38            3.7335     2.4624     2.1122 H       
  39 H39            6.4955     4.9030    -0.0336 H       
  40 H40            3.6970     2.4805    -2.1525 H       
  41 H41           -4.5729    -1.5458     2.2092 H       
  42 H42           -5.5842    -3.8450     2.5626 H       
  43 H43           -5.2430    -4.2660     0.7997 H       
  44 H44           -2.7642    -3.8973     1.1914 H       
  45 H45           -3.1054    -3.4763     2.9543 H       
@<TRIPOS>BOND
   1    1    2 ar
   2    1   11 1
   3    1    6 ar
   4    2    3 ar
   5    2   31 1
   6    3    4 ar
   7    3   32 1
   8    4    5 ar
   9    4    7 1
  10    5    6 ar
  11    5    9 1
  12    6   12 1
  13    7    8 1
  14    7   10 1
  15    8    9 2
  16   10   20 1
  17   10   33 1
  18   10   34 1
  19   11   13 1
  20   11   35 1
  21   13   14 1
  22   13   36 1
  23   13   37 1
  24   14   15 ar
  25   14   19 ar
  26   15   16 ar
  27   15   38 1
  28   16   23 1
  29   16   17 ar
  30   17   18 ar
  31   17   39 1
  32   18   27 1
  33   18   19 ar
  34   19   40 1
  35   20   21 1
  36   20   22 1
  37   20   41 1
  38   21   22 1
  39   21   42 1
  40   21   43 1
  41   22   44 1
  42   22   45 1
  43   23   24 1
  44   23   25 1
  45   23   26 1
  46   27   28 1
  47   27   29 1
  48   27   30 1

#	End of record

