#	Name: ASD01885569
#	Creating user name:	WinNT
#	Creation time:	15. 06. 2019 19:49

#	Modifying user name:	WinNT
#	Modification time:	15. 06. 2019 19:49

#	Program:	/corina/corina34_cracker 3.40 0067  02.08.2006

@<TRIPOS>MOLECULE
ASD01885569
  49   52    0    0    0
SMALL
NO_CHARGES


@<TRIPOS>ATOM
   1 C1            -0.0164     1.3588     0.0095 C.ar    
   2 C2             0.0021    -0.0041     0.0020 C.ar    
   3 C3             1.2050    -0.7054    -0.0132 C.ar    
   4 C4             2.3987    -0.0472    -0.0211 C.ar    
   5 C5             2.4197     1.3531    -0.0137 C.ar    
   6 C6             1.1990     2.0738     0.0017 C.ar    
   7 C7             3.6429     2.0705    -0.0210 C.ar    
   8 C8             3.5828     3.4573    -0.0126 C.ar    
   9 C9             2.3365     4.0930     0.0026 C.ar    
  10 N10            1.2090     3.4069     0.0083 N.ar    
  11 C11            4.9435     1.3625    -0.0366 C.2     
  12 C12            2.2809     5.5745     0.0115 C.2     
  13 O13            3.3097     6.2211     0.0056 O.2     
  14 N14            1.0894     6.2041     0.0261 N.am    
  15 F15           -1.1937     2.0215     0.0187 F       
  16 C16           -1.2994    -0.7637     0.0109 C.3     
  17 N17           -1.8556    -0.7954    -1.3441 N.am    
  18 C18            5.3344     0.3168     0.8250 C.2     
  19 N19            6.5465    -0.0446     0.4993 N.2     
  20 N20            6.9755     0.7471    -0.5726 N.pl3   
  21 C21            5.9826     1.5989    -0.8926 C.2     
  22 C22            8.2788     0.6601    -1.2359 C.3     
  23 C23           -1.5915    -1.7590    -2.2485 C.2     
  24 C24           -2.3758    -1.3822    -3.4897 C.3     
  25 N25           -3.0544    -0.1327    -3.1044 N.am    
  26 C26           -2.6929     0.1256    -1.8346 C.2     
  27 O27           -0.8752    -2.7258    -2.1004 O.2     
  28 O28           -3.0809     1.0898    -1.2045 O.2     
  29 C29           -1.4325    -1.1406    -4.6698 C.3     
  30 C30           -3.3990    -2.4676    -3.8301 C.3     
  31 H31            1.1920    -1.7853    -0.0186 H       
  32 H32            3.3244    -0.6034    -0.0326 H       
  33 H33            4.4914     4.0412    -0.0173 H       
  34 H34            0.2681     5.6880     0.0308 H       
  35 H35            1.0531     7.1735     0.0319 H       
  36 H36           -1.1230    -1.7827     0.3552 H       
  37 H37           -2.0034    -0.2705     0.6811 H       
  38 H38            4.7361    -0.1104     1.6162 H       
  39 H39            6.0044     2.3366    -1.6811 H       
  40 H40            8.2196    -0.0489    -2.0617 H       
  41 H41            8.5576     1.6417    -1.6191 H       
  42 H42            9.0288     0.3229    -0.5205 H       
  43 H43           -3.6484     0.3985    -3.6574 H       
  44 H44           -0.8647    -2.0486    -4.8729 H       
  45 H45           -2.0146    -0.8712    -5.5511 H       
  46 H46           -0.7460    -0.3298    -4.4261 H       
  47 H47           -4.0920    -2.5876    -2.9974 H       
  48 H48           -3.9517    -2.1783    -4.7239 H       
  49 H49           -2.8823    -3.4100    -4.0115 H       
@<TRIPOS>BOND
   1    1    2 ar
   2    1    6 ar
   3    1   15 1
   4    2    3 ar
   5    2   16 1
   6    3    4 ar
   7    3   31 1
   8    4    5 ar
   9    4   32 1
  10    5    7 ar
  11    5    6 ar
  12    6   10 ar
  13    7    8 ar
  14    7   11 1
  15    8    9 ar
  16    8   33 1
  17    9   10 ar
  18    9   12 1
  19   11   18 1
  20   11   21 2
  21   12   13 2
  22   12   14 am
  23   14   34 1
  24   14   35 1
  25   16   17 1
  26   16   36 1
  27   16   37 1
  28   17   23 am
  29   17   26 am
  30   18   19 2
  31   18   38 1
  32   19   20 1
  33   20   21 1
  34   20   22 1
  35   21   39 1
  36   22   40 1
  37   22   41 1
  38   22   42 1
  39   23   24 1
  40   23   27 2
  41   24   25 1
  42   24   29 1
  43   24   30 1
  44   25   26 am
  45   25   43 1
  46   26   28 2
  47   29   44 1
  48   29   45 1
  49   29   46 1
  50   30   47 1
  51   30   48 1
  52   30   49 1

#	End of record

