#	Name: ASD01914880
#	Creating user name:	WinNT
#	Creation time:	15. 06. 2019 20:04

#	Modifying user name:	WinNT
#	Modification time:	15. 06. 2019 20:04

#	Program:	/corina/corina34_cracker 3.40 0067  02.08.2006

@<TRIPOS>MOLECULE
ASD01914880
  64   69    0    0    0
SMALL
NO_CHARGES


@<TRIPOS>ATOM
   1 N1             0.0273     1.3908    -0.1028 N.2     
   2 C2            -0.0391     0.0595     0.0783 C.2     
   3 C3             1.2318    -0.4206     0.1477 C.2     
   4 N4             2.0697     0.6502     0.0046 N.pl3   
   5 C5             1.2875     1.7578    -0.1488 C.2     
   6 C6            -1.2816    -0.7448     0.1843 C.ar    
   7 C7            -1.2114    -2.1059     0.4763 C.ar    
   8 C8            -2.5223    -0.1419    -0.0019 C.ar    
   9 C9            -3.6817    -0.8896     0.0973 C.ar    
  10 C10           -3.6089    -2.2437     0.3783 C.ar    
  11 C11           -2.3687    -2.8468     0.5715 C.ar    
  12 C12            1.7772     3.1409    -0.3363 C.ar    
  13 C13            3.0858     3.4745     0.0149 C.ar    
  14 C14            3.5364     4.7664    -0.1625 C.ar    
  15 C15            2.6939     5.7301    -0.6873 C.ar    
  16 C16            1.3952     5.4060    -1.0370 C.ar    
  17 C17            0.9343     4.1162    -0.8704 C.ar    
  18 C18            3.5342     0.6151     0.0144 C.3     
  19 C19            4.0328     0.8474     1.4175 C.2     
  20 O20            3.2426     1.0249     2.3202 O.2     
  21 N21            5.3569     0.8580     1.6690 N.am    
  22 C22            5.8648     1.0830     3.0309 C.3     
  23 C23            6.3320     0.6389     0.5900 C.3     
  24 C24            7.3068    -0.4585     1.0303 C.3     
  25 N25            7.8890    -0.0991     2.3302 N.3     
  26 C26            6.8588    -0.0328     3.3701 C.3     
  27 C27            8.8932    -0.9840     2.6825 C.ar    
  28 N28            9.9112    -1.1698     1.8551 N.ar    
  29 N29            8.8165    -1.6211     3.8417 N.ar    
  30 C30            9.7595    -2.4730     4.2087 C.ar    
  31 C31           10.8361    -2.6949     3.3644 C.ar    
  32 C32           10.8875    -2.0079     2.1617 C.ar    
  33 C33           -5.0073    -0.1984    -0.0997 C.3     
  34 C34           -6.0937    -1.2378    -0.3861 C.3     
  35 C35           -5.9775    -2.3565     0.6570 C.3     
  36 O36           -4.7237    -3.0151     0.4731 O.3     
  37 H37            1.5232    -1.4509     0.2892 H       
  38 H38           -0.2521    -2.5785     0.6273 H       
  39 H39           -2.5799     0.9134    -0.2243 H       
  40 H40           -2.3137    -3.9023     0.7933 H       
  41 H41            3.7443     2.7231     0.4250 H       
  42 H42            4.5490     5.0259     0.1092 H       
  43 H43            3.0515     6.7400    -0.8242 H       
  44 H44            0.7423     6.1629    -1.4459 H       
  45 H45           -0.0797     3.8644    -1.1438 H       
  46 H46            3.8767    -0.3585    -0.3363 H       
  47 H47            3.9208     1.3944    -0.6423 H       
  48 H48            6.3678     2.0487     3.0792 H       
  49 H49            5.0361     1.0628     3.7387 H       
  50 H50            5.8122     0.3252    -0.3153 H       
  51 H51            6.8808     1.5612     0.3995 H       
  52 H52            6.7729    -1.4046     1.1199 H       
  53 H53            8.1013    -0.5574     0.2907 H       
  54 H54            7.3262     0.1771     4.3322 H       
  55 H55            6.3319    -0.9856     3.4214 H       
  56 H56            9.6916    -2.9891     5.1550 H       
  57 H57           11.6200    -3.3849     3.6397 H       
  58 H58           11.7128    -2.1581     1.4814 H       
  59 H59           -5.2648     0.3561     0.8027 H       
  60 H60           -4.9350     0.4917    -0.9403 H       
  61 H61           -7.0762    -0.7710    -0.3163 H       
  62 H62           -5.9528    -1.6508    -1.3850 H       
  63 H63           -6.0247    -1.9304     1.6592 H       
  64 H64           -6.7903    -3.0701     0.5222 H       
@<TRIPOS>BOND
   1    1    2 1
   2    1    5 2
   3    2    3 2
   4    2    6 1
   5    3    4 1
   6    3   37 1
   7    4    5 1
   8    4   18 1
   9    5   12 1
  10    6    7 ar
  11    6    8 ar
  12    7   11 ar
  13    7   38 1
  14    8    9 ar
  15    8   39 1
  16    9   10 ar
  17    9   33 1
  18   10   11 ar
  19   10   36 1
  20   11   40 1
  21   12   13 ar
  22   12   17 ar
  23   13   14 ar
  24   13   41 1
  25   14   15 ar
  26   14   42 1
  27   15   16 ar
  28   15   43 1
  29   16   17 ar
  30   16   44 1
  31   17   45 1
  32   18   19 1
  33   18   46 1
  34   18   47 1
  35   19   20 2
  36   19   21 am
  37   21   22 1
  38   21   23 1
  39   22   26 1
  40   22   48 1
  41   22   49 1
  42   23   24 1
  43   23   50 1
  44   23   51 1
  45   24   25 1
  46   24   52 1
  47   24   53 1
  48   25   26 1
  49   25   27 1
  50   26   54 1
  51   26   55 1
  52   27   28 ar
  53   27   29 ar
  54   28   32 ar
  55   29   30 ar
  56   30   31 ar
  57   30   56 1
  58   31   32 ar
  59   31   57 1
  60   32   58 1
  61   33   34 1
  62   33   59 1
  63   33   60 1
  64   34   35 1
  65   34   61 1
  66   34   62 1
  67   35   36 1
  68   35   63 1
  69   35   64 1

#	End of record

