#	Name: ASD02900028
#	Creating user name:	WinNT
#	Creation time:	15. 06. 2019 20:26

#	Modifying user name:	WinNT
#	Modification time:	15. 06. 2019 20:26

#	Program:	/corina/corina34_cracker 3.40 0067  02.08.2006

@<TRIPOS>MOLECULE
ASD02900028
  17   16    0    0    0
SMALL
NO_CHARGES


@<TRIPOS>ATOM
   1 P1            -0.0180     1.4758     0.0102 P.3     
   2 O2             0.0021    -0.0041     0.0020 O.2     
   3 O3             1.4924     2.0330    -0.0013 O.3     
   4 O4            -0.7967     2.0091    -1.2942 O.3     
   5 O5            -0.7716     1.9950     1.3348 O.3     
   6 C6            -0.3850     1.6043     2.6538 C.3     
   7 C7            -1.2917     2.2656     3.6597 C.2     
   8 O8            -2.1775     2.9960     3.2855 O.2     
   9 C9            -1.0929     2.0152     5.1324 C.3     
  10 O10           -2.0686     2.7480     5.8760 O.3     
  11 H11            1.5557     2.9980     0.0033 H       
  12 H12           -0.3973     1.7338    -2.1307 H       
  13 H13           -0.4642     0.5214     2.7499 H       
  14 H14            0.6450     1.9108     2.8364 H       
  15 H15           -1.2035     0.9506     5.3381 H       
  16 H16           -0.0942     2.3399     5.4246 H       
  17 H17           -2.0003     2.6339     6.8339 H       
@<TRIPOS>BOND
   1    1    2 2
   2    1    3 1
   3    1    4 1
   4    1    5 1
   5    3   11 1
   6    4   12 1
   7    5    6 1
   8    6    7 1
   9    6   13 1
  10    6   14 1
  11    7    8 2
  12    7    9 1
  13    9   10 1
  14    9   15 1
  15    9   16 1
  16   10   17 1

#	End of record

