#	Name: ASD00431179
#	Creating user name:	WinNT
#	Creation time:	15. 06. 2019 18:35

#	Modifying user name:	WinNT
#	Modification time:	15. 06. 2019 18:35

#	Program:	/corina/corina34_cracker 3.40 0067  02.08.2006

@<TRIPOS>MOLECULE
ASD00431179
  50   52    0    0    0
SMALL
NO_CHARGES


@<TRIPOS>ATOM
   1 C1            -0.3753     0.2235     1.9489 C.2     
   2 C2            -0.6240    -1.2628     1.9520 C.3     
   3 O3             0.7274     0.6543     2.2124 O.2     
   4 N4            -1.3768     1.0737     1.6480 N.am    
   5 C5            -1.1350     2.5186     1.6450 C.3     
   6 C6            -0.5676     2.9380     0.2873 C.3     
   7 O7            -3.6351     2.9285     1.3956 O.3     
   8 N8            -4.4927     3.6943     1.7698 N.2     
   9 C9            -3.9990     4.6176     2.5575 C.2     
  10 C10           -2.6064     4.3437     2.6628 C.2     
  11 C11           -2.4314     3.2454     1.8938 C.2     
  12 C12           -4.0630     6.6968     3.9388 C.ar    
  13 C13           -4.7416     5.7254     3.2075 C.ar    
  14 C14           -6.1334     5.8092     3.0941 C.ar    
  15 C15           -6.7811     6.8590     3.7164 C.ar    
  16 C16           -6.0348     7.7904     4.4292 C.ar    
  17 N17           -4.7185     7.6825     4.5173 N.ar    
  18 O18           -6.6638     8.8237     5.0422 O.3     
  19 C19           -5.7610     9.8014     7.0186 C.ar    
  20 C20           -5.8965     9.7741     5.6397 C.ar    
  21 C21           -5.2370    10.7314     4.8739 C.ar    
  22 C22           -4.4666    11.6794     5.5244 C.ar    
  23 C23           -4.3775    11.6446     6.9096 C.ar    
  24 N24           -5.0179    10.7203     7.6053 N.ar    
  25 O25           -3.6240    12.5698     7.5570 O.3     
  26 C26           -3.5718    12.4818     8.9823 C.3     
  27 C27           -2.2242    13.0111     9.4769 C.3     
  28 C28           -4.7013    13.3185     9.5866 C.3     
  29 H29            0.2969    -1.7848     2.2117 H       
  30 H30           -1.3954    -1.5006     2.6845 H       
  31 H31           -0.9536    -1.5781     0.9620 H       
  32 H32           -2.2577     0.7290     1.4334 H       
  33 H33           -0.4215     2.7692     2.4300 H       
  34 H34           -0.3877     4.0130     0.2851 H       
  35 H35            0.3701     2.4123     0.1074 H       
  36 H36           -1.2811     2.6874    -0.4977 H       
  37 H37           -1.8622     4.8872     3.2260 H       
  38 H38           -2.9890     6.6392     4.0365 H       
  39 H39           -6.6881     5.0714     2.5334 H       
  40 H40           -7.8547     6.9551     3.6495 H       
  41 H41           -6.2731     9.0649     7.6200 H       
  42 H42           -5.3242    10.7341     3.7974 H       
  43 H43           -3.9409    12.4366     4.9616 H       
  44 H44           -3.6874    11.4415     9.2866 H       
  45 H45           -2.1086    14.0513     9.1726 H       
  46 H46           -2.1844    12.9440    10.5641 H       
  47 H47           -1.4196    12.4150     9.0464 H       
  48 H48           -4.5856    14.3588     9.2823 H       
  49 H49           -5.6613    12.9414     9.2343 H       
  50 H50           -4.6614    13.2514    10.6738 H       
@<TRIPOS>BOND
   1    1    2 1
   2    1    3 2
   3    1    4 am
   4    2   29 1
   5    2   30 1
   6    2   31 1
   7    4    5 1
   8    4   32 1
   9    5    6 1
  10    5   11 1
  11    5   33 1
  12    6   34 1
  13    6   35 1
  14    6   36 1
  15    7    8 1
  16    7   11 1
  17    8    9 2
  18    9   10 1
  19    9   13 1
  20   10   11 2
  21   10   37 1
  22   12   13 ar
  23   12   17 ar
  24   12   38 1
  25   13   14 ar
  26   14   15 ar
  27   14   39 1
  28   15   16 ar
  29   15   40 1
  30   16   17 ar
  31   16   18 1
  32   18   20 1
  33   19   20 ar
  34   19   24 ar
  35   19   41 1
  36   20   21 ar
  37   21   22 ar
  38   21   42 1
  39   22   23 ar
  40   22   43 1
  41   23   24 ar
  42   23   25 1
  43   25   26 1
  44   26   27 1
  45   26   28 1
  46   26   44 1
  47   27   45 1
  48   27   46 1
  49   27   47 1
  50   28   48 1
  51   28   49 1
  52   28   50 1

#	End of record

