#	Name: ASD05730147
#	Creating user name:	WinNT
#	Creation time:	15. 06. 2019 21:02

#	Modifying user name:	WinNT
#	Modification time:	15. 06. 2019 21:02

#	Program:	/corina/corina34_cracker 3.40 0067  02.08.2006

@<TRIPOS>MOLECULE
ASD05730147
  73   77    0    0    0
SMALL
NO_CHARGES


@<TRIPOS>ATOM
   1 N1            -0.0121     1.3947     0.0611 N.3     
   2 C2             0.0057    -0.0044     0.0405 C.ar    
   3 C3            -1.0323    -0.7033    -0.5618 C.ar    
   4 C4            -1.0148    -2.0837    -0.5821 C.ar    
   5 C5             0.0409    -2.7733    -0.0002 C.ar    
   6 C6             1.0786    -2.0746     0.6025 C.ar    
   7 C7             1.0642    -0.6940     0.6174 C.ar    
   8 N8             0.0586    -4.1738    -0.0208 N.pl3   
   9 C9             1.2584    -4.8475    -0.1401 C.ar    
  10 N10            1.2606    -6.1684    -0.0441 N.ar    
  11 C11            2.3946    -6.8510    -0.1535 C.ar    
  12 C12            3.5949    -6.1410    -0.3737 C.ar    
  13 C13            3.5397    -4.7422    -0.4679 C.ar    
  14 N14            2.3673    -4.1471    -0.3522 N.ar    
  15 N15            2.4062    -8.2195    -0.0550 N.am    
  16 C16            3.5593    -8.9066    -0.1658 C.2     
  17 C17            4.8219    -8.2009    -0.3945 C.2     
  18 C18            4.8200    -6.8354    -0.4956 C.2     
  19 C19            1.1516    -8.9406     0.1737 C.3     
  20 O20            3.5520   -10.1214    -0.0751 O.2     
  21 C21            6.0899    -8.9576    -0.5159 C.ar    
  22 C22            1.1754     1.9265     0.7443 C.3     
  23 C23            0.5151    -9.2959    -1.1715 C.3     
  24 C24            1.1582     3.4553     0.6758 C.3     
  25 C25            7.0056    -8.9628     0.5359 C.ar    
  26 C26            6.3702    -9.6727    -1.6809 C.ar    
  27 C27            7.5542   -10.3760    -1.7875 C.ar    
  28 C28            8.4601   -10.3724    -0.7424 C.ar    
  29 C29            8.1847    -9.6693     0.4171 C.ar    
  30 S30            9.9678   -11.2729    -0.8853 S.o     
  31 C31           11.1037   -10.0554    -1.6051 C.3     
  32 C32           12.4813   -10.6932    -1.7953 C.3     
  33 O33           13.3761    -9.7341    -2.3624 O.3     
  34 O34           10.3265   -11.5126     0.4687 O.2     
  35 C35           -1.2442     1.8966     0.6853 C.3     
  36 C36           -1.2614     3.4255     0.6168 C.3     
  37 N37           -0.0739     3.9572     1.3000 N.3     
  38 Cl38           5.2334    -9.6789    -2.9929 Cl      
  39 C39           14.6978   -10.2310    -2.5820 C.3     
  40 C40           -0.0926     5.4260     1.3216 C.3     
  41 H41           -1.8535    -0.1670    -1.0141 H       
  42 H42           -1.8221    -2.6272    -1.0502 H       
  43 H43            1.8992    -2.6109     1.0557 H       
  44 H44            1.8714    -0.1506     1.0859 H       
  45 H45           -0.7717    -4.6704     0.0487 H       
  46 H46            4.4369    -4.1650    -0.6359 H       
  47 H47            5.7408    -6.2969    -0.6644 H       
  48 H48            1.3543    -9.8543     0.7324 H       
  49 H49            0.4689    -8.3102     0.7435 H       
  50 H50            1.1677     1.6091     1.7870 H       
  51 H51            2.0746     1.5507     0.2561 H       
  52 H52            1.1978    -9.9262    -1.7413 H       
  53 H53           -0.4183    -9.8324    -1.0014 H       
  54 H54            0.3124    -8.3822    -1.7302 H       
  55 H55            2.0230     3.8529     1.2070 H       
  56 H56            1.1934     3.7731    -0.3663 H       
  57 H57            6.7923    -8.4146     1.4416 H       
  58 H58            7.7729   -10.9300    -2.6884 H       
  59 H59            8.8963    -9.6704     1.2296 H       
  60 H60           10.7192    -9.7262    -2.5705 H       
  61 H61           11.1891    -9.1986    -0.9367 H       
  62 H62           12.8657   -11.0224    -0.8299 H       
  63 H63           12.3959   -11.5500    -2.4637 H       
  64 H64           -2.1090     1.4990     0.1541 H       
  65 H65           -1.2794     1.5788     1.7274 H       
  66 H66           -1.2536     3.7429    -0.4259 H       
  67 H67           -2.1606     3.8013     1.1050 H       
  68 H68           15.1282   -10.5506    -1.6330 H       
  69 H69           14.6583   -11.0782    -3.2667 H       
  70 H70           15.3150    -9.4432    -3.0140 H       
  71 H71           -0.9825     5.7703     1.8486 H       
  72 H72            0.7973     5.7931     1.8329 H       
  73 H73           -0.1064     5.8042     0.2995 H       
@<TRIPOS>BOND
   1    1    2 1
   2    1   22 1
   3    1   35 1
   4    2    3 ar
   5    2    7 ar
   6    3    4 ar
   7    3   41 1
   8    4    5 ar
   9    4   42 1
  10    5    6 ar
  11    5    8 1
  12    6    7 ar
  13    6   43 1
  14    7   44 1
  15    8    9 1
  16    8   45 1
  17    9   10 ar
  18    9   14 ar
  19   10   11 ar
  20   11   12 ar
  21   11   15 1
  22   12   13 ar
  23   12   18 1
  24   13   14 ar
  25   13   46 1
  26   15   16 am
  27   15   19 1
  28   16   17 1
  29   16   20 2
  30   17   18 2
  31   17   21 1
  32   18   47 1
  33   19   23 1
  34   19   48 1
  35   19   49 1
  36   21   25 ar
  37   21   26 ar
  38   22   24 1
  39   22   50 1
  40   22   51 1
  41   23   52 1
  42   23   53 1
  43   23   54 1
  44   24   37 1
  45   24   55 1
  46   24   56 1
  47   25   29 ar
  48   25   57 1
  49   26   27 ar
  50   26   38 1
  51   27   28 ar
  52   27   58 1
  53   28   29 ar
  54   28   30 1
  55   29   59 1
  56   30   31 1
  57   30   34 2
  58   31   32 1
  59   31   60 1
  60   31   61 1
  61   32   33 1
  62   32   62 1
  63   32   63 1
  64   33   39 1
  65   35   36 1
  66   35   64 1
  67   35   65 1
  68   36   37 1
  69   36   66 1
  70   36   67 1
  71   37   40 1
  72   39   68 1
  73   39   69 1
  74   39   70 1
  75   40   71 1
  76   40   72 1
  77   40   73 1

#	End of record

