#	Name: ASD05740085
#	Creating user name:	WinNT
#	Creation time:	15. 06. 2019 21:02

#	Modifying user name:	WinNT
#	Modification time:	15. 06. 2019 21:02

#	Program:	/corina/corina34_cracker 3.40 0067  02.08.2006

@<TRIPOS>MOLECULE
ASD05740085
  48   51    0    0    0
SMALL
NO_CHARGES


@<TRIPOS>ATOM
   1 N1            -0.0159     1.3184     0.0093 N.ar    
   2 C2            -3.8550     0.9781     2.1498 C.2     
   3 C3            -3.6274     0.3799     3.3831 C.2     
   4 C4            -3.0883     0.6018     1.0290 C.2     
   5 C5            -2.1279    -0.3538     1.1839 C.2     
   6 C6            -1.9297    -0.9338     2.4482 C.2     
   7 O7            -2.6721    -0.5606     3.5032 O.3     
   8 C8            -1.2872    -0.7843     0.0096 C.3     
   9 C9             0.0021    -0.0041     0.0020 C.ar    
  10 C10            1.2212    -0.6637    -0.0132 C.ar    
  11 O11           -1.0718    -1.7888     2.5893 O.2     
  12 C12            1.1137     2.0111     0.0022 C.ar    
  13 N13            2.2949     1.4115    -0.0123 N.ar    
  14 C14            2.3831     0.0915    -0.0202 C.ar    
  15 N15            1.0582     3.3941     0.0097 N.am    
  16 S16            2.4054     4.2789    -0.3701 S.o2    
  17 O17            2.0194     5.6450    -0.3067 O.2     
  18 O18            3.4714     3.7361     0.3968 O.2     
  19 O19           -4.4872     0.9203     4.2612 O.3     
  20 C20           -5.2676     1.8422     3.6694 C.2     
  21 C21           -4.9394     1.9439     2.3669 C.2     
  22 O22           -6.2351     2.5635     4.2910 O.3     
  23 C23           -6.4400     2.3468     5.6130 C.2     
  24 N24           -7.3239     2.9575     6.3367 N.2     
  25 S25           -5.5744     1.2223     6.5667 S.3     
  26 C26           -6.5179     1.6806     7.9821 C.2     
  27 C27           -7.3883     2.6214     7.6120 C.2     
  28 C28           -3.3253     1.2424    -0.3144 C.3     
  29 C29           -4.4593     0.5108    -1.0353 C.3     
  30 N30            2.7650     3.9678    -1.9564 N.am    
  31 C31            1.8355     4.3772    -3.0121 C.3     
  32 H32           -1.0672    -1.8488     0.0911 H       
  33 H33           -1.8316    -0.5955    -0.9156 H       
  34 H34            1.2646    -1.7429    -0.0190 H       
  35 H35            3.3490    -0.3916    -0.0317 H       
  36 H36            0.2301     3.8450     0.2375 H       
  37 H37           -5.3865     2.5969     1.6319 H       
  38 H38           -6.4124     1.2694     8.9751 H       
  39 H39           -8.0875     3.0730     8.3001 H       
  40 H40           -3.5985     2.2883    -0.1750 H       
  41 H41           -2.4157     1.1810    -0.9117 H       
  42 H42           -5.3689     0.5722    -0.4380 H       
  43 H43           -4.6307     0.9741    -2.0069 H       
  44 H44           -4.1861    -0.5352    -1.1747 H       
  45 H45            3.5911     3.5145    -2.1866 H       
  46 H46            0.8736     3.8877    -2.8593 H       
  47 H47            1.7021     5.4586    -2.9795 H       
  48 H48            2.2391     4.0901    -3.9831 H       
@<TRIPOS>BOND
   1    1    9 ar
   2    1   12 ar
   3    2    3 2
   4    2    4 1
   5    2   21 1
   6    3   19 1
   7    3    7 1
   8    4    5 2
   9    4   28 1
  10    5    6 1
  11    5    8 1
  12    6    7 1
  13    6   11 2
  14    8    9 1
  15    8   32 1
  16    8   33 1
  17    9   10 ar
  18   10   14 ar
  19   10   34 1
  20   12   13 ar
  21   12   15 1
  22   13   14 ar
  23   14   35 1
  24   15   16 am
  25   15   36 1
  26   16   17 2
  27   16   18 2
  28   16   30 am
  29   19   20 1
  30   20   21 2
  31   20   22 1
  32   21   37 1
  33   22   23 1
  34   23   24 2
  35   23   25 1
  36   24   27 1
  37   25   26 1
  38   26   27 2
  39   26   38 1
  40   27   39 1
  41   28   29 1
  42   28   40 1
  43   28   41 1
  44   29   42 1
  45   29   43 1
  46   29   44 1
  47   30   31 1
  48   30   45 1
  49   31   46 1
  50   31   47 1
  51   31   48 1

#	End of record

