#	Name: ASD01915957
#	Creating user name:	WinNT
#	Creation time:	15. 06. 2019 20:06

#	Modifying user name:	WinNT
#	Modification time:	15. 06. 2019 20:06

#	Program:	/corina/corina34_cracker 3.40 0067  02.08.2006

@<TRIPOS>MOLECULE
ASD01915957
  39   42    0    0    0
SMALL
NO_CHARGES


@<TRIPOS>ATOM
   1 C1            -0.0018     1.4660     0.2354 C.2     
   2 C2             0.0694     0.1210    -0.0252 C.2     
   3 C3            -1.2022    -0.6652    -0.3002 C.3     
   4 C4            -2.3582    -0.0139     0.4564 C.3     
   5 N5            -2.4035     1.4321     0.2717 N.am    
   6 C6            -1.2797     2.1860     0.2806 C.2     
   7 O7            -1.3266     3.4013     0.3241 O.2     
   8 S8             1.6206     2.0713     0.4914 S.3     
   9 C9             2.2519     0.5007     0.2412 C.2     
  10 N10            1.2958    -0.3367    -0.0056 N.2     
  11 O11            4.2922     0.2864    -0.9998 O.3     
  12 C12            5.6152     0.0003    -1.1219 C.ar    
  13 C13            6.2407     0.1182    -2.3546 C.ar    
  14 C14            6.3437    -0.4047    -0.0129 C.ar    
  15 C15            7.6885    -0.6944    -0.1395 C.ar    
  16 C16            8.3085    -0.5807    -1.3701 C.ar    
  17 C17            7.5857    -0.1727    -2.4759 C.ar    
  18 C18            3.7146     0.1428     0.2994 C.3     
  19 C19           -3.6406     2.0559     0.0805 C.ar    
  20 C20           -3.9524     2.6461    -1.1412 C.ar    
  21 C21           -5.1922     3.2526    -1.2823 C.ar    
  22 C22           -6.0708     3.2506    -0.2119 C.ar    
  23 N23           -5.7428     2.6823     0.9320 N.ar    
  24 C24           -4.5782     2.0904     1.1050 C.ar    
  25 F25           -5.5380     3.8385    -2.4495 F       
  26 H26           -1.4138    -0.6551    -1.3694 H       
  27 H27           -1.0766    -1.6933     0.0394 H       
  28 H28           -3.2962    -0.4437     0.1047 H       
  29 H29           -2.2503    -0.2304     1.5192 H       
  30 H30            5.6765     0.4369    -3.2186 H       
  31 H31            5.8600    -0.4929     0.9487 H       
  32 H32            8.2561    -1.0097     0.7235 H       
  33 H33            9.3600    -0.8074    -1.4670 H       
  34 H34            8.0721    -0.0850    -3.4362 H       
  35 H35            4.2235     0.8063     0.9986 H       
  36 H36            3.8232    -0.8891     0.6332 H       
  37 H37           -3.2466     2.6325    -1.9586 H       
  38 H38           -7.0375     3.7210    -0.3152 H       
  39 H39           -4.3462     1.6360     2.0569 H       
@<TRIPOS>BOND
   1    1    2 2
   2    1    8 1
   3    1    6 1
   4    2    3 1
   5    2   10 1
   6    3    4 1
   7    3   26 1
   8    3   27 1
   9    4    5 1
  10    4   28 1
  11    4   29 1
  12    5    6 am
  13    5   19 1
  14    6    7 2
  15    8    9 1
  16    9   10 2
  17    9   18 1
  18   11   12 1
  19   11   18 1
  20   12   13 ar
  21   12   14 ar
  22   13   17 ar
  23   13   30 1
  24   14   15 ar
  25   14   31 1
  26   15   16 ar
  27   15   32 1
  28   16   17 ar
  29   16   33 1
  30   17   34 1
  31   18   35 1
  32   18   36 1
  33   19   20 ar
  34   19   24 ar
  35   20   21 ar
  36   20   37 1
  37   21   22 ar
  38   21   25 1
  39   22   23 ar
  40   22   38 1
  41   23   24 ar
  42   24   39 1

#	End of record

