#	Name: ASD01208441
#	Creating user name:	WinNT
#	Creation time:	15. 06. 2019 19:09

#	Modifying user name:	WinNT
#	Modification time:	15. 06. 2019 19:09

#	Program:	/corina/corina34_cracker 3.40 0067  02.08.2006

@<TRIPOS>MOLECULE
ASD01208441
  36   37    0    0    0
SMALL
NO_CHARGES


@<TRIPOS>ATOM
   1 N1            -0.0165     1.3646     0.0095 N.am    
   2 C2             0.0021    -0.0041     0.0020 C.2     
   3 C3             1.2886    -0.4137    -0.0125 C.2     
   4 C4             2.1054     0.7301    -0.0141 C.2     
   5 C5             1.2865     1.8177    -0.0005 C.2     
   6 C6            -1.1202     2.1380     0.0192 C.2     
   7 O7            -1.6119     2.4811     1.0751 O.2     
   8 O8            -1.6772     2.5301    -1.1412 O.3     
   9 C9             1.7162     3.2299     0.0026 C.ar    
  10 C10            0.7638     4.2536     0.0167 C.ar    
  11 N11            3.0126     3.5344    -0.0026 N.ar    
  12 N12            1.1545     5.5132     0.0193 N.ar    
  13 C13            2.4441     5.8084     0.0086 C.ar    
  14 C14            3.3909     4.7997     0.0001 C.ar    
  15 C15            2.8837     7.2499     0.0111 C.3     
  16 Br16          -1.5168    -1.1304     0.0110 Br      
  17 C17           -2.8642     3.3619    -1.0548 C.3     
  18 C18           -2.5295     4.6517    -0.3030 C.3     
  19 C19           -3.3504     3.7046    -2.4644 C.3     
  20 C20           -3.9634     2.6057    -0.3060 C.3     
  21 H21            1.6295    -1.4385    -0.0209 H       
  22 H22            3.1853     0.7437    -0.0237 H       
  23 H23           -0.2891     4.0134     0.0251 H       
  24 H24            4.4421     5.0475    -0.0037 H       
  25 H25            2.9993     7.5927     1.0394 H       
  26 H26            3.8361     7.3402    -0.5112 H       
  27 H27            2.1337     7.8594    -0.4929 H       
  28 H28           -1.7464     5.1904    -0.8365 H       
  29 H29           -3.4205     5.2761    -0.2382 H       
  30 H30           -2.1831     4.4075     0.7012 H       
  31 H31           -3.5889     2.7857    -3.0000 H       
  32 H32           -4.2415     4.3291    -2.3996 H       
  33 H33           -2.5673     4.2434    -2.9979 H       
  34 H34           -3.6170     2.3615     0.6982 H       
  35 H35           -4.8545     3.2301    -0.2411 H       
  36 H36           -4.2019     1.6868    -0.8416 H       
@<TRIPOS>BOND
   1    1    2 1
   2    1    5 1
   3    1    6 am
   4    2    3 2
   5    2   16 1
   6    3    4 1
   7    3   21 1
   8    4    5 2
   9    4   22 1
  10    5    9 1
  11    6    7 2
  12    6    8 1
  13    8   17 1
  14    9   10 ar
  15    9   11 ar
  16   10   12 ar
  17   10   23 1
  18   11   14 ar
  19   12   13 ar
  20   13   14 ar
  21   13   15 1
  22   14   24 1
  23   15   25 1
  24   15   26 1
  25   15   27 1
  26   17   18 1
  27   17   20 1
  28   17   19 1
  29   18   28 1
  30   18   29 1
  31   18   30 1
  32   19   31 1
  33   19   32 1
  34   19   33 1
  35   20   34 1
  36   20   35 1
  37   20   36 1

#	End of record

