#	Name: ASD01708054
#	Creating user name:	WinNT
#	Creation time:	15. 06. 2019 19:22

#	Modifying user name:	WinNT
#	Modification time:	15. 06. 2019 19:22

#	Program:	/corina/corina34_cracker 3.40 0067  02.08.2006

@<TRIPOS>MOLECULE
ASD01708054
  73   77    0    0    0
SMALL
NO_CHARGES


@<TRIPOS>ATOM
   1 C1            -1.2438     1.8811     0.7508 C.2     
   2 N2            -1.2006     0.5388     0.6372 N.am    
   3 O3            -0.2182     2.5304     0.6810 O.2     
   4 C4            -2.3980    -0.2832     0.8413 C.3     
   5 C5            -2.0539    -1.4802     1.6928 C.ar    
   6 C6            -0.7521    -1.8265     1.9841 C.ar    
   7 C7            -3.1053    -2.2432     2.1868 C.ar    
   8 C8            -2.8647    -3.3546     2.9649 C.ar    
   9 C9            -1.5474    -3.7179     3.2588 C.ar    
  10 C10           -0.4967    -2.9470     2.7635 C.ar    
  11 Cl11           1.1424    -3.3915     3.1229 Cl      
  12 Cl12          -4.1884    -4.2967     3.5764 Cl      
  13 C13           -1.2708    -4.9085     4.0878 C.2     
  14 N14           -1.1765    -4.7901     5.4270 N.am    
  15 O15           -1.1282    -5.9954     3.5621 O.2     
  16 C16           -0.9022    -5.9711     6.2493 C.3     
  17 C17           -2.1946    -6.6862     6.5483 C.2     
  18 O18           -3.2377    -6.2537     6.1187 O.2     
  19 O19           -2.1868    -7.8036     7.2920 O.3     
  20 C20           -2.5369     2.5633     0.9539 C.ar    
  21 C21           -0.2438    -5.5377     7.5606 C.3     
  22 C22           -2.6008     3.7114     1.7543 C.ar    
  23 N23            0.9494    -4.7399     7.2677 N.pl3   
  24 C24            1.7050    -4.2403     8.2902 C.2     
  25 C25            0.4329    -1.0345     1.4968 C.3     
  26 C26            0.0492    -0.1613     0.2969 C.3     
  27 N27            1.3062    -4.3907     9.5411 N.2     
  28 N28            2.8729    -3.5854     8.0197 N.pl3   
  29 C29            3.2594    -2.3953     8.7897 C.3     
  30 C30            2.0434    -3.8743    10.5540 C.1     
  31 N31            2.6615    -3.4414    11.4031 N.1     
  32 C32           -3.7905     4.3489     1.9482 C.ar    
  33 C33           -4.9505     3.8565     1.3465 C.ar    
  34 C34           -4.8996     2.7044     0.5399 C.ar    
  35 C35           -3.6869     2.0651     0.3437 C.ar    
  36 C36           -6.3547     4.2767     1.3396 C.2     
  37 C37           -7.0070     3.3920     0.5699 C.2     
  38 O38           -6.1526     2.4681     0.0998 O.3     
  39 C39            3.7693    -4.0613     6.9573 C.3     
  40 C40            4.0573    -2.9014     5.9988 C.3     
  41 C41            4.6003    -1.7113     6.7932 C.3     
  42 C42            3.5521    -1.2507     7.8145 C.3     
  43 C43            5.0945    -3.3402     4.9633 C.3     
  44 H44           -3.1638     0.3096     1.3415 H       
  45 H45           -2.7748    -0.6211    -0.1240 H       
  46 H46           -4.1227    -1.9616     1.9584 H       
  47 H47           -1.2903    -3.9229     5.8464 H       
  48 H48           -0.2323    -6.6413     5.7105 H       
  49 H49           -3.0403    -8.2271     7.4571 H       
  50 H50           -0.9473    -4.9400     8.1402 H       
  51 H51            0.0409    -6.4204     8.1333 H       
  52 H52           -1.7041     4.0930     2.2200 H       
  53 H53            1.2030    -4.5664     6.3476 H       
  54 H54            0.7953    -0.3983     2.3042 H       
  55 H55            1.2254    -1.7214     1.1996 H       
  56 H56           -0.1007    -0.7879    -0.5823 H       
  57 H57            0.8378     0.5657     0.1026 H       
  58 H58            2.4443    -2.1095     9.4545 H       
  59 H59            4.1523    -2.6133     9.3757 H       
  60 H60           -3.8356     5.2333     2.5665 H       
  61 H61           -3.6336     1.1803    -0.2732 H       
  62 H62           -6.7793     5.1276     1.8516 H       
  63 H63           -8.0659     3.4187     0.3590 H       
  64 H64            4.7029    -4.4124     7.3969 H       
  65 H65            3.2907    -4.8751     6.4126 H       
  66 H66            3.1369    -2.6111     5.4922 H       
  67 H67            5.5071    -2.0094     7.3194 H       
  68 H68            4.8292    -0.8931     6.1104 H       
  69 H69            2.6340    -0.9760     7.2950 H       
  70 H70            3.9323    -0.3886     8.3625 H       
  71 H71            4.7085    -4.1896     4.3997 H       
  72 H72            5.2991    -2.5147     4.2816 H       
  73 H73            6.0150    -3.6290     5.4708 H       
@<TRIPOS>BOND
   1    1    2 am
   2    1    3 2
   3    1   20 1
   4    2    4 1
   5    2   26 1
   6    4    5 1
   7    4   44 1
   8    4   45 1
   9    5    6 ar
  10    5    7 ar
  11    6   25 1
  12    6   10 ar
  13    7    8 ar
  14    7   46 1
  15    8    9 ar
  16    8   12 1
  17    9   10 ar
  18    9   13 1
  19   10   11 1
  20   13   14 am
  21   13   15 2
  22   14   16 1
  23   14   47 1
  24   16   17 1
  25   16   21 1
  26   16   48 1
  27   17   18 2
  28   17   19 1
  29   19   49 1
  30   20   22 ar
  31   20   35 ar
  32   21   23 1
  33   21   50 1
  34   21   51 1
  35   22   32 ar
  36   22   52 1
  37   23   24 1
  38   23   53 1
  39   24   27 2
  40   24   28 1
  41   25   26 1
  42   25   54 1
  43   25   55 1
  44   26   56 1
  45   26   57 1
  46   27   30 1
  47   28   29 1
  48   28   39 1
  49   29   42 1
  50   29   58 1
  51   29   59 1
  52   30   31 3
  53   32   33 ar
  54   32   60 1
  55   33   34 ar
  56   33   36 1
  57   34   35 ar
  58   34   38 1
  59   35   61 1
  60   36   37 2
  61   36   62 1
  62   37   38 1
  63   37   63 1
  64   39   40 1
  65   39   64 1
  66   39   65 1
  67   40   41 1
  68   40   43 1
  69   40   66 1
  70   41   42 1
  71   41   67 1
  72   41   68 1
  73   42   69 1
  74   42   70 1
  75   43   71 1
  76   43   72 1
  77   43   73 1

#	End of record

