#	Name: ASD04882057
#	Creating user name:	WinNT
#	Creation time:	15. 06. 2019 20:54

#	Modifying user name:	WinNT
#	Modification time:	15. 06. 2019 20:54

#	Program:	/corina/corina34_cracker 3.40 0067  02.08.2006

@<TRIPOS>MOLECULE
ASD04882057
  79   84    0    0    0
SMALL
NO_CHARGES


@<TRIPOS>ATOM
   1 N1             0.0322     1.5203     0.4233 N.am    
   2 C2             0.1153     0.1362     0.2232 C.ar    
   3 C3            -1.0471    -0.6117     0.0165 C.ar    
   4 C4            -0.9661    -1.9853    -0.1816 C.ar    
   5 C5             0.2592    -2.6139    -0.1756 C.ar    
   6 C6             1.4257    -1.8720     0.0305 C.ar    
   7 C7             1.3475    -0.4900     0.2244 C.ar    
   8 N8            -2.2882     0.0198     0.0096 N.3     
   9 C9            -2.6154     0.5526     1.3395 C.3     
  10 C10           -3.3400    -0.8912    -0.4630 C.3     
  11 C11           -4.6706    -0.1380    -0.5314 C.3     
  12 N12           -4.9979     0.3948     0.7985 N.3     
  13 C13           -3.9460     1.3058     1.2712 C.3     
  14 C14           -6.2427     1.0282     0.7916 C.ar    
  15 C15           -6.4657     2.1156    -0.0432 C.ar    
  16 C16           -7.6981     2.7394    -0.0480 C.ar    
  17 C17           -8.7089     2.2828     0.7775 C.ar    
  18 C18           -8.4903     1.2002     1.6100 C.ar    
  19 C19           -7.2625     0.5684     1.6155 C.ar    
  20 C20            0.9140     2.1382     1.2338 C.2     
  21 O21            1.7233     1.4834     1.8645 O.2     
  22 C22            0.8985     3.5993     1.3560 C.2     
  23 O23            0.0583     4.4394     0.7168 O.3     
  24 C24            1.7280     4.3478     2.1412 C.2     
  25 C25            1.3624     5.6895     1.9502 C.2     
  26 C26            0.3364     5.7009     1.0710 C.2     
  27 C27            2.7381    -2.5458     0.0375 C.2     
  28 N28            2.8653    -3.7678     0.5916 N.am    
  29 O29            3.7051    -1.9986    -0.4566 O.2     
  30 C30            1.7030    -4.4926     1.1162 C.3     
  31 C31           -7.0253    -0.6114     2.5227 C.3     
  32 C32            4.1757    -4.4320     0.6893 C.3     
  33 C33            4.5135    -4.5874     2.1712 C.3     
  34 C34            3.3408    -5.1469     2.9330 C.ar    
  35 C35            2.0439    -5.0988     2.4547 C.ar    
  36 C36            3.5975    -5.7336     4.1671 C.ar    
  37 C37            2.5681    -6.2609     4.9237 C.ar    
  38 C38            1.2619    -6.2024     4.4460 C.ar    
  39 C39            1.0049    -5.6224     3.2131 C.ar    
  40 O40            0.2401    -6.7147     5.1827 O.3     
  41 C41           -1.0728    -6.6178     4.6267 C.3     
  42 O42            2.8300    -6.8344     6.1286 O.3     
  43 C43            4.1944    -6.8583     6.5529 C.3     
  44 H44           -0.6576     2.0345    -0.0247 H       
  45 H45           -1.8661    -2.5608    -0.3404 H       
  46 H46            0.3188    -3.6812    -0.3298 H       
  47 H47            2.2471     0.0860     0.3835 H       
  48 H48           -2.6991    -0.2696     2.0502 H       
  49 H49           -1.8281     1.2339     1.6621 H       
  50 H50           -3.0810    -1.2625    -1.4545 H       
  51 H51           -3.4319    -1.7298     0.2272 H       
  52 H52           -4.5870     0.6842    -1.2420 H       
  53 H53           -5.4580    -0.8193    -0.8540 H       
  54 H54           -4.2051     1.6771     2.2627 H       
  55 H55           -3.8542     2.1444     0.5810 H       
  56 H56           -5.6763     2.4732    -0.6877 H       
  57 H57           -7.8721     3.5850    -0.6969 H       
  58 H58           -9.6714     2.7728     0.7723 H       
  59 H59           -9.2819     0.8463     2.2538 H       
  60 H60            2.5130     3.9789     2.7847 H       
  61 H61            1.8143     6.5507     2.4199 H       
  62 H62           -0.1749     6.5820     0.7124 H       
  63 H63            0.8675    -3.8023     1.2329 H       
  64 H64            1.4245    -5.2837     0.4201 H       
  65 H65           -7.2913    -1.5304     2.0005 H       
  66 H66           -5.9733    -0.6460     2.8062 H       
  67 H67           -7.6396    -0.5110     3.4175 H       
  68 H68            4.1280    -5.4132     0.2170 H       
  69 H69            4.9355    -3.8228     0.1997 H       
  70 H70            5.3637    -5.2613     2.2762 H       
  71 H71            4.7765    -3.6130     2.5829 H       
  72 H72            4.6109    -5.7781     4.5378 H       
  73 H73           -0.0090    -5.5767     2.8438 H       
  74 H74           -1.3235    -5.5690     4.4676 H       
  75 H75           -1.1041    -7.1473     3.6745 H       
  76 H76           -1.7922    -7.0631     5.3139 H       
  77 H77            4.7905    -7.4133     5.8286 H       
  78 H78            4.5699    -5.8376     6.6265 H       
  79 H79            4.2635    -7.3420     7.5272 H       
@<TRIPOS>BOND
   1    1    2 1
   2    1   20 am
   3    1   44 1
   4    2    3 ar
   5    2    7 ar
   6    3    4 ar
   7    3    8 1
   8    4    5 ar
   9    4   45 1
  10    5    6 ar
  11    5   46 1
  12    6    7 ar
  13    6   27 1
  14    7   47 1
  15    8    9 1
  16    8   10 1
  17    9   13 1
  18    9   48 1
  19    9   49 1
  20   10   11 1
  21   10   50 1
  22   10   51 1
  23   11   12 1
  24   11   52 1
  25   11   53 1
  26   12   13 1
  27   12   14 1
  28   13   54 1
  29   13   55 1
  30   14   15 ar
  31   14   19 ar
  32   15   16 ar
  33   15   56 1
  34   16   17 ar
  35   16   57 1
  36   17   18 ar
  37   17   58 1
  38   18   19 ar
  39   18   59 1
  40   19   31 1
  41   20   21 2
  42   20   22 1
  43   22   23 1
  44   22   24 2
  45   23   26 1
  46   24   25 1
  47   24   60 1
  48   25   26 2
  49   25   61 1
  50   26   62 1
  51   27   28 am
  52   27   29 2
  53   28   30 1
  54   28   32 1
  55   30   35 1
  56   30   63 1
  57   30   64 1
  58   31   65 1
  59   31   66 1
  60   31   67 1
  61   32   33 1
  62   32   68 1
  63   32   69 1
  64   33   34 1
  65   33   70 1
  66   33   71 1
  67   34   35 ar
  68   34   36 ar
  69   35   39 ar
  70   36   37 ar
  71   36   72 1
  72   37   38 ar
  73   37   42 1
  74   38   39 ar
  75   38   40 1
  76   39   73 1
  77   40   41 1
  78   41   74 1
  79   41   75 1
  80   41   76 1
  81   42   43 1
  82   43   77 1
  83   43   78 1
  84   43   79 1

#	End of record

