#	Name: ASD04880064
#	Creating user name:	WinNT
#	Creation time:	15. 06. 2019 20:52

#	Modifying user name:	WinNT
#	Modification time:	15. 06. 2019 20:52

#	Program:	/corina/corina34_cracker 3.40 0067  02.08.2006

@<TRIPOS>MOLECULE
ASD04880064
  46   48    0    0    0
SMALL
NO_CHARGES


@<TRIPOS>ATOM
   1 C1            -0.0144     1.2121     0.0087 C.2     
   2 O2             0.0563    -0.0019    -0.0145 O.2     
   3 C3             1.2177     2.0236    -0.0196 C.ar    
   4 C4             2.4672     1.4035     0.0724 C.ar    
   5 C5             3.6173     2.1675     0.0455 C.ar    
   6 C6             3.5305     3.5541    -0.0732 C.ar    
   7 C7             2.2899     4.1697    -0.1646 C.ar    
   8 C8             1.1383     3.4126    -0.1442 C.ar    
   9 O9             4.8344     1.5675     0.1353 O.3     
  10 C10            4.8486     0.1436     0.2553 C.3     
  11 O11            4.6624     4.3040    -0.0991 O.3     
  12 N12           -1.2183     1.8162     0.0546 N.am    
  13 N13           -1.4330     3.1855     0.1972 N.2     
  14 C14           -2.6761     3.5244     0.2143 C.2     
  15 C15           -3.5380     2.2906     0.0697 C.3     
  16 C16           -2.5206     1.1381    -0.0439 C.3     
  17 C17           -3.1803     4.9026     0.3541 C.ar    
  18 C18           -2.2835     5.9671     0.4814 C.ar    
  19 C19           -2.7615     7.2571     0.6117 C.ar    
  20 C20           -4.1348     7.4944     0.6164 C.ar    
  21 C21           -5.0250     6.4384     0.4906 C.ar    
  22 C22           -4.5553     5.1486     0.3538 C.ar    
  23 O23           -4.6029     8.7641     0.7452 O.3     
  24 C24           -6.0216     8.9359     0.7422 C.3     
  25 O25           -1.8918     8.2952     0.7358 O.3     
  26 C26           -0.4983     7.9790     0.7235 C.3     
  27 H27            2.5329     0.3295     0.1647 H       
  28 H28            2.2269     5.2439    -0.2565 H       
  29 H29            0.1743     3.8937    -0.2203 H       
  30 H30            5.8792    -0.2056     0.3180 H       
  31 H31            4.3099    -0.1505     1.1561 H       
  32 H32            4.3673    -0.2993    -0.6167 H       
  33 H33            5.0189     4.4477    -0.9865 H       
  34 H34           -4.1712     2.1615     0.9475 H       
  35 H35           -4.1439     2.3512    -0.8343 H       
  36 H36           -2.6175     0.6315    -1.0042 H       
  37 H37           -2.6491     0.4332     0.7775 H       
  38 H38           -1.2195     5.7819     0.4784 H       
  39 H39           -6.0884     6.6267     0.4954 H       
  40 H40           -5.2506     4.3287     0.2512 H       
  41 H41           -6.2597     9.9939     0.8517 H       
  42 H42           -6.4302     8.5670    -0.1986 H       
  43 H43           -6.4569     8.3777     1.5711 H       
  44 H44            0.0831     8.8949     0.8301 H       
  45 H45           -0.2710     7.3061     1.5503 H       
  46 H46           -0.2439     7.4949    -0.2194 H       
@<TRIPOS>BOND
   1    1    2 2
   2    1    3 1
   3    1   12 am
   4    3    4 ar
   5    3    8 ar
   6    4    5 ar
   7    4   27 1
   8    5    6 ar
   9    5    9 1
  10    6    7 ar
  11    6   11 1
  12    7    8 ar
  13    7   28 1
  14    8   29 1
  15    9   10 1
  16   10   30 1
  17   10   31 1
  18   10   32 1
  19   11   33 1
  20   12   13 1
  21   12   16 1
  22   13   14 2
  23   14   15 1
  24   14   17 1
  25   15   16 1
  26   15   34 1
  27   15   35 1
  28   16   36 1
  29   16   37 1
  30   17   18 ar
  31   17   22 ar
  32   18   19 ar
  33   18   38 1
  34   19   20 ar
  35   19   25 1
  36   20   21 ar
  37   20   23 1
  38   21   22 ar
  39   21   39 1
  40   22   40 1
  41   23   24 1
  42   24   41 1
  43   24   42 1
  44   24   43 1
  45   25   26 1
  46   26   44 1
  47   26   45 1
  48   26   46 1

#	End of record

