#	Name: ASD02030763
#	Creating user name:	WinNT
#	Creation time:	15. 06. 2019 20:16

#	Modifying user name:	WinNT
#	Modification time:	15. 06. 2019 20:16

#	Program:	/corina/corina34_cracker 3.40 0067  02.08.2006

@<TRIPOS>MOLECULE
ASD02030763
  45   47    0    0    0
SMALL
NO_CHARGES


@<TRIPOS>ATOM
   1 C1            -0.0633     1.4929    -0.0256 C.3     
   2 C2            -0.0294    -0.0137    -0.0239 C.2     
   3 C3            -0.7005    -0.7214    -0.9825 C.2     
   4 C4             0.9382    -4.5646     1.2098 C.2     
   5 C5            -0.6548    -2.1175    -0.9610 C.2     
   6 C6             0.1972    -4.1231     0.1789 C.2     
   7 C7             0.6980    -1.9869     0.9322 C.2     
   8 N8            -0.7523     1.9673     1.1771 N.pl3   
   9 C9             0.4784     3.6861     2.4070 C.3     
  10 C10            0.0083     2.2301     2.4013 C.3     
  11 O11           -1.2484    -2.7632    -1.8102 O.2     
  12 N12            0.0567    -2.7570     0.0133 N.am    
  13 S13            1.5136    -3.1070     2.0364 S.3     
  14 N14            0.6570    -0.6685     0.9054 N.2     
  15 C15            1.2250    -5.9970     1.5801 C.3     
  16 C16           -0.4441    -5.0637    -0.7449 C.2     
  17 O17            0.1135    -5.3749    -1.7809 O.2     
  18 N18           -1.6513    -5.5837    -0.4468 N.am    
  19 C19           -2.3424    -6.4348    -1.4185 C.3     
  20 C20           -2.1357     2.1691     1.1566 C.ar    
  21 C21           -2.7898     2.6188     2.2962 C.ar    
  22 C22           -4.1564     2.8179     2.2735 C.ar    
  23 C23           -4.8742     2.5697     1.1157 C.ar    
  24 C24           -4.2241     2.1213    -0.0216 C.ar    
  25 C25           -2.8569     1.9258    -0.0051 C.ar    
  26 F26           -6.2109     2.7647     1.0959 F       
  27 H27            0.9558     1.8793    -0.0368 H       
  28 H28           -0.5945     1.8433    -0.9106 H       
  29 H29           -1.2606    -0.2059    -1.7486 H       
  30 H30            1.1129     3.8664     1.5393 H       
  31 H31           -0.3872     4.3475     2.3679 H       
  32 H32            1.0442     3.8816     3.3178 H       
  33 H33           -0.6263     2.0498     3.2690 H       
  34 H34            0.8738     1.5687     2.4404 H       
  35 H35            2.0774    -6.3574     1.0043 H       
  36 H36            1.4532    -6.0585     2.6442 H       
  37 H37            0.3519    -6.6111     1.3597 H       
  38 H38           -2.0625    -5.3945     0.4111 H       
  39 H39           -1.7273    -7.3070    -1.6398 H       
  40 H40           -3.2967    -6.7590    -1.0036 H       
  41 H41           -2.5174    -5.8715    -2.3352 H       
  42 H42           -2.2304     2.8122     3.1995 H       
  43 H43           -4.6656     3.1673     3.1596 H       
  44 H44           -4.7859     1.9279    -0.9235 H       
  45 H45           -2.3502     1.5761    -0.8924 H       
@<TRIPOS>BOND
   1    1    2 1
   2    1   27 1
   3    1   28 1
   4    1    8 1
   5    2    3 2
   6    2   14 1
   7    3    5 1
   8    3   29 1
   9    4   15 1
  10    4    6 2
  11    4   13 1
  12    5   11 2
  13    5   12 am
  14    6   16 1
  15    6   12 1
  16    7   12 1
  17    7   13 1
  18    7   14 2
  19    8   10 1
  20    8   20 1
  21    9   30 1
  22    9   31 1
  23    9   32 1
  24    9   10 1
  25   10   33 1
  26   10   34 1
  27   15   35 1
  28   15   36 1
  29   15   37 1
  30   16   17 2
  31   16   18 am
  32   18   19 1
  33   18   38 1
  34   19   39 1
  35   19   40 1
  36   19   41 1
  37   20   21 ar
  38   20   25 ar
  39   21   42 1
  40   21   22 ar
  41   22   43 1
  42   22   23 ar
  43   23   24 ar
  44   23   26 1
  45   24   25 ar
  46   24   44 1
  47   25   45 1

#	End of record

