#	Name: ASD01910985
#	Creating user name:	WinNT
#	Creation time:	15. 06. 2019 19:56

#	Modifying user name:	WinNT
#	Modification time:	15. 06. 2019 19:56

#	Program:	/corina/corina34_cracker 3.40 0067  02.08.2006

@<TRIPOS>MOLECULE
ASD01910985
  54   58    0    0    0
SMALL
NO_CHARGES


@<TRIPOS>ATOM
   1 N1             0.1370     1.3769    -0.1916 N.3     
   2 C2             0.0779    -0.0891    -0.1176 C.3     
   3 C3            -1.3678    -0.5263     0.1414 C.3     
   4 N4            -2.2302     0.0799    -0.8843 N.am    
   5 C5            -2.1273     1.5294    -1.1120 C.3     
   6 C6            -0.6517     1.8856    -1.3217 C.3     
   7 C7            -3.0915    -0.6728    -1.5969 C.2     
   8 C8            -4.0365    -0.0282    -2.5339 C.ar    
   9 C9            -4.3110    -0.6204    -3.7687 C.ar    
  10 C10           -5.1929    -0.0201    -4.6460 C.ar    
  11 C11           -5.8093     1.1682    -4.3101 C.ar    
  12 C12           -5.5440     1.7726    -3.0772 C.ar    
  13 C13           -4.6591     1.1680    -2.1845 C.ar    
  14 C14           -6.1833     3.0061    -2.7298 C.1     
  15 O15           -3.0915    -1.8816    -1.4694 O.2     
  16 C16           -6.7075     4.0172    -2.4451 C.1     
  17 C17           -7.3468     5.2506    -2.0978 C.ar    
  18 N18           -7.0898     5.8196    -0.9239 N.ar    
  19 C19           -7.6573     6.9538    -0.5683 C.ar    
  20 C20           -8.5469     7.5978    -1.4088 C.ar    
  21 C21           -8.8445     7.0392    -2.6447 C.ar    
  22 C22           -8.2319     5.8507    -2.9975 C.ar    
  23 C23            1.4506     1.8187    -0.2630 C.2     
  24 C24           -6.7697     1.8159    -5.2740 C.3     
  25 N25            2.5191     1.0710    -0.2673 N.2     
  26 O26            3.6697     1.8876    -0.3506 O.3     
  27 C27            3.2990     3.1834    -0.3994 C.ar    
  28 C28            1.8970     3.2172    -0.3542 C.ar    
  29 C29            4.0084     4.3757    -0.4842 C.ar    
  30 C30            3.3304     5.5752    -0.5166 C.ar    
  31 C31            1.9443     5.6039    -0.4649 C.ar    
  32 C32            1.2290     4.4415    -0.3893 C.ar    
  33 H33            0.4234    -0.5150    -1.0595 H       
  34 H34            0.7146    -0.4382     0.6953 H       
  35 H35           -1.4378    -1.6125     0.0834 H       
  36 H36           -1.6810    -0.1886     1.1294 H       
  37 H37           -2.6994     1.8022    -1.9987 H       
  38 H38           -2.5135     2.0646    -0.2446 H       
  39 H39           -0.5440     2.9686    -1.3821 H       
  40 H40           -0.2960     1.4322    -2.2469 H       
  41 H41           -3.8321    -1.5501    -4.0384 H       
  42 H42           -5.4009    -0.4826    -5.5995 H       
  43 H43           -4.4502     1.6300    -1.2309 H       
  44 H44           -7.4250     7.3867     0.3935 H       
  45 H45           -9.0064     8.5272    -1.1063 H       
  46 H46           -9.5362     7.5244    -3.3174 H       
  47 H47           -8.4403     5.3889    -3.9513 H       
  48 H48           -7.7784     1.4494    -5.0834 H       
  49 H49           -6.7447     2.8974    -5.1402 H       
  50 H50           -6.4806     1.5695    -6.2957 H       
  51 H51            5.0876     4.3622    -0.5242 H       
  52 H52            3.8830     6.5008    -0.5825 H       
  53 H53            1.4264     6.5513    -0.4908 H       
  54 H54            0.1502     4.4711    -0.3493 H       
@<TRIPOS>BOND
   1    1    2 1
   2    1   23 1
   3    1    6 1
   4    2    3 1
   5    2   33 1
   6    2   34 1
   7    3    4 1
   8    3   35 1
   9    3   36 1
  10    4    5 1
  11    4    7 am
  12    5    6 1
  13    5   37 1
  14    5   38 1
  15    6   39 1
  16    6   40 1
  17    7    8 1
  18    7   15 2
  19    8    9 ar
  20    8   13 ar
  21    9   10 ar
  22    9   41 1
  23   10   11 ar
  24   10   42 1
  25   11   12 ar
  26   11   24 1
  27   12   13 ar
  28   12   14 1
  29   13   43 1
  30   14   16 3
  31   16   17 1
  32   17   18 ar
  33   17   22 ar
  34   18   19 ar
  35   19   20 ar
  36   19   44 1
  37   20   21 ar
  38   20   45 1
  39   21   22 ar
  40   21   46 1
  41   22   47 1
  42   23   25 2
  43   23   28 1
  44   24   48 1
  45   24   49 1
  46   24   50 1
  47   25   26 1
  48   26   27 1
  49   27   28 ar
  50   27   29 ar
  51   28   32 ar
  52   29   30 ar
  53   29   51 1
  54   30   31 ar
  55   30   52 1
  56   31   32 ar
  57   31   53 1
  58   32   54 1

#	End of record

