#	Name: ASD03740021
#	Creating user name:	WinNT
#	Creation time:	15. 06. 2019 20:46

#	Modifying user name:	WinNT
#	Modification time:	15. 06. 2019 20:46

#	Program:	/corina/corina34_cracker 3.40 0067  02.08.2006

@<TRIPOS>MOLECULE
ASD03740021
  44   46    0    0    0
SMALL
NO_CHARGES


@<TRIPOS>ATOM
   1 C1             1.2974     2.1835     0.6610 C.ar    
   2 C2             1.2703     0.8059     0.7755 C.ar    
   3 C3             0.0820     0.1579     1.0519 C.ar    
   4 C4            -1.0848     0.8906     1.2145 C.ar    
   5 C5            -1.0549     2.2728     1.0991 C.ar    
   6 C6             0.1370     2.9165     0.8283 C.ar    
   7 S7             2.8147     3.0071     0.3085 S.o2    
   8 N8             2.9435     3.1132    -1.3391 N.am    
   9 O9             2.6695     4.3375     0.7861 O.2     
  10 O10            3.8528     2.1364     0.7369 O.2     
  11 C11            2.4858     4.1315    -2.1125 C.2     
  12 C12            2.7910     3.8344    -3.4053 C.2     
  13 C13            3.4535     2.5992    -3.4166 C.2     
  14 N14            3.5492     2.1715    -2.1807 N.2     
  15 N15            1.8245     5.2713    -1.6646 N.pl3   
  16 O16            3.9214     1.9567    -4.5198 O.3     
  17 C17            4.5334     0.7726    -4.3245 C.2     
  18 C18            5.0668     0.0179    -5.4768 C.ar    
  19 O19            4.6465     0.3254    -3.2006 O.2     
  20 O20           -2.2551     0.2553     1.4860 O.3     
  21 C21            5.0525     0.5839    -6.7530 C.ar    
  22 C22            5.5528    -0.1263    -7.8248 C.ar    
  23 C23            6.0678    -1.3966    -7.6371 C.ar    
  24 C24            6.0847    -1.9638    -6.3749 C.ar    
  25 C25            5.5931    -1.2626    -5.2937 C.ar    
  26 C26            5.6128    -1.8817    -3.9199 C.3     
  27 C27           -3.4165     1.0734     1.6409 C.3     
  28 H28            2.1788     0.2359     0.6485 H       
  29 H29            0.0612    -0.9183     1.1409 H       
  30 H30           -1.9619     2.8454     1.2254 H       
  31 H31            0.1608     3.9925     0.7384 H       
  32 H32            2.5633     4.4421    -4.2686 H       
  33 H33            1.6527     5.3917    -0.7175 H       
  34 H34            1.5355     5.9454    -2.2995 H       
  35 H35            4.6504     1.5753    -6.9009 H       
  36 H36            5.5420     0.3101    -8.8126 H       
  37 H37            6.4582    -1.9482    -8.4796 H       
  38 H38            6.4879    -2.9559    -6.2354 H       
  39 H39            6.4927    -1.5352    -3.3778 H       
  40 H40            4.7136    -1.5903    -3.3771 H       
  41 H41            5.6464    -2.9673    -4.0110 H       
  42 H42           -3.5928     1.6319     0.7216 H       
  43 H43           -4.2795     0.4425     1.8539 H       
  44 H44           -3.2632     1.7697     2.4653 H       
@<TRIPOS>BOND
   1    1    2 ar
   2    1    7 1
   3    1    6 ar
   4    2    3 ar
   5    2   28 1
   6    3    4 ar
   7    3   29 1
   8    4    5 ar
   9    4   20 1
  10    5    6 ar
  11    5   30 1
  12    6   31 1
  13    7    8 am
  14    7    9 2
  15    7   10 2
  16    8   11 1
  17    8   14 1
  18   11   12 2
  19   11   15 1
  20   12   13 1
  21   12   32 1
  22   13   14 2
  23   13   16 1
  24   15   33 1
  25   15   34 1
  26   16   17 1
  27   17   18 1
  28   17   19 2
  29   18   21 ar
  30   18   25 ar
  31   20   27 1
  32   21   22 ar
  33   21   35 1
  34   22   23 ar
  35   22   36 1
  36   23   24 ar
  37   23   37 1
  38   24   25 ar
  39   24   38 1
  40   25   26 1
  41   26   39 1
  42   26   40 1
  43   26   41 1
  44   27   42 1
  45   27   43 1
  46   27   44 1

#	End of record

