#	Name: ASD00069158
#	Creating user name:	WinNT
#	Creation time:	15. 06. 2019 18:29

#	Modifying user name:	WinNT
#	Modification time:	15. 06. 2019 18:29

#	Program:	/corina/corina34_cracker 3.40 0067  02.08.2006

@<TRIPOS>MOLECULE
ASD00069158
  53   57    0    0    0
SMALL
NO_CHARGES


@<TRIPOS>ATOM
   1 C1            -0.0972     1.1980    -0.5383 C.2     
   2 N2             0.0007    -0.0058    -0.0196 N.2     
   3 C3             1.2451    -0.4624    -0.2086 C.2     
   4 C4             1.9522     0.5002    -0.8741 C.2     
   5 N5             1.1115     1.5383    -1.0798 N.pl3   
   6 C6            -1.3088     2.0380    -0.5414 C.2     
   7 O7            -1.2828     3.1410    -1.0533 O.2     
   8 N8            -2.4452     1.5838     0.0232 N.am    
   9 C9             1.4694    -3.9041     1.2924 C.ar    
  10 C10            0.9452    -2.6883     0.9045 C.ar    
  11 C11            1.7655    -1.7810     0.2281 C.ar    
  12 C12            3.0898    -2.1503    -0.0262 C.ar    
  13 C13            3.5327    -3.3861     0.3967 C.ar    
  14 N14            2.7253    -4.2138     1.0327 N.ar    
  15 C15            0.5976    -4.8889     2.0279 C.3     
  16 C16           -3.5605     2.4244     0.1262 C.ar    
  17 C17           -4.8463     1.8957     0.0209 C.ar    
  18 C18           -5.9478     2.7348     0.1239 C.ar    
  19 C19           -5.7664     4.0914     0.3305 C.ar    
  20 C20           -4.4906     4.6142     0.4343 C.ar    
  21 C21           -3.3890     3.7844     0.3390 C.ar    
  22 F22           -7.1958     2.2275     0.0220 F       
  23 C23           -5.9725    -1.5829     0.6274 C.3     
  24 C24           -5.7980    -0.0808     0.9069 C.3     
  25 N25           -5.0263     0.5224    -0.1887 N.3     
  26 C26           -5.6482     0.2661    -1.4953 C.3     
  27 C27           -5.8289    -1.2505    -1.6738 C.3     
  28 C28           -4.4929    -1.9299    -1.2905 C.3     
  29 C29           -4.5881    -2.1501     0.2340 C.3     
  30 N30           -6.7777    -1.7013    -0.6190 N.3     
  31 H31            2.9871     0.4421    -1.1776 H       
  32 H32            1.3258     2.3708    -1.5291 H       
  33 H33           -2.4905     0.6746     0.3582 H       
  34 H34           -0.0839    -2.4415     1.1200 H       
  35 H35            3.7560    -1.4781    -0.5465 H       
  36 H36            4.5539    -3.6804     0.2046 H       
  37 H37            0.0963    -5.5377     1.3096 H       
  38 H38            1.2137    -5.4925     2.6944 H       
  39 H39           -0.1478    -4.3490     2.6118 H       
  40 H40           -6.6237     4.7434     0.4105 H       
  41 H41           -4.3543     5.6734     0.5951 H       
  42 H42           -2.3942     4.1960     0.4254 H       
  43 H43           -6.4141    -2.1125     1.4716 H       
  44 H44           -6.7768     0.3949     0.9688 H       
  45 H45           -5.2642     0.0557     1.8474 H       
  46 H46           -6.6204     0.7571    -1.5393 H       
  47 H47           -5.0064     0.6528    -2.2869 H       
  48 H48           -6.1549    -1.5130    -2.6803 H       
  49 H49           -4.3907    -2.8846    -1.8064 H       
  50 H50           -3.6531    -1.2770    -1.5282 H       
  51 H51           -3.7951    -1.6056     0.7466 H       
  52 H52           -4.5328    -3.2132     0.4683 H       
  53 H53           -7.0646    -2.6561    -0.7748 H       
@<TRIPOS>BOND
   1    1    2 2
   2    1    5 1
   3    1    6 1
   4    2    3 1
   5    3    4 2
   6    3   11 1
   7    4    5 1
   8    4   31 1
   9    5   32 1
  10    6    7 2
  11    6    8 am
  12    8   16 1
  13    8   33 1
  14    9   10 ar
  15    9   14 ar
  16    9   15 1
  17   10   11 ar
  18   10   34 1
  19   11   12 ar
  20   12   13 ar
  21   12   35 1
  22   13   14 ar
  23   13   36 1
  24   15   37 1
  25   15   38 1
  26   15   39 1
  27   16   17 ar
  28   16   21 ar
  29   17   18 ar
  30   17   25 1
  31   18   19 ar
  32   18   22 1
  33   19   20 ar
  34   19   40 1
  35   20   21 ar
  36   20   41 1
  37   21   42 1
  38   23   24 1
  39   23   29 1
  40   23   30 1
  41   23   43 1
  42   24   25 1
  43   24   44 1
  44   24   45 1
  45   25   26 1
  46   26   27 1
  47   26   46 1
  48   26   47 1
  49   27   28 1
  50   27   30 1
  51   27   48 1
  52   28   29 1
  53   28   49 1
  54   28   50 1
  55   29   51 1
  56   29   52 1
  57   30   53 1

#	End of record

