#	Name: ASD01885016
#	Creating user name:	WinNT
#	Creation time:	15. 06. 2019 19:49

#	Modifying user name:	WinNT
#	Modification time:	15. 06. 2019 19:49

#	Program:	/corina/corina34_cracker 3.40 0067  02.08.2006

@<TRIPOS>MOLECULE
ASD01885016
  55   59    0    0    0
SMALL
NO_CHARGES


@<TRIPOS>ATOM
   1 C1            -0.0165     1.3634     0.0095 C.2     
   2 C2             0.0021    -0.0041     0.0020 C.2     
   3 C3            -1.2512    -0.7533    -0.0113 C.2     
   4 C4            -2.4279    -0.2001     0.3023 C.2     
   5 C5            -2.4623     1.2397     0.7273 C.3     
   6 C6            -1.8057     3.0810    -0.4534 C.2     
   7 C7            -1.3059     1.9427     0.0310 C.2     
   8 C8            -3.6869     1.9831     0.2839 C.2     
   9 C9            -3.2629     3.0636    -0.3816 C.2     
  10 C10           -5.1190     1.5894     0.5392 C.3     
  11 C11           -5.5766     0.6035    -0.5376 C.3     
  12 C12           -6.9709    -0.0086    -0.3885 C.3     
  13 C13           -6.7098     1.0464    -1.4654 C.3     
  14 Cl14           1.4346     2.3163     0.0008 Cl      
  15 N15            1.6770    -1.0906     1.3873 N.3     
  16 C16            2.8238    -2.0073     1.4153 C.3     
  17 C17            3.0774    -2.4654     2.8533 C.3     
  18 C18            3.3561    -1.2427     3.7317 C.3     
  19 C19            2.1673    -0.2814     3.6468 C.3     
  20 C20            1.9401     0.1134     2.1858 C.3     
  21 C21            3.5474    -1.6820     5.1605 C.ar    
  22 C22            4.7406    -1.4242     5.8090 C.ar    
  23 C23            4.9161    -1.8273     7.1196 C.ar    
  24 C24            3.8982    -2.4878     7.7818 C.ar    
  25 C25            2.7047    -2.7448     7.1335 C.ar    
  26 C26            2.5276    -2.3379     5.8244 C.ar    
  27 C27            1.3179    -0.7387     0.0070 C.3     
  28 H28           -1.2270    -1.7975    -0.2862 H       
  29 H29           -3.3381    -0.7791     0.2504 H       
  30 H30           -2.3555     1.3106     1.8097 H       
  31 H31           -1.2184     3.8958    -0.8503 H       
  32 H32           -3.9078     3.8203    -0.8036 H       
  33 H33           -5.1973     1.1191     1.5194 H       
  34 H34           -5.7505     2.4774     0.5108 H       
  35 H35           -4.7940    -0.0248    -0.9629 H       
  36 H36           -7.1056    -1.0395    -0.7160 H       
  37 H37           -7.5621     0.2911     0.4768 H       
  38 H38           -7.1293     2.0401    -1.3086 H       
  39 H39           -6.6727     0.7096    -2.5014 H       
  40 H40            2.6110    -2.8744     0.7900 H       
  41 H41            3.7079    -1.4947     1.0362 H       
  42 H42            2.1987    -2.9903     3.2283 H       
  43 H43            3.9383    -3.1336     2.8759 H       
  44 H44            4.2571    -0.7396     3.3806 H       
  45 H45            1.2743    -0.7719     4.0343 H       
  46 H46            2.3779     0.6109     4.2364 H       
  47 H47            2.8283     0.6161     1.8031 H       
  48 H48            1.0853     0.7866     2.1202 H       
  49 H49            5.5359    -0.9082     5.2917 H       
  50 H50            5.8486    -1.6265     7.6260 H       
  51 H51            4.0356    -2.8033     8.8055 H       
  52 H52            1.9095    -3.2612     7.6508 H       
  53 H53            1.5937    -2.5354     5.3191 H       
  54 H54            1.2288    -1.6475    -0.5882 H       
  55 H55            2.0921    -0.1002    -0.4184 H       
@<TRIPOS>BOND
   1    1    2 2
   2    1   14 1
   3    1    7 1
   4    2    3 1
   5    2   27 1
   6    3    4 2
   7    3   28 1
   8    4    5 1
   9    4   29 1
  10    5    8 1
  11    5    7 1
  12    5   30 1
  13    6    7 2
  14    6    9 1
  15    6   31 1
  16    8    9 2
  17    8   10 1
  18    9   32 1
  19   10   11 1
  20   10   33 1
  21   10   34 1
  22   11   12 1
  23   11   13 1
  24   11   35 1
  25   12   13 1
  26   12   36 1
  27   12   37 1
  28   13   38 1
  29   13   39 1
  30   15   16 1
  31   15   20 1
  32   15   27 1
  33   16   17 1
  34   16   40 1
  35   16   41 1
  36   17   18 1
  37   17   42 1
  38   17   43 1
  39   18   19 1
  40   18   21 1
  41   18   44 1
  42   19   20 1
  43   19   45 1
  44   19   46 1
  45   20   47 1
  46   20   48 1
  47   21   22 ar
  48   21   26 ar
  49   22   23 ar
  50   22   49 1
  51   23   24 ar
  52   23   50 1
  53   24   25 ar
  54   24   51 1
  55   25   26 ar
  56   25   52 1
  57   26   53 1
  58   27   54 1
  59   27   55 1

#	End of record

