#	Name: ASD00960290
#	Creating user name:	WinNT
#	Creation time:	15. 06. 2019 18:53

#	Modifying user name:	WinNT
#	Modification time:	15. 06. 2019 18:53

#	Program:	/corina/corina34_cracker 3.40 0067  02.08.2006

@<TRIPOS>MOLECULE
ASD00960290
  48   51    0    0    0
SMALL
NO_CHARGES


@<TRIPOS>ATOM
   1 C1            -0.0795     1.3501    -0.0529 C.2     
   2 C2            -0.0346    -0.0176     0.0161 C.2     
   3 N3             1.1821     1.8093    -0.3175 N.pl3   
   4 C4             2.0256     0.7531    -0.4032 C.2     
   5 C5             1.3086    -0.4012    -0.2096 C.2     
   6 N6             1.6421     3.1259    -0.4768 N.2     
   7 C7             2.8410     3.3109    -0.9434 C.2     
   8 N8             3.6448     2.2577    -1.3192 N.pl3   
   9 C9             3.5019     0.9457    -0.6617 C.3     
  10 N10            4.2409     0.9358     0.6079 N.3     
  11 C11            1.8364    -1.7761    -0.2324 C.2     
  12 O12            3.0193    -1.9701    -0.4389 O.2     
  13 N13            1.0087    -2.8193    -0.0245 N.am    
  14 C14            1.4891    -4.1275    -0.1425 C.ar    
  15 C15            2.7843    -4.4319     0.2560 C.ar    
  16 C16            3.2556    -5.7247     0.1382 C.ar    
  17 C17            2.4396    -6.7155    -0.3763 C.ar    
  18 C18            1.1496    -6.4158    -0.7740 C.ar    
  19 C19            0.6701    -5.1262    -0.6531 C.ar    
  20 C20           -1.2750     2.1789     0.1208 C.2     
  21 O21           -2.3493     1.6564     0.3489 O.2     
  22 O22           -1.1843     3.5215     0.0278 O.3     
  23 C23           -2.4092     4.2792     0.2109 C.3     
  24 C24           -2.1150     5.7508     0.0730 C.ar    
  25 C25           -2.1971     6.3589    -1.1657 C.ar    
  26 C26           -1.9272     7.7087    -1.2923 C.ar    
  27 C27           -1.5756     8.4505    -0.1801 C.ar    
  28 C28           -1.4944     7.8426     1.0588 C.ar    
  29 C29           -1.7685     6.4936     1.1860 C.ar    
  30 H30           -0.8674    -0.6783     0.2070 H       
  31 H31            3.2173     4.3187    -1.0394 H       
  32 H32            4.3066     2.3793    -2.0179 H       
  33 H33            3.8722     0.1572    -1.3168 H       
  34 H34            5.2230     1.1107     0.4560 H       
  35 H35            3.8514     1.6017     1.2582 H       
  36 H36            0.0798    -2.6627     0.2069 H       
  37 H37            3.4223    -3.6584     0.6573 H       
  38 H38            4.2627    -5.9620     0.4479 H       
  39 H39            2.8108    -7.7256    -0.4681 H       
  40 H40            0.5149    -7.1918    -1.1758 H       
  41 H41           -0.3376    -4.8928    -0.9638 H       
  42 H42           -3.1368     3.9818    -0.5443 H       
  43 H43           -2.8141     4.0811     1.2034 H       
  44 H44           -2.4718     5.7793    -2.0347 H       
  45 H45           -1.9907     8.1837    -2.2601 H       
  46 H46           -1.3640     9.5049    -0.2791 H       
  47 H47           -1.2193     8.4220     1.9277 H       
  48 H48           -1.7087     6.0195     2.1545 H       
@<TRIPOS>BOND
   1    1    2 2
   2    1    3 1
   3    1   20 1
   4    2    5 1
   5    2   30 1
   6    3    4 1
   7    3    6 1
   8    4    5 2
   9    4    9 1
  10    5   11 1
  11    6    7 2
  12    7    8 1
  13    7   31 1
  14    8    9 1
  15    8   32 1
  16    9   10 1
  17    9   33 1
  18   10   34 1
  19   10   35 1
  20   11   12 2
  21   11   13 am
  22   13   14 1
  23   13   36 1
  24   14   15 ar
  25   14   19 ar
  26   15   16 ar
  27   15   37 1
  28   16   17 ar
  29   16   38 1
  30   17   18 ar
  31   17   39 1
  32   18   19 ar
  33   18   40 1
  34   19   41 1
  35   20   21 2
  36   20   22 1
  37   22   23 1
  38   23   24 1
  39   23   42 1
  40   23   43 1
  41   24   25 ar
  42   24   29 ar
  43   25   26 ar
  44   25   44 1
  45   26   27 ar
  46   26   45 1
  47   27   28 ar
  48   27   46 1
  49   28   29 ar
  50   28   47 1
  51   29   48 1

#	End of record

