#	Name: ASD01812314
#	Creating user name:	WinNT
#	Creation time:	15. 06. 2019 19:28

#	Modifying user name:	WinNT
#	Modification time:	15. 06. 2019 19:28

#	Program:	/corina/corina34_cracker 3.40 0067  02.08.2006

@<TRIPOS>MOLECULE
ASD01812314
  48   50    0    0    0
SMALL
NO_CHARGES


@<TRIPOS>ATOM
   1 C1            -0.0187     1.5258     0.0104 C.3     
   2 C2             0.0021    -0.0041     0.0020 C.3     
   3 O3             0.6932    -0.4774     1.1597 O.3     
   4 C4             0.8021    -1.8252     1.3058 C.ar    
   5 C5             0.2594    -2.6719     0.3506 C.ar    
   6 C6             0.3698    -4.0407     0.4979 C.ar    
   7 C7             1.0244    -4.5692     1.6027 C.ar    
   8 N8             1.1372    -5.9559     1.7525 N.pl3   
   9 C9             1.8280    -6.5130     2.9181 C.3     
  10 C10            1.8103    -8.0179     2.8408 C.2     
  11 O11            1.2734    -8.5709     1.9038 O.2     
  12 N12            2.3909    -8.7495     3.8124 N.am    
  13 N13            2.3745   -10.1485     3.7405 N.2     
  14 C14            2.9344   -10.8541     4.6775 C.2     
  15 C15            2.9172   -12.3217     4.6021 C.ar    
  16 C16            2.3094   -12.9729     3.5289 C.ar    
  17 O17            1.7263   -12.2460     2.5416 O.3     
  18 C18            2.2970   -14.3656     3.4633 C.ar    
  19 C19            2.8682   -15.1330     4.4288 C.ar    
  20 C20            3.4978   -14.5423     5.5387 C.ar    
  21 C21            4.0919   -15.3258     6.5422 C.ar    
  22 C22            4.6938   -14.7191     7.6028 C.ar    
  23 C23            4.7299   -13.3313     7.7095 C.ar    
  24 C24            4.1633   -12.5407     6.7539 C.ar    
  25 C25            3.5420   -13.1307     5.6470 C.ar    
  26 C26            1.5675    -3.7207     2.5584 C.ar    
  27 C27            1.4607    -2.3521     2.4069 C.ar    
  28 H28            1.0039     1.9031     0.0027 H       
  29 H29           -0.5459     1.8868    -0.8726 H       
  30 H30           -0.5289     1.8773     0.9072 H       
  31 H31           -1.0205    -0.3814     0.0098 H       
  32 H32            0.5123    -0.3556    -0.8948 H       
  33 H33           -0.2500    -2.2608    -0.5084 H       
  34 H34           -0.0531    -4.6999    -0.2457 H       
  35 H35            0.7581    -6.5483     1.0845 H       
  36 H36            2.8598    -6.1619     2.9311 H       
  37 H37            1.3228    -6.1900     3.8284 H       
  38 H38            2.8202    -8.3074     4.5615 H       
  39 H39            3.4123   -10.3618     5.5116 H       
  40 H40            2.3224   -12.0217     1.8139 H       
  41 H41            1.8203   -14.8477     2.6227 H       
  42 H42            2.8377   -16.2091     4.3427 H       
  43 H43            4.0712   -16.4034     6.4732 H       
  44 H44            5.1498   -15.3237     8.3728 H       
  45 H45            5.2128   -12.8749     8.5609 H       
  46 H46            4.1976   -11.4654     6.8483 H       
  47 H47            2.0767    -4.1309     3.4180 H       
  48 H48            1.8869    -1.6920     3.1478 H       
@<TRIPOS>BOND
   1    1    2 1
   2    1   28 1
   3    1   29 1
   4    1   30 1
   5    2    3 1
   6    2   31 1
   7    2   32 1
   8    3    4 1
   9    4   27 ar
  10    4    5 ar
  11    5    6 ar
  12    5   33 1
  13    6    7 ar
  14    6   34 1
  15    7    8 1
  16    7   26 ar
  17    8    9 1
  18    8   35 1
  19    9   10 1
  20    9   36 1
  21    9   37 1
  22   10   11 2
  23   10   12 am
  24   12   13 1
  25   12   38 1
  26   13   14 2
  27   14   15 1
  28   14   39 1
  29   15   25 ar
  30   15   16 ar
  31   16   17 1
  32   16   18 ar
  33   17   40 1
  34   18   19 ar
  35   18   41 1
  36   19   20 ar
  37   19   42 1
  38   20   25 ar
  39   20   21 ar
  40   21   22 ar
  41   21   43 1
  42   22   23 ar
  43   22   44 1
  44   23   24 ar
  45   23   45 1
  46   24   25 ar
  47   24   46 1
  48   26   27 ar
  49   26   47 1
  50   27   48 1

#	End of record

