#	Name: ASD04882112
#	Creating user name:	WinNT
#	Creation time:	15. 06. 2019 20:54

#	Modifying user name:	WinNT
#	Modification time:	15. 06. 2019 20:54

#	Program:	/corina/corina34_cracker 3.40 0067  02.08.2006

@<TRIPOS>MOLECULE
ASD04882112
  76   80    0    0    0
SMALL
NO_CHARGES


@<TRIPOS>ATOM
   1 C1            -0.3031     1.6119     1.3330 C.2     
   2 N2            -0.3983     0.3162     1.3825 N.2     
   3 O3             0.5778    -0.2322     0.9328 O.3     
   4 C4             1.5070     0.6225     0.4988 C.2     
   5 C5             1.0086     1.8825     0.7243 C.2     
   6 C6             1.6334     3.1842     0.4289 C.2     
   7 O7             2.7361     3.2274    -0.0824 O.2     
   8 N8             0.9829     4.3268     0.7254 N.am    
   9 C9             1.6195     5.5622     0.5464 C.ar    
  10 C10            0.8756     6.6845     0.1705 C.ar    
  11 C11            1.5056     7.9105    -0.0075 C.ar    
  12 C12            2.8648     8.0244     0.1862 C.ar    
  13 C13            3.6142     6.9067     0.5624 C.ar    
  14 C14            2.9820     5.6734     0.7467 C.ar    
  15 N15           -0.4985     6.5739    -0.0263 N.3     
  16 C16           -0.7974     5.7261    -1.1889 C.3     
  17 C17           -2.3135     5.5652    -1.3232 C.3     
  18 N18           -2.9332     6.8899    -1.4678 N.3     
  19 C19           -2.6342     7.7376    -0.3052 C.3     
  20 C20           -1.1182     7.8985    -0.1709 C.3     
  21 C21           -4.3114     6.7789    -1.6652 C.ar    
  22 C22           -4.8039     6.2092    -2.8328 C.ar    
  23 C23           -7.0418     6.5586    -2.0561 C.ar    
  24 C24           -5.1927     7.2325    -0.6922 C.ar    
  25 C25           -6.1670     6.1006    -3.0245 C.ar    
  26 C26           -6.5551     7.1208    -0.8905 C.ar    
  27 C27           -3.8515     5.7109    -3.8890 C.3     
  28 C28            5.0697     7.0290     0.7697 C.2     
  29 N29            5.6774     8.2194     0.5963 N.am    
  30 O30            5.7211     6.0558     1.0971 O.2     
  31 C31            7.1228     8.3409     0.8022 C.3     
  32 C32            7.5553     9.7853     0.5425 C.3     
  33 C33            9.0648     9.9121     0.7576 C.3     
  34 N34            9.4790    11.2952     0.5089 N.am    
  35 C35            9.5211    12.2550     1.4491 C.2     
  36 C36            9.9839    13.5601     0.8398 C.3     
  37 C37            9.8150    13.3488    -0.6826 C.3     
  38 C38            9.9073    11.8092    -0.7973 C.3     
  39 O39            9.2301    12.0977     2.6159 O.2     
  40 C40            2.8383     0.2743    -0.1155 C.3     
  41 H41           -1.0334     2.3355     1.6638 H       
  42 H42            0.0741     4.2939     1.0628 H       
  43 H43            0.9284     8.7756    -0.2986 H       
  44 H44            3.3515     8.9784     0.0467 H       
  45 H45            3.5581     4.8086     1.0411 H       
  46 H46           -0.3998     6.1920    -2.0905 H       
  47 H47           -0.3385     4.7469    -1.0525 H       
  48 H48           -2.5386     4.9606    -2.2018 H       
  49 H49           -2.7074     5.0746    -0.4332 H       
  50 H50           -3.0932     8.7169    -0.4416 H       
  51 H51           -3.0318     7.2717     0.5964 H       
  52 H52           -0.8931     8.5031     0.7077 H       
  53 H53           -0.7242     8.3891    -1.0610 H       
  54 H54           -8.1075     6.4727    -2.2087 H       
  55 H55           -4.8131     7.6718     0.2185 H       
  56 H56           -6.5505     5.6579    -3.9319 H       
  57 H57           -7.2409     7.4774    -0.1363 H       
  58 H58           -3.6690     4.6465    -3.7407 H       
  59 H59           -4.2867     5.8709    -4.8754 H       
  60 H60           -2.9098     6.2547    -3.8148 H       
  61 H61            5.1578     8.9958     0.3352 H       
  62 H62            7.3679     8.0671     1.8284 H       
  63 H63            7.6449     7.6760     0.1142 H       
  64 H64            7.3103    10.0590    -0.4837 H       
  65 H65            7.0332    10.4502     1.2305 H       
  66 H66            9.3099     9.6384     1.7838 H       
  67 H67            9.5870     9.2472     0.0696 H       
  68 H68            9.3580    14.3841     1.1824 H       
  69 H69           11.0294    13.7463     1.0855 H       
  70 H70            8.8447    13.7118    -1.0215 H       
  71 H71           10.6236    13.8276    -1.2349 H       
  72 H72           10.9330    11.5045    -1.0048 H       
  73 H73            9.2404    11.4499    -1.5811 H       
  74 H74            2.9454    -0.8095    -0.1604 H       
  75 H75            2.8926     0.6868    -1.1230 H       
  76 H76            3.6399     0.6937     0.4925 H       
@<TRIPOS>BOND
   1    1    2 2
   2    1    5 1
   3    1   41 1
   4    2    3 1
   5    3    4 1
   6    4    5 2
   7    4   40 1
   8    5    6 1
   9    6    7 2
  10    6    8 am
  11    8    9 1
  12    8   42 1
  13    9   10 ar
  14    9   14 ar
  15   10   11 ar
  16   10   15 1
  17   11   12 ar
  18   11   43 1
  19   12   13 ar
  20   12   44 1
  21   13   14 ar
  22   13   28 1
  23   14   45 1
  24   15   16 1
  25   15   20 1
  26   16   17 1
  27   16   46 1
  28   16   47 1
  29   17   18 1
  30   17   48 1
  31   17   49 1
  32   18   19 1
  33   18   21 1
  34   19   20 1
  35   19   50 1
  36   19   51 1
  37   20   52 1
  38   20   53 1
  39   21   22 ar
  40   21   24 ar
  41   22   25 ar
  42   22   27 1
  43   23   25 ar
  44   23   26 ar
  45   23   54 1
  46   24   26 ar
  47   24   55 1
  48   25   56 1
  49   26   57 1
  50   27   58 1
  51   27   59 1
  52   27   60 1
  53   28   29 am
  54   28   30 2
  55   29   31 1
  56   29   61 1
  57   31   32 1
  58   31   62 1
  59   31   63 1
  60   32   33 1
  61   32   64 1
  62   32   65 1
  63   33   34 1
  64   33   66 1
  65   33   67 1
  66   34   35 am
  67   34   38 1
  68   35   36 1
  69   35   39 2
  70   36   37 1
  71   36   68 1
  72   36   69 1
  73   37   38 1
  74   37   70 1
  75   37   71 1
  76   38   72 1
  77   38   73 1
  78   40   74 1
  79   40   75 1
  80   40   76 1

#	End of record

