#	Name: ASD01890472
#	Creating user name:	WinNT
#	Creation time:	15. 06. 2019 19:51

#	Modifying user name:	WinNT
#	Modification time:	15. 06. 2019 19:51

#	Program:	/corina/corina34_cracker 3.40 0067  02.08.2006

@<TRIPOS>MOLECULE
ASD01890472
  35   38    0    0    0
SMALL
NO_CHARGES


@<TRIPOS>ATOM
   1 C1            -0.0166     1.3738     0.0096 C.ar    
   2 C2             0.0021    -0.0041     0.0020 C.ar    
   3 C3             1.2210    -0.6889    -0.0146 C.ar    
   4 C4             2.4099     0.0507     0.0056 C.ar    
   5 C5             2.3818     1.4235     0.0002 C.ar    
   6 C6             1.1675     2.0919     0.0021 C.ar    
   7 N7             1.5024    -2.0288    -0.0846 N.2     
   8 C8             2.7464    -2.2903    -0.1010 C.2     
   9 C9             3.5046    -0.9769     0.0681 C.3     
  10 C10            3.4710    -3.5884    -0.3670 C.3     
  11 C11            4.3520    -3.3630    -1.6061 C.3     
  12 C12            5.2589    -2.1485    -1.4132 C.3     
  13 C13            4.4381    -0.9082    -1.1205 C.2     
  14 O14            4.5252     0.0851    -1.8018 O.2     
  15 C15            5.2025    -4.5851    -1.8388 C.ar    
  16 C16            5.0953    -5.2856    -3.0258 C.ar    
  17 C17            5.8751    -6.4065    -3.2398 C.ar    
  18 C18            6.7630    -6.8274    -2.2659 C.ar    
  19 C19            6.8698    -6.1259    -1.0782 C.ar    
  20 C20            6.0936    -5.0019    -0.8676 C.ar    
  21 Cl21           7.7424    -8.2355    -2.5338 Cl      
  22 Cl22           1.1312     3.8275    -0.0048 Cl      
  23 H23           -0.9612     1.8973     0.0169 H       
  24 H24           -0.9263    -0.5559     0.0093 H       
  25 H25            3.3059     1.9824    -0.0056 H       
  26 H26            4.0387    -0.9370     1.0174 H       
  27 H27            4.0928    -3.8498     0.4893 H       
  28 H28            2.7510    -4.3833    -0.5618 H       
  29 H29            3.7142    -3.2000    -2.4748 H       
  30 H30            5.9367    -2.3352    -0.5803 H       
  31 H31            5.8415    -1.9878    -2.3203 H       
  32 H32            4.4019    -4.9571    -3.7858 H       
  33 H33            5.7910    -6.9539    -4.1670 H       
  34 H34            7.5628    -6.4540    -0.3176 H       
  35 H35            6.1769    -4.4542     0.0595 H       
@<TRIPOS>BOND
   1    1    2 ar
   2    1    6 ar
   3    1   23 1
   4    2    3 ar
   5    2   24 1
   6    3    4 ar
   7    3    7 1
   8    4    5 ar
   9    4    9 1
  10    5    6 ar
  11    5   25 1
  12    6   22 1
  13    7    8 2
  14    8    9 1
  15    8   10 1
  16    9   13 1
  17    9   26 1
  18   10   11 1
  19   10   27 1
  20   10   28 1
  21   11   12 1
  22   11   15 1
  23   11   29 1
  24   12   13 1
  25   12   30 1
  26   12   31 1
  27   13   14 2
  28   15   16 ar
  29   15   20 ar
  30   16   17 ar
  31   16   32 1
  32   17   18 ar
  33   17   33 1
  34   18   19 ar
  35   18   21 1
  36   19   20 ar
  37   19   34 1
  38   20   35 1

#	End of record

