#	Name: ASD01028654
#	Creating user name:	WinNT
#	Creation time:	15. 06. 2019 18:57

#	Modifying user name:	WinNT
#	Modification time:	15. 06. 2019 18:57

#	Program:	/corina/corina34_cracker 3.40 0067  02.08.2006

@<TRIPOS>MOLECULE
ASD01028654
  41   45    0    0    0
SMALL
NO_CHARGES


@<TRIPOS>ATOM
   1 N1            -0.0157     1.3066     0.0092 N.ar    
   2 C2             0.0021    -0.0041     0.0020 C.ar    
   3 C3             1.1967    -0.7211    -0.0128 C.ar    
   4 C4             2.3902    -0.0572    -0.0206 C.ar    
   5 C5             2.3672     1.3504    -0.0132 C.ar    
   6 C6             3.5535     2.1011    -0.0200 C.ar    
   7 C7             3.4892     3.4613    -0.0122 C.ar    
   8 C8             2.2611     4.1187     0.0030 C.ar    
   9 C9             1.0917     3.4224     0.0100 C.ar    
  10 C10            1.1167     2.0170     0.0022 C.ar    
  11 C11            4.7634     4.2659    -0.0195 C.3     
  12 C12            6.2644     5.2484    -3.2189 C.2     
  13 C13            7.2978     5.9085    -3.9128 C.2     
  14 C14            8.2838     6.5240    -3.2089 C.2     
  15 C15            8.2672     6.4983    -1.7976 C.2     
  16 N16            7.3018     5.8827    -1.1483 N.2     
  17 N17            6.2742     5.2403    -1.8458 N.pl3   
  18 N18            5.1989     4.5732    -3.6252 N.2     
  19 C19            4.5244     4.1394    -2.5594 C.2     
  20 C20            5.1751     4.5418    -1.4427 C.2     
  21 O21           10.3951     7.8387    -1.5509 O.3     
  22 N22           11.1062     8.2783    -0.6776 N.2     
  23 C23           10.6583     7.9826     0.5092 C.2     
  24 C24            9.4756     7.2378     0.3193 C.2     
  25 C25            9.3452     7.1703    -1.0408 C.2     
  26 C26           11.2821     8.3616     1.8276 C.3     
  27 F27            4.5538     5.4772     0.6484 F       
  28 F28            5.7736     3.5456     0.6270 F       
  29 H29           -0.9341    -0.5425     0.0081 H       
  30 H30            1.1789    -1.8009    -0.0177 H       
  31 H31            3.3255    -0.5970    -0.0317 H       
  32 H32            4.5116     1.6027    -0.0311 H       
  33 H33            2.2365     5.1984     0.0097 H       
  34 H34            0.1481     3.9476     0.0221 H       
  35 H35            7.3065     5.9248    -4.9926 H       
  36 H36            9.0812     7.0332    -3.7298 H       
  37 H37            3.6130     3.5604    -2.5835 H       
  38 H38            8.8248     6.8183     1.0722 H       
  39 H39           10.8838     9.3219     2.1553 H       
  40 H40           11.0507     7.5994     2.5716 H       
  41 H41           12.3630     8.4378     1.7096 H       
@<TRIPOS>BOND
   1    1    2 ar
   2    1   10 ar
   3    2    3 ar
   4    2   29 1
   5    3    4 ar
   6    3   30 1
   7    4    5 ar
   8    4   31 1
   9    5    6 ar
  10    5   10 ar
  11    6    7 ar
  12    6   32 1
  13    7    8 ar
  14    7   11 1
  15    8    9 ar
  16    8   33 1
  17    9   10 ar
  18    9   34 1
  19   11   20 1
  20   11   27 1
  21   11   28 1
  22   12   13 1
  23   12   17 1
  24   12   18 2
  25   13   14 2
  26   13   35 1
  27   14   15 1
  28   14   36 1
  29   15   16 2
  30   15   25 1
  31   16   17 1
  32   17   20 1
  33   18   19 1
  34   19   20 2
  35   19   37 1
  36   21   22 1
  37   21   25 1
  38   22   23 2
  39   23   24 1
  40   23   26 1
  41   24   25 2
  42   24   38 1
  43   26   39 1
  44   26   40 1
  45   26   41 1

#	End of record

