#	Name: ASD01800022
#	Creating user name:	WinNT
#	Creation time:	15. 06. 2019 19:23

#	Modifying user name:	WinNT
#	Modification time:	15. 06. 2019 19:23

#	Program:	/corina/corina34_cracker 3.40 0067  02.08.2006

@<TRIPOS>MOLECULE
ASD01800022
  54   57    0    0    0
SMALL
NO_CHARGES


@<TRIPOS>ATOM
   1 C1            -0.2531     0.8531     0.3095 C.ar    
   2 C2             0.0008    -0.4892     0.5749 C.ar    
   3 C3             1.2968    -0.9880     0.4579 C.ar    
   4 C4             2.3319    -0.1491     0.0776 C.ar    
   5 C5             2.0822     1.1885    -0.1870 C.ar    
   6 C6             0.7889     1.6931    -0.0723 C.ar    
   7 O7             3.5951    -0.6386    -0.0357 O.3     
   8 C8             3.8699    -1.3742    -1.1299 C.2     
   9 N9             5.0693    -1.9763    -1.2533 N.am    
  10 C10            5.3682    -2.7765    -2.4436 C.3     
  11 C11            6.8886    -2.8302    -2.6744 C.3     
  12 C12            7.2940    -4.3166    -2.5955 C.3     
  13 C13            5.9912    -5.0840    -2.9313 C.3     
  14 C14            4.9028    -4.2320    -2.2324 C.3     
  15 O15            3.0364    -1.4949    -2.0059 O.2     
  16 C16           -1.1070    -1.3881     0.9826 C.ar    
  17 C17           -0.8534    -2.7325     1.2487 C.ar    
  18 C18           -1.8850    -3.5655     1.6279 C.ar    
  19 C19           -3.1751    -3.0661     1.7447 C.ar    
  20 C20           -3.4307    -1.7273     1.4804 C.ar    
  21 C21           -2.4022    -0.8884     1.1059 C.ar    
  22 C22            0.5225     3.1253    -0.3558 C.ar    
  23 C23            1.5644     3.9681    -0.7372 C.ar    
  24 C24            1.3109     5.2991    -1.0002 C.ar    
  25 C25            0.0255     5.7968    -0.8852 C.ar    
  26 C26           -1.0126     4.9646    -0.5070 C.ar    
  27 C27           -0.7714     3.6306    -0.2472 C.ar    
  28 O28           -4.1896    -3.8892     2.1181 O.3     
  29 C29           -5.4918    -3.3095     2.2186 C.3     
  30 H30           -1.2573     1.2411     0.3951 H       
  31 H31            1.4946    -2.0296     0.6641 H       
  32 H32            2.8912     1.8400    -0.4829 H       
  33 H33            5.7346    -1.8799    -0.5541 H       
  34 H34            4.8731    -2.3481    -3.3151 H       
  35 H35            7.1313    -2.4287    -3.6583 H       
  36 H36            7.4040    -2.2610    -1.9008 H       
  37 H37            8.0685    -4.5402    -3.3291 H       
  38 H38            7.6355    -4.5660    -1.5908 H       
  39 H39            5.8267    -5.1129    -4.0085 H       
  40 H40            6.0186    -6.0916    -2.5165 H       
  41 H41            4.8581    -4.4678    -1.1692 H       
  42 H42            3.9321    -4.3940    -2.7012 H       
  43 H43            0.1499    -3.1216     1.1576 H       
  44 H44           -1.6891    -4.6074     1.8338 H       
  45 H45           -4.4353    -1.3416     1.5721 H       
  46 H46           -2.6016     0.1530     0.9007 H       
  47 H47            2.5685     3.5807    -0.8266 H       
  48 H48            2.1178     5.9533    -1.2959 H       
  49 H49           -0.1683     6.8391    -1.0912 H       
  50 H50           -2.0143     5.3584    -0.4184 H       
  51 H51           -1.5826     2.9817     0.0481 H       
  52 H52           -5.4771    -2.5089     2.9580 H       
  53 H53           -5.7849    -2.9043     1.2501 H       
  54 H54           -6.2069    -4.0733     2.5242 H       
@<TRIPOS>BOND
   1    1    2 ar
   2    1    6 ar
   3    1   30 1
   4    2    3 ar
   5    2   16 1
   6    3    4 ar
   7    3   31 1
   8    4    5 ar
   9    4    7 1
  10    5    6 ar
  11    5   32 1
  12    6   22 1
  13    7    8 1
  14    8    9 am
  15    8   15 2
  16    9   10 1
  17    9   33 1
  18   10   11 1
  19   10   14 1
  20   10   34 1
  21   11   12 1
  22   11   35 1
  23   11   36 1
  24   12   13 1
  25   12   37 1
  26   12   38 1
  27   13   14 1
  28   13   39 1
  29   13   40 1
  30   14   41 1
  31   14   42 1
  32   16   17 ar
  33   16   21 ar
  34   17   18 ar
  35   17   43 1
  36   18   19 ar
  37   18   44 1
  38   19   20 ar
  39   19   28 1
  40   20   21 ar
  41   20   45 1
  42   21   46 1
  43   22   23 ar
  44   22   27 ar
  45   23   24 ar
  46   23   47 1
  47   24   25 ar
  48   24   48 1
  49   25   26 ar
  50   25   49 1
  51   26   27 ar
  52   26   50 1
  53   27   51 1
  54   28   29 1
  55   29   52 1
  56   29   53 1
  57   29   54 1

#	End of record

