#	Name: ASD07931912
#	Creating user name:	WinNT
#	Creation time:	15. 06. 2019 21:13

#	Modifying user name:	WinNT
#	Modification time:	15. 06. 2019 21:13

#	Program:	/corina/corina34_cracker 3.40 0067  02.08.2006

@<TRIPOS>MOLECULE
ASD07931912
  35   34    0    0    0
SMALL
NO_CHARGES


@<TRIPOS>ATOM
   1 C1            -0.0187     1.5258     0.0104 C.3     
   2 C2             0.0021    -0.0041     0.0020 C.3     
   3 C3            -1.4290    -0.5329    -0.1129 C.3     
   4 C4            -1.4015    -1.9990    -0.2417 C.1     
   5 C5            -1.3795    -3.1683    -0.3444 C.1     
   6 O6             0.5895    -0.4792     1.2150 O.3     
   7 Si7           -1.3440    -5.0607    -0.5106 Si      
   8 C8            -3.0866    -5.7046    -0.6506 C.3     
   9 C9            -0.3834    -5.5322    -2.0357 C.3     
  10 C10           -0.5272    -5.8008     0.9913 C.3     
  11 N11            1.3595     2.0342     0.0000 N.3     
  12 C12            1.3788     3.5031     0.0077 C.3     
  13 C13            2.8278     3.9942    -0.0035 C.3     
  14 O14            3.4499     3.6144    -1.2326 O.3     
  15 H15           -0.5459     1.8868    -0.8726 H       
  16 H16           -0.5289     1.8773     0.9072 H       
  17 H17            0.5883    -0.3548    -0.8473 H       
  18 H18           -1.9910    -0.2570     0.7794 H       
  19 H19           -1.9069    -0.0999    -0.9916 H       
  20 H20            0.1188    -0.2046     2.0138 H       
  21 H21           -3.5645    -5.2716    -1.5293 H       
  22 H22           -3.0662    -6.7902    -0.7459 H       
  23 H23           -3.6486    -5.4287     0.2417 H       
  24 H24            0.6361    -5.1554    -1.9538 H       
  25 H25           -0.3630    -6.6178    -2.1310 H       
  26 H26           -0.8613    -5.0991    -2.9144 H       
  27 H27           -1.0892    -5.5249     1.8836 H       
  28 H28           -0.5068    -6.8864     0.8959 H       
  29 H29            0.4924    -5.4240     1.0732 H       
  30 H30            1.8883     1.6616     0.7744 H       
  31 H31            0.8613     3.8779    -0.8754 H       
  32 H32            0.8783     3.8683     0.9045 H       
  33 H33            2.8442     5.0799     0.0918 H       
  34 H34            3.3691     3.5480     0.8308 H       
  35 H35            4.3726     3.8936    -1.3091 H       
@<TRIPOS>BOND
   1    1    2 1
   2    1   11 1
   3    1   15 1
   4    1   16 1
   5    2    3 1
   6    2    6 1
   7    2   17 1
   8    3    4 1
   9    3   18 1
  10    3   19 1
  11    4    5 3
  12    5    7 1
  13    6   20 1
  14    7    8 1
  15    7    9 1
  16    7   10 1
  17    8   21 1
  18    8   22 1
  19    8   23 1
  20    9   24 1
  21    9   25 1
  22    9   26 1
  23   10   27 1
  24   10   28 1
  25   10   29 1
  26   11   12 1
  27   11   30 1
  28   12   13 1
  29   12   31 1
  30   12   32 1
  31   13   14 1
  32   13   33 1
  33   13   34 1
  34   14   35 1

#	End of record

