#	Name: ASD01200056
#	Creating user name:	WinNT
#	Creation time:	15. 06. 2019 19:08

#	Modifying user name:	WinNT
#	Modification time:	15. 06. 2019 19:08

#	Program:	/corina/corina34_cracker 3.40 0067  02.08.2006

@<TRIPOS>MOLECULE
ASD01200056
  37   39    0    0    0
SMALL
NO_CHARGES


@<TRIPOS>ATOM
   1 C1             0.0152     1.3733    -0.1143 C.ar    
   2 C2            -0.0947     0.0294     0.2299 C.ar    
   3 C3            -1.3283    -0.5188     0.5138 C.ar    
   4 C4            -2.4712     0.2684     0.4575 C.ar    
   5 C5            -2.3678     1.6245     0.1112 C.ar    
   6 C6            -1.1138     2.1726    -0.1692 C.ar    
   7 C7            -3.5755     2.4675     0.0489 C.2     
   8 N8            -3.4613     3.7943    -0.1584 N.am    
   9 C9            -4.5985     4.6081    -0.1240 C.ar    
  10 O10           -4.6749     1.9657     0.1846 O.2     
  11 S11            1.5969     2.0614    -0.4741 S.3     
  12 N12           -3.7149    -0.2858     0.7432 N.pl3   
  13 C13            1.7329     1.6406    -2.1797 C.2     
  14 N14            0.8889     0.9131    -2.8739 N.2     
  15 N15            1.2990     0.8075    -4.0873 N.2     
  16 C16            2.4194     1.4557    -4.2389 C.2     
  17 N17            2.7330     2.0144    -3.0311 N.pl3   
  18 C18            3.9040     2.8355    -2.7136 C.3     
  19 C19           -4.5287     5.8950     0.3930 C.ar    
  20 N20           -5.5984     6.6645     0.4274 N.ar    
  21 C21           -6.7667     6.2508    -0.0226 C.ar    
  22 C22           -6.9154     4.9821    -0.5521 C.ar    
  23 C23           -5.8164     4.1415    -0.6133 C.ar    
  24 H24            0.7904    -0.5878     0.2746 H       
  25 H25           -1.4056    -1.5626     0.7801 H       
  26 H26           -1.0263     3.2153    -0.4365 H       
  27 H27           -2.5904     4.1850    -0.3313 H       
  28 H28           -3.8044    -1.2453     0.8538 H       
  29 H29           -4.4925     0.2873     0.8318 H       
  30 H30            2.9918     1.5398    -5.1508 H       
  31 H31            3.6705     3.8853    -2.8908 H       
  32 H32            4.1735     2.6948    -1.6669 H       
  33 H33            4.7394     2.5372    -3.3471 H       
  34 H34           -3.5887     6.2690     0.7711 H       
  35 H35           -7.6194     6.9119     0.0234 H       
  36 H36           -7.8765     4.6521    -0.9178 H       
  37 H37           -5.9036     3.1455    -1.0218 H       
@<TRIPOS>BOND
   1    1    2 ar
   2    1   11 1
   3    1    6 ar
   4    2    3 ar
   5    2   24 1
   6    3    4 ar
   7    3   25 1
   8    4    5 ar
   9    4   12 1
  10    5    6 ar
  11    5    7 1
  12    6   26 1
  13    7    8 am
  14    7   10 2
  15    8    9 1
  16    8   27 1
  17    9   19 ar
  18    9   23 ar
  19   11   13 1
  20   12   28 1
  21   12   29 1
  22   13   14 2
  23   13   17 1
  24   14   15 1
  25   15   16 2
  26   16   17 1
  27   16   30 1
  28   17   18 1
  29   18   31 1
  30   18   32 1
  31   18   33 1
  32   19   20 ar
  33   19   34 1
  34   20   21 ar
  35   21   22 ar
  36   21   35 1
  37   22   23 ar
  38   22   36 1
  39   23   37 1

#	End of record

