#	Name: ASD01911189
#	Creating user name:	WinNT
#	Creation time:	15. 06. 2019 19:57

#	Modifying user name:	WinNT
#	Modification time:	15. 06. 2019 19:57

#	Program:	/corina/corina34_cracker 3.40 0067  02.08.2006

@<TRIPOS>MOLECULE
ASD01911189
  43   45    0    0    0
SMALL
NO_CHARGES


@<TRIPOS>ATOM
   1 N1            -0.0071     1.4094    -0.0033 N.2     
   2 N2            -0.0070     0.0095    -0.0452 N.pl3   
   3 C3             1.2421     1.8244     0.0383 C.2     
   4 C4             2.0821     0.6978     0.0241 C.2     
   5 C5             1.2902    -0.4115    -0.0276 C.2     
   6 C6             1.7541    -1.8165    -0.0585 C.ar    
   7 C7             1.6865     3.2389     0.0907 C.ar    
   8 N8             2.9825     3.5204     0.1289 N.ar    
   9 C9             3.4184     4.7629     0.1759 C.ar    
  10 C10            2.5337     5.8255     0.1872 C.ar    
  11 C11            1.1694     5.5755     0.1483 C.ar    
  12 C12            0.7398     4.2607     0.0935 C.ar    
  13 C13           -1.1914    -0.8510    -0.0987 C.3     
  14 C14           -1.6284    -1.0158    -1.5315 C.2     
  15 O15           -2.7007    -1.7685    -1.8238 O.3     
  16 O16           -1.0135    -0.4704    -2.4171 O.2     
  17 C17           -3.0637    -1.8827    -3.2250 C.3     
  18 C18            3.0161    -2.1483     0.4347 C.ar    
  19 C19            3.0464     7.2415     0.2416 C.3     
  20 C20            4.9010     5.0294     0.2185 C.3     
  21 C21            0.9290    -2.8153    -0.5756 C.ar    
  22 C22            1.3673    -4.1234    -0.6016 C.ar    
  23 C23            2.6220    -4.4453    -0.1159 C.ar    
  24 C24            3.4429    -3.4600     0.4031 C.ar    
  25 H25            3.1617     0.7084     0.0491 H       
  26 H26            0.4587     6.3887     0.1561 H       
  27 H27           -0.3148     4.0301     0.0622 H       
  28 H28           -0.9506    -1.8272     0.3223 H       
  29 H29           -1.9974    -0.3959     0.4769 H       
  30 H30           -3.2827    -0.8928    -3.6254 H       
  31 H31           -2.2359    -2.3241    -3.7801 H       
  32 H32           -3.9450    -2.5168    -3.3215 H       
  33 H33            3.6578    -1.3800     0.8400 H       
  34 H34            3.1940     7.6137    -0.7722 H       
  35 H35            2.3214     7.8708     0.7578 H       
  36 H36            3.9947     7.2642     0.7786 H       
  37 H37            5.2825     5.1241    -0.7982 H       
  38 H38            5.0883     5.9540     0.7645 H       
  39 H39            5.4045     4.2029     0.7200 H       
  40 H40           -0.0510    -2.5653    -0.9544 H       
  41 H41            0.7294    -4.8976    -1.0017 H       
  42 H42            2.9604    -5.4706    -0.1381 H       
  43 H43            4.4214    -3.7176     0.7808 H       
@<TRIPOS>BOND
   1    1    2 1
   2    1    3 2
   3    2   13 1
   4    2    5 1
   5    3    4 1
   6    3    7 1
   7    4    5 2
   8    4   25 1
   9    5    6 1
  10    6   21 ar
  11    6   18 ar
  12    7    8 ar
  13    7   12 ar
  14    8    9 ar
  15    9   10 ar
  16    9   20 1
  17   10   11 ar
  18   10   19 1
  19   11   12 ar
  20   11   26 1
  21   12   27 1
  22   13   14 1
  23   13   28 1
  24   13   29 1
  25   14   15 1
  26   14   16 2
  27   15   17 1
  28   17   30 1
  29   17   31 1
  30   17   32 1
  31   18   24 ar
  32   18   33 1
  33   19   34 1
  34   19   35 1
  35   19   36 1
  36   20   37 1
  37   20   38 1
  38   20   39 1
  39   21   22 ar
  40   21   40 1
  41   22   23 ar
  42   22   41 1
  43   23   24 ar
  44   23   42 1
  45   24   43 1

#	End of record

