#	Name: ASD01148136
#	Creating user name:	WinNT
#	Creation time:	15. 06. 2019 19:02

#	Modifying user name:	WinNT
#	Modification time:	15. 06. 2019 19:02

#	Program:	/corina/corina34_cracker 3.40 0067  02.08.2006

@<TRIPOS>MOLECULE
ASD01148136
  57   61    0    0    0
SMALL
NO_CHARGES


@<TRIPOS>ATOM
   1 C1            -0.0178     1.3409     0.0755 C.ar    
   2 C2            -0.0093    -0.0504     0.0205 C.ar    
   3 N3            -1.1268    -0.7446    -0.0093 N.ar    
   4 C4            -2.3171    -0.1578     0.0119 C.ar    
   5 C5            -2.4023     1.2446     0.0677 C.ar    
   6 C6            -1.2352     2.0094     0.1053 C.ar    
   7 N7            -3.4660    -0.9162    -0.0210 N.pl3   
   8 C8            -4.6933    -0.3796    -0.0023 C.2     
   9 C9            -4.9015     0.9827     0.0516 C.2     
  10 C10           -3.7331     1.8770     0.0905 C.2     
  11 C11           -6.2665     1.5320     0.0701 C.2     
  12 N12           -6.9940     1.4914     1.2039 N.am    
  13 C13           -6.4836     0.8161     2.4076 C.3     
  14 C14           -8.3195     2.1262     1.2765 C.3     
  15 C15           -8.3595     3.0210     2.5206 C.3     
  16 O16           -7.9570     2.2591     3.6614 O.3     
  17 C17           -6.6167     1.7773     3.5943 C.3     
  18 O18           -6.7382     2.0228    -0.9380 O.2     
  19 O19           -3.8607     3.0880     0.1389 O.2     
  20 N20            1.1842     2.0560     0.1063 N.pl3   
  21 C21            2.4627     1.3412     0.0807 C.3     
  22 C22            3.5811     2.2378    -0.4917 C.3     
  23 C23            4.8248     1.8652     0.2866 C.ar    
  24 C24            4.4699     1.1892     1.4388 C.ar    
  25 C25            2.9635     1.0611     1.5135 C.3     
  26 C26            6.1612     2.0996     0.0089 C.ar    
  27 C27            7.1394     1.6598     0.8789 C.ar    
  28 C28            6.7844     0.9836     2.0313 C.ar    
  29 C29            5.4523     0.7492     2.3102 C.ar    
  30 C30           -3.2998    -2.9404     1.3415 C.3     
  31 C31           -3.3405    -2.3746    -0.0795 C.3     
  32 H32            0.9363    -0.5718     0.0015 H       
  33 H33           -1.2773     3.0878     0.1483 H       
  34 H34           -5.5498    -1.0369    -0.0309 H       
  35 H35           -7.0664    -0.0851     2.5979 H       
  36 H36           -5.4357     0.5527     2.2643 H       
  37 H37           -8.4867     2.7300     0.3846 H       
  38 H38           -9.0903     1.3592     1.3511 H       
  39 H39           -7.6794     3.8621     2.3862 H       
  40 H40           -9.3735     3.3919     2.6699 H       
  41 H41           -6.3737     1.2475     4.5154 H       
  42 H42           -5.9339     2.6171     3.4654 H       
  43 H43            1.1710     3.0252     0.1446 H       
  44 H44            2.3766     0.4169    -0.4906 H       
  45 H45            3.7237     2.0335    -1.5529 H       
  46 H46            3.3392     3.2893    -0.3373 H       
  47 H47            2.5554     1.7961     2.2073 H       
  48 H48            2.6844     0.0535     1.8215 H       
  49 H49            6.4393     2.6278    -0.8911 H       
  50 H50            8.1807     1.8436     0.6590 H       
  51 H51            7.5481     0.6388     2.7127 H       
  52 H52            5.1758     0.2209     3.2107 H       
  53 H53           -4.2187    -2.6754     1.8645 H       
  54 H54           -3.2064    -4.0255     1.2980 H       
  55 H55           -2.4453    -2.5232     1.8743 H       
  56 H56           -4.1951    -2.7917    -0.6123 H       
  57 H57           -2.4216    -2.6395    -0.6025 H       
@<TRIPOS>BOND
   1    1    2 ar
   2    1   20 1
   3    1    6 ar
   4    2    3 ar
   5    2   32 1
   6    3    4 ar
   7    4    5 ar
   8    4    7 1
   9    5    6 ar
  10    5   10 1
  11    6   33 1
  12    7    8 1
  13    7   31 1
  14    8    9 2
  15    8   34 1
  16    9   10 1
  17    9   11 1
  18   10   19 2
  19   11   12 am
  20   11   18 2
  21   12   13 1
  22   12   14 1
  23   13   17 1
  24   13   35 1
  25   13   36 1
  26   14   15 1
  27   14   37 1
  28   14   38 1
  29   15   16 1
  30   15   39 1
  31   15   40 1
  32   16   17 1
  33   17   41 1
  34   17   42 1
  35   20   21 1
  36   20   43 1
  37   21   22 1
  38   21   25 1
  39   21   44 1
  40   22   23 1
  41   22   45 1
  42   22   46 1
  43   23   24 ar
  44   23   26 ar
  45   24   25 1
  46   24   29 ar
  47   25   47 1
  48   25   48 1
  49   26   27 ar
  50   26   49 1
  51   27   28 ar
  52   27   50 1
  53   28   29 ar
  54   28   51 1
  55   29   52 1
  56   30   31 1
  57   30   53 1
  58   30   54 1
  59   30   55 1
  60   31   56 1
  61   31   57 1

#	End of record

