#	Name: ASD01916767
#	Creating user name:	WinNT
#	Creation time:	15. 06. 2019 20:08

#	Modifying user name:	WinNT
#	Modification time:	15. 06. 2019 20:08

#	Program:	/corina/corina34_cracker 3.40 0067  02.08.2006

@<TRIPOS>MOLECULE
ASD01916767
  63   67    0    0    0
SMALL
NO_CHARGES


@<TRIPOS>ATOM
   1 C1            -0.0041     1.3541     0.1624 C.ar    
   2 C2             0.0269    -0.0083     0.4275 C.ar    
   3 C3             1.2428    -0.6619     0.5751 C.ar    
   4 C4             2.4236     0.0409     0.4587 C.ar    
   5 C5             2.3956     1.4086     0.1922 C.ar    
   6 C6             1.1735     2.0620     0.0445 C.ar    
   7 C7             3.6644     2.1677     0.0669 C.2     
   8 N8             4.8930     1.6533     0.1881 N.2     
   9 N9             3.7633     3.4550    -0.1871 N.2     
  10 N10            5.1335     3.7606    -0.2202 N.pl3   
  11 C11            5.7899     2.6018     0.0196 C.2     
  12 C12            7.2586     2.4311     0.0824 C.ar    
  13 C13            5.7337     5.0736    -0.4691 C.3     
  14 C14            5.8627     5.8219     0.8326 C.2     
  15 O15            5.4899     5.3090     1.8664 O.2     
  16 N16            6.3922     7.0612     0.8478 N.am    
  17 C17            6.5272     7.8090     2.1071 C.3     
  18 C18            7.9698     8.3129     2.2218 C.3     
  19 N19            8.3192     9.0675     1.0108 N.3     
  20 C20            8.2803     8.2098    -0.1812 C.3     
  21 C21            6.8561     7.6993    -0.3935 C.3     
  22 C22            9.5609     9.6778     1.1450 C.ar    
  23 N23           10.2484     9.5270     2.2667 N.ar    
  24 C24           10.0727    10.4369     0.0978 C.ar    
  25 C25           11.4302    10.0891     2.4347 C.ar    
  26 C26           11.9953    10.8607     1.4389 C.ar    
  27 C27           11.3096    11.0388     0.2449 C.ar    
  28 C28            8.0830     3.5344     0.3037 C.ar    
  29 O29           -1.1349    -0.7032     0.5431 O.3     
  30 C30           -1.0298    -2.1019     0.8164 C.3     
  31 C31            9.4516     3.3688     0.3612 C.ar    
  32 C32           10.0066     2.1119     0.1993 C.ar    
  33 C33            9.1943     1.0138    -0.0205 C.ar    
  34 C34            7.8239     1.1654    -0.0738 C.ar    
  35 C35           11.8965    11.8744    -0.8634 C.3     
  36 H36           -0.9514     1.8592     0.0440 H       
  37 H37            1.2639    -1.7218     0.7816 H       
  38 H38            3.3692    -0.4679     0.5744 H       
  39 H39            1.1487     3.1217    -0.1625 H       
  40 H40            6.7208     4.9436    -0.9128 H       
  41 H41            5.0999     5.6392    -1.1522 H       
  42 H42            5.8423     8.6569     2.1047 H       
  43 H43            6.3003     7.1538     2.9482 H       
  44 H44            8.0604     8.9614     3.0932 H       
  45 H45            8.6445     7.4635     2.3283 H       
  46 H46            8.5961     8.7836    -1.0526 H       
  47 H47            8.9507     7.3618    -0.0412 H       
  48 H48            6.8447     6.9734    -1.2066 H       
  49 H49            6.1998     8.5351    -0.6359 H       
  50 H50            9.5121    10.5545    -0.8178 H       
  51 H51           11.9622     9.9441     3.3633 H       
  52 H52           12.9630    11.3172     1.5856 H       
  53 H53            7.6510     4.5162     0.4295 H       
  54 H54           -0.4762    -2.5884     0.0134 H       
  55 H55           -0.5052    -2.2492     1.7605 H       
  56 H56           -2.0278    -2.5349     0.8839 H       
  57 H57           10.0910     4.2221     0.5325 H       
  58 H58           11.0784     1.9874     0.2444 H       
  59 H59            9.6335     0.0352    -0.1464 H       
  60 H60            7.1908     0.3075    -0.2455 H       
  61 H61           12.4954    11.2411    -1.5178 H       
  62 H62           11.0916    12.3325    -1.4382 H       
  63 H63           12.5269    12.6540    -0.4358 H       
@<TRIPOS>BOND
   1    1    2 ar
   2    1    6 ar
   3    1   36 1
   4    2    3 ar
   5    2   29 1
   6    3    4 ar
   7    3   37 1
   8    4    5 ar
   9    4   38 1
  10    5    6 ar
  11    5    7 1
  12    6   39 1
  13    7    8 1
  14    7    9 2
  15    8   11 2
  16    9   10 1
  17   10   11 1
  18   10   13 1
  19   11   12 1
  20   12   28 ar
  21   12   34 ar
  22   13   14 1
  23   13   40 1
  24   13   41 1
  25   14   15 2
  26   14   16 am
  27   16   17 1
  28   16   21 1
  29   17   18 1
  30   17   42 1
  31   17   43 1
  32   18   19 1
  33   18   44 1
  34   18   45 1
  35   19   20 1
  36   19   22 1
  37   20   21 1
  38   20   46 1
  39   20   47 1
  40   21   48 1
  41   21   49 1
  42   22   23 ar
  43   22   24 ar
  44   23   25 ar
  45   24   27 ar
  46   24   50 1
  47   25   26 ar
  48   25   51 1
  49   26   27 ar
  50   26   52 1
  51   27   35 1
  52   28   31 ar
  53   28   53 1
  54   29   30 1
  55   30   54 1
  56   30   55 1
  57   30   56 1
  58   31   32 ar
  59   31   57 1
  60   32   33 ar
  61   32   58 1
  62   33   34 ar
  63   33   59 1
  64   34   60 1
  65   35   61 1
  66   35   62 1
  67   35   63 1

#	End of record

