#	Name: ASD01913645
#	Creating user name:	WinNT
#	Creation time:	15. 06. 2019 20:02

#	Modifying user name:	WinNT
#	Modification time:	15. 06. 2019 20:02

#	Program:	/corina/corina34_cracker 3.40 0067  02.08.2006

@<TRIPOS>MOLECULE
ASD01913645
  38   40    0    0    0
SMALL
NO_CHARGES


@<TRIPOS>ATOM
   1 C1            -0.0053     1.3557     0.0125 C.ar    
   2 C2             0.0166    -0.0287    -0.0004 C.ar    
   3 C3             1.2269    -0.7007    -0.0206 C.ar    
   4 C4             2.4117     0.0107    -0.0278 C.ar    
   5 C5             2.3887     1.3929    -0.0149 C.ar    
   6 C6             1.1808     2.0650     0.0052 C.ar    
   7 C7             3.6813     2.1676    -0.0223 C.3     
   8 O8             4.0748     2.4247    -1.3718 O.3     
   9 C9             5.2250     3.1169    -1.5559 C.ar    
  10 N10            5.9212     3.5173    -0.5029 N.ar    
  11 C11            7.0445     4.1925    -0.6329 C.ar    
  12 C12            7.5384     4.5085    -1.8993 C.ar    
  13 C13            6.8205     4.0962    -3.0318 C.ar    
  14 C14            5.6604     3.3915    -2.8486 C.ar    
  15 C15            8.7969     5.2654    -2.0449 C.2     
  16 N16            9.4783     5.6569    -0.9500 N.am    
  17 O17            9.2189     5.5358    -3.1526 O.2     
  18 C18           10.7189     6.2761    -1.0861 C.ar    
  19 N19           11.2669     6.3901    -2.2856 N.ar    
  20 C20           12.4397     6.9693    -2.4583 C.ar    
  21 C21           13.1417     7.4807    -1.3851 C.ar    
  22 C22           12.6016     7.3814    -0.1099 C.ar    
  23 C23           11.3676     6.7738     0.0388 C.ar    
  24 F24           -1.1422    -0.7231     0.0071 F       
  25 H25           -0.9488     1.8810     0.0237 H       
  26 H26            1.2452    -1.7805    -0.0303 H       
  27 H27            3.3559    -0.5133    -0.0431 H       
  28 H28            1.1640     3.1448     0.0153 H       
  29 H29            3.5413     3.1130     0.5018 H       
  30 H30            4.4561     1.5863     0.4776 H       
  31 H31            7.5873     4.5042     0.2472 H       
  32 H32            7.1767     4.3254    -4.0253 H       
  33 H33            5.0845     3.0593    -3.6997 H       
  34 H34            9.1050     5.5076    -0.0673 H       
  35 H35           12.8560     7.0439    -3.4520 H       
  36 H36           14.1013     7.9528    -1.5359 H       
  37 H37           13.1308     7.7734     0.7461 H       
  38 H38           10.9181     6.6796     1.0163 H       
@<TRIPOS>BOND
   1    1    2 ar
   2    1    6 ar
   3    1   25 1
   4    2    3 ar
   5    2   24 1
   6    3    4 ar
   7    3   26 1
   8    4    5 ar
   9    4   27 1
  10    5    6 ar
  11    5    7 1
  12    6   28 1
  13    7    8 1
  14    7   29 1
  15    7   30 1
  16    8    9 1
  17    9   10 ar
  18    9   14 ar
  19   10   11 ar
  20   11   12 ar
  21   11   31 1
  22   12   13 ar
  23   12   15 1
  24   13   14 ar
  25   13   32 1
  26   14   33 1
  27   15   16 am
  28   15   17 2
  29   16   18 1
  30   16   34 1
  31   18   19 ar
  32   18   23 ar
  33   19   20 ar
  34   20   21 ar
  35   20   35 1
  36   21   22 ar
  37   21   36 1
  38   22   23 ar
  39   22   37 1
  40   23   38 1

#	End of record

