#	Name: ASD08150023
#	Creating user name:	WinNT
#	Creation time:	15. 06. 2019 21:15

#	Modifying user name:	WinNT
#	Modification time:	15. 06. 2019 21:15

#	Program:	/corina/corina34_cracker 3.40 0067  02.08.2006

@<TRIPOS>MOLECULE
ASD08150023
  42   46    0    0    0
SMALL
NO_CHARGES


@<TRIPOS>ATOM
   1 N1             0.0761     1.3320    -0.4185 N.2     
   2 C2             0.0831     0.0362    -0.5001 C.2     
   3 N3             1.1433    -0.7306    -0.1270 N.am    
   4 C4             2.2695    -0.1588     0.3592 C.2     
   5 C5             2.2934     1.3073     0.4637 C.ar    
   6 C6             3.4044     1.9932     0.9508 C.ar    
   7 C7             3.3734     3.3683     1.0270 C.ar    
   8 C8             2.2467     4.0730     0.6232 C.ar    
   9 C9             1.1388     3.4145     0.1392 C.ar    
  10 C10            1.1456     2.0208     0.0526 C.ar    
  11 O11            3.2254    -0.8325     0.6972 O.2     
  12 C12           -1.1455    -0.6534    -1.0348 C.3     
  13 S13           -2.3954     0.5847    -1.4601 S.3     
  14 N14           -5.4025     1.3204    -2.6207 N.2     
  15 C15           -6.6078     1.2575    -3.1076 C.2     
  16 N16           -6.9547    -0.0427    -3.3254 N.pl3   
  17 C17           -5.8905    -0.8212    -2.9461 C.ar    
  18 N18           -5.6428    -2.1270    -2.9264 N.ar    
  19 C19           -4.4874    -2.5846    -2.4914 C.ar    
  20 N20           -3.5272    -1.7885    -2.0589 N.ar    
  21 C21           -3.6836    -0.4679    -2.0408 C.ar    
  22 C22           -4.9009     0.0685    -2.4955 C.ar    
  23 C23            1.0683    -2.1241    -0.2468 C.ar    
  24 C24            0.5835    -2.8877     0.8069 C.ar    
  25 C25            0.5108    -4.2625     0.6855 C.ar    
  26 C26            0.9212    -4.8776    -0.4847 C.ar    
  27 C27            1.4041    -4.1191    -1.5347 C.ar    
  28 C28            1.4732    -2.7441    -1.4213 C.ar    
  29 Cl29          -0.0950    -5.2187     2.0017 Cl      
  30 H30            4.2832     1.4506     1.2665 H       
  31 H31            4.2326     3.9031     1.4043 H       
  32 H32            2.2395     5.1509     0.6902 H       
  33 H33            0.2683     3.9732    -0.1714 H       
  34 H34           -0.8829    -1.2252    -1.9248 H       
  35 H35           -1.5441    -1.3260    -0.2753 H       
  36 H36           -7.2400     2.1097    -3.3093 H       
  37 H37           -7.7989    -0.3594    -3.6830 H       
  38 H38           -4.3189    -3.6513    -2.4884 H       
  39 H39            0.2639    -2.4079     1.7202 H       
  40 H40            0.8643    -5.9521    -0.5774 H       
  41 H41            1.7239    -4.6018    -2.4464 H       
  42 H42            1.8461    -2.1521    -2.2440 H       
@<TRIPOS>BOND
   1    1    2 2
   2    1   10 1
   3    2    3 1
   4    2   12 1
   5    3    4 am
   6    3   23 1
   7    4    5 1
   8    4   11 2
   9    5    6 ar
  10    5   10 ar
  11    6    7 ar
  12    6   30 1
  13    7    8 ar
  14    7   31 1
  15    8    9 ar
  16    8   32 1
  17    9   10 ar
  18    9   33 1
  19   12   13 1
  20   12   34 1
  21   12   35 1
  22   13   21 1
  23   14   15 2
  24   14   22 1
  25   15   16 1
  26   15   36 1
  27   16   17 1
  28   16   37 1
  29   17   18 ar
  30   17   22 ar
  31   18   19 ar
  32   19   20 ar
  33   19   38 1
  34   20   21 ar
  35   21   22 ar
  36   23   24 ar
  37   23   28 ar
  38   24   25 ar
  39   24   39 1
  40   25   26 ar
  41   25   29 1
  42   26   27 ar
  43   26   40 1
  44   27   28 ar
  45   27   41 1
  46   28   42 1

#	End of record

