#	Name: ASD03200002
#	Creating user name:	WinNT
#	Creation time:	15. 06. 2019 20:33

#	Modifying user name:	WinNT
#	Modification time:	15. 06. 2019 20:33

#	Program:	/corina/corina34_cracker 3.40 0067  02.08.2006

@<TRIPOS>MOLECULE
ASD03200002
  50   53    0    0    0
SMALL
NO_CHARGES


@<TRIPOS>ATOM
   1 C1             0.9695    -1.0557    -0.1617 C.3     
   2 N2            -0.0202     0.0169     0.0014 N.3     
   3 C3             0.3177     0.8827     1.1383 C.3     
   4 C4             1.6712     1.5513     0.8875 C.3     
   5 C5             2.7425     0.4721     0.7078 C.3     
   6 C6             2.3425    -0.4450    -0.4513 C.3     
   7 C7            -1.3056    -0.5056     0.1360 C.ar    
   8 C8            -2.0104    -0.3715     1.3296 C.ar    
   9 C9            -3.2810    -0.9023     1.4232 C.ar    
  10 N10           -3.8315    -1.5307     0.4018 N.ar    
  11 C11           -3.2008    -1.6813    -0.7479 C.ar    
  12 C12           -1.9246    -1.1740    -0.9271 C.ar    
  13 N13           -1.2592    -1.3365    -2.1497 N.am    
  14 C14           -1.4436    -2.4585    -2.8733 C.2     
  15 C15           -0.6773    -2.6707    -4.1038 C.2     
  16 O16           -2.2470    -3.2957    -2.5044 O.2     
  17 C17           -0.8923    -3.7437    -4.9406 C.2     
  18 S18            0.2329    -3.6161    -6.2903 S.3     
  19 C19            0.8930    -2.1326    -5.6116 C.2     
  20 N20            0.2821    -1.8383    -4.5094 N.2     
  21 C21            1.9819    -1.3360    -6.2152 C.ar    
  22 C22            2.6388    -1.7980    -7.3562 C.ar    
  23 C23            3.6546    -1.0498    -7.9149 C.ar    
  24 C24            4.0234     0.1568    -7.3472 C.ar    
  25 C25            3.3778     0.6225    -6.2160 C.ar    
  26 C26            2.3548    -0.1134    -5.6490 C.ar    
  27 N27            2.0186     2.4009     2.0344 N.3     
  28 N28           -1.8252    -4.7439    -4.7539 N.pl3   
  29 F29            1.7244     0.3418    -4.5442 F       
  30 H30            1.0200    -1.6454     0.7536 H       
  31 H31            0.6753    -1.6981    -0.9917 H       
  32 H32           -0.4499     1.6482     1.2525 H       
  33 H33            0.3713     0.2839     2.0475 H       
  34 H34            1.6144     2.1613    -0.0140 H       
  35 H35            3.7002     0.9429     0.4859 H       
  36 H36            2.8269    -0.1135     1.6233 H       
  37 H37            3.0798    -1.2408    -0.5568 H       
  38 H38            2.2962     0.1336    -1.3739 H       
  39 H39           -1.5683     0.1408     2.1713 H       
  40 H40           -3.8328    -0.8021     2.3462 H       
  41 H41           -3.6869    -2.2027    -1.5592 H       
  42 H42           -0.6659    -0.6415    -2.4751 H       
  43 H43            2.3530    -2.7397    -7.8010 H       
  44 H44            4.1635    -1.4072    -8.7979 H       
  45 H45            4.8196     0.7375    -7.7891 H       
  46 H46            3.6709     1.5651    -5.7777 H       
  47 H47            2.9439     2.7893     1.9296 H       
  48 H48            1.3332     3.1298     2.1652 H       
  49 H49           -2.4032    -4.7287    -3.9751 H       
  50 H50           -1.9026    -5.4619    -5.4015 H       
@<TRIPOS>BOND
   1    1    2 1
   2    1    6 1
   3    1   30 1
   4    1   31 1
   5    2    3 1
   6    2    7 1
   7    3    4 1
   8    3   32 1
   9    3   33 1
  10    4    5 1
  11    4   27 1
  12    4   34 1
  13    5    6 1
  14    5   35 1
  15    5   36 1
  16    6   37 1
  17    6   38 1
  18    7    8 ar
  19    7   12 ar
  20    8    9 ar
  21    8   39 1
  22    9   10 ar
  23    9   40 1
  24   10   11 ar
  25   11   12 ar
  26   11   41 1
  27   12   13 1
  28   13   14 am
  29   13   42 1
  30   14   15 1
  31   14   16 2
  32   15   17 2
  33   15   20 1
  34   17   18 1
  35   17   28 1
  36   18   19 1
  37   19   20 2
  38   19   21 1
  39   21   22 ar
  40   21   26 ar
  41   22   23 ar
  42   22   43 1
  43   23   24 ar
  44   23   44 1
  45   24   25 ar
  46   24   45 1
  47   25   26 ar
  48   25   46 1
  49   26   29 1
  50   27   47 1
  51   27   48 1
  52   28   49 1
  53   28   50 1

#	End of record

