#	Name: ASD03081355
#	Creating user name:	WinNT
#	Creation time:	15. 06. 2019 20:27

#	Modifying user name:	WinNT
#	Modification time:	15. 06. 2019 20:27

#	Program:	/corina/corina34_cracker 3.40 0067  02.08.2006

@<TRIPOS>MOLECULE
ASD03081355
  24   26    0    0    0
SMALL
NO_CHARGES


@<TRIPOS>ATOM
   1 O1            -0.0162     1.3444     0.0094 O.3     
   2 C2             0.0021    -0.0041     0.0020 C.2     
   3 N3             1.2606    -0.3805    -0.0120 N.2     
   4 N4             2.0177     0.6598    -0.0137 N.2     
   5 C5             1.2725     1.7416    -0.0007 C.2     
   6 C6             2.6361     5.6676     0.0038 C.ar    
   7 N7             3.5167     4.6862    -0.0085 N.ar    
   8 C8             3.1275     3.4233    -0.0103 C.ar    
   9 C9             1.7573     3.1373     0.0012 C.ar    
  10 C10            0.8594     4.2111     0.0140 C.ar    
  11 N11            1.3368     5.4433     0.0148 N.ar    
  12 C12           -2.4679    -0.3631     0.0237 C.ar    
  13 C13           -1.1769    -0.8945     0.0085 C.ar    
  14 C14           -1.0185    -2.2856    -0.0010 C.ar    
  15 C15           -2.1550    -3.0751     0.0052 C.ar    
  16 C16           -3.3991    -2.4709     0.0204 C.ar    
  17 N17           -3.5184    -1.1569     0.0290 N.ar    
  18 H18            2.9905     6.6878     0.0094 H       
  19 H19            3.8547     2.6250    -0.0207 H       
  20 H20           -0.2062     4.0355     0.0231 H       
  21 H21           -2.6059     0.7079     0.0356 H       
  22 H22           -0.0347    -2.7310    -0.0131 H       
  23 H23           -2.0714    -4.1518    -0.0021 H       
  24 H24           -4.2876    -3.0848     0.0248 H       
@<TRIPOS>BOND
   1    1    2 1
   2    1    5 1
   3    2    3 2
   4    2   13 1
   5    3    4 1
   6    4    5 2
   7    5    9 1
   8    6    7 ar
   9    6   11 ar
  10    6   18 1
  11    7    8 ar
  12    8    9 ar
  13    8   19 1
  14    9   10 ar
  15   10   11 ar
  16   10   20 1
  17   12   13 ar
  18   12   17 ar
  19   12   21 1
  20   13   14 ar
  21   14   15 ar
  22   14   22 1
  23   15   16 ar
  24   15   23 1
  25   16   17 ar
  26   16   24 1

#	End of record

