#	Name: ASD01913134
#	Creating user name:	WinNT
#	Creation time:	15. 06. 2019 20:01

#	Modifying user name:	WinNT
#	Modification time:	15. 06. 2019 20:01

#	Program:	/corina/corina34_cracker 3.40 0067  02.08.2006

@<TRIPOS>MOLECULE
ASD01913134
  49   51    0    0    0
SMALL
NO_CHARGES


@<TRIPOS>ATOM
   1 C1             0.0404     1.1750     0.0603 C.ar    
   2 C2             0.0301    -0.2094     0.0829 C.ar    
   3 C3            -1.1711    -0.8917     0.0926 C.ar    
   4 C4            -2.3671    -0.1894     0.0797 C.ar    
   5 C5            -2.3553     1.1975     0.0571 C.ar    
   6 C6            -1.1527     1.8774     0.0528 C.ar    
   7 F7             1.2157     1.8410     0.0513 F       
   8 O8            -3.5499    -0.8596     0.0888 O.3     
   9 C9            -4.7421    -0.0719     0.0746 C.3     
  10 C10           -5.9628    -0.9941     0.0877 C.3     
  11 C11           -7.2201    -0.1634     0.0727 C.2     
  12 N12           -8.4258    -0.7656     0.0806 N.am    
  13 C13           -9.6652     0.0261     0.0663 C.3     
  14 C14          -10.5643    -0.4973    -1.0588 C.3     
  15 N15          -10.7538    -1.9450    -0.8964 N.3     
  16 C16           -9.4805    -2.6666    -1.0227 C.3     
  17 C17           -8.5371    -2.2321     0.0978 C.3     
  18 O18           -7.1470     1.0470     0.0534 O.2     
  19 C19          -11.6926    -2.4290    -1.8005 C.ar    
  20 C20          -13.0375    -2.0408    -1.6967 C.ar    
  21 C21          -13.9707    -2.5348    -2.6118 C.ar    
  22 C22          -13.5668    -3.3974    -3.6076 C.ar    
  23 C23          -12.2383    -3.7786    -3.7071 C.ar    
  24 C24          -11.3036    -3.2948    -2.8143 C.ar    
  25 C25          -13.4506    -1.1444    -0.6592 C.1     
  26 N26          -13.7783    -0.4333     0.1638 N.1     
  27 C27          -14.5752    -3.9293    -4.5931 C.3     
  28 F28          -14.6525    -3.0672    -5.6923 F       
  29 F29          -14.1803    -5.2003    -5.0242 F       
  30 F30          -15.8287    -4.0141    -3.9778 F       
  31 H31            0.9615    -0.7560     0.0925 H       
  32 H32           -1.1789    -1.9716     0.1098 H       
  33 H33           -3.2859     1.7455     0.0467 H       
  34 H34           -1.1432     2.9572     0.0355 H       
  35 H35           -4.7631     0.5712     0.9544 H       
  36 H36           -4.7607     0.5428    -0.8253 H       
  37 H37           -5.9418    -1.6373    -0.7921 H       
  38 H38           -5.9442    -1.6088     0.9876 H       
  39 H39          -10.1774    -0.0781     1.0228 H       
  40 H40           -9.4277     1.0748    -0.1127 H       
  41 H41          -11.5314     0.0034    -1.0144 H       
  42 H42          -10.0949    -0.2978    -2.0221 H       
  43 H43           -9.6617    -3.7391    -0.9519 H       
  44 H44           -9.0262    -2.4368    -1.9865 H       
  45 H45           -7.5544    -2.6773    -0.0578 H       
  46 H46           -8.9389    -2.5517     1.0593 H       
  47 H47          -15.0075    -2.2411    -2.5386 H       
  48 H48          -11.9316    -4.4552    -4.4911 H       
  49 H49          -10.2701    -3.5969    -2.8987 H       
@<TRIPOS>BOND
   1    1    2 ar
   2    1    7 1
   3    1    6 ar
   4    2    3 ar
   5    2   31 1
   6    3    4 ar
   7    3   32 1
   8    4    5 ar
   9    4    8 1
  10    5    6 ar
  11    5   33 1
  12    6   34 1
  13    8    9 1
  14    9   10 1
  15    9   35 1
  16    9   36 1
  17   10   11 1
  18   10   37 1
  19   10   38 1
  20   11   12 am
  21   11   18 2
  22   12   13 1
  23   12   17 1
  24   13   14 1
  25   13   39 1
  26   13   40 1
  27   14   15 1
  28   14   41 1
  29   14   42 1
  30   15   16 1
  31   15   19 1
  32   16   17 1
  33   16   43 1
  34   16   44 1
  35   17   45 1
  36   17   46 1
  37   19   20 ar
  38   19   24 ar
  39   20   21 ar
  40   20   25 1
  41   21   22 ar
  42   21   47 1
  43   22   23 ar
  44   22   27 1
  45   23   24 ar
  46   23   48 1
  47   24   49 1
  48   25   26 3
  49   27   28 1
  50   27   29 1
  51   27   30 1

#	End of record

