#	Name: ASD05310003
#	Creating user name:	WinNT
#	Creation time:	15. 06. 2019 20:58

#	Modifying user name:	WinNT
#	Modification time:	15. 06. 2019 20:58

#	Program:	/corina/corina34_cracker 3.40 0067  02.08.2006

@<TRIPOS>MOLECULE
ASD05310003
  41   43    0    0    0
SMALL
NO_CHARGES


@<TRIPOS>ATOM
   1 C1            -2.4962     1.3212    -0.1235 C.ar    
   2 C2            -2.3774    -0.0342     0.2491 C.ar    
   3 C3            -3.4492    -0.6690     0.8406 C.ar    
   4 C4            -4.6390     0.0144     1.0706 C.ar    
   5 C5            -4.7793     1.3227     0.7205 C.ar    
   6 C6            -3.7119     2.0078     0.1152 C.ar    
   7 N7            -3.8294     3.2927    -0.2366 N.ar    
   8 C8            -2.8379     3.9380    -0.8022 C.ar    
   9 C9            -1.6175     3.3209    -1.0646 C.ar    
  10 C10           -1.4290     2.0107    -0.7237 C.ar    
  11 N11           -1.1881    -0.7254     0.0212 N.pl3   
  12 C12           -1.1596    -2.0980     0.1214 C.2     
  13 N13           -2.2662    -2.7610     0.3005 N.2     
  14 N14            0.0413    -2.7715     0.0322 N.pl3   
  15 C15           -2.2536    -4.2258     0.2833 C.3     
  16 C16           -3.0706    -4.7216    -0.8819 C.ar    
  17 C17           -2.8515    -4.7563     1.5879 C.3     
  18 C18           -4.5697    -5.6315    -3.0192 C.ar    
  19 C19           -5.0040    -4.5450    -2.2831 C.ar    
  20 C20           -4.2545    -4.0902    -1.2143 C.ar    
  21 C21           -2.6332    -5.8043    -1.6218 C.ar    
  22 C22           -3.3827    -6.2591    -2.6906 C.ar    
  23 C23            1.2016    -2.0781    -0.0620 C.1     
  24 N24            2.1743    -1.4967    -0.1409 N.1     
  25 H25           -3.3644    -1.7067     1.1277 H       
  26 H26           -5.4662    -0.5021     1.5348 H       
  27 H27           -5.7117     1.8344     0.9080 H       
  28 H28           -2.9713     4.9752    -1.0719 H       
  29 H29           -0.8193     3.8782    -1.5323 H       
  30 H30           -0.4874     1.5176    -0.9149 H       
  31 H31           -0.3808    -0.2390    -0.2081 H       
  32 H32            0.0549    -3.7414     0.0368 H       
  33 H33           -1.2272    -4.5791     0.1839 H       
  34 H34           -3.8778    -4.4030     1.6873 H       
  35 H35           -2.8421    -5.8462     1.5751 H       
  36 H36           -2.2606    -4.3977     2.4307 H       
  37 H37           -5.1553    -5.9868    -3.8543 H       
  38 H38           -5.9314    -4.0547    -2.5399 H       
  39 H39           -4.5942    -3.2418    -0.6387 H       
  40 H40           -1.7058    -6.2946    -1.3650 H       
  41 H41           -3.0435    -7.1080    -3.2656 H       
@<TRIPOS>BOND
   1    1    2 ar
   2    1    6 ar
   3    1   10 ar
   4    2    3 ar
   5    2   11 1
   6    3    4 ar
   7    3   25 1
   8    4    5 ar
   9    4   26 1
  10    5    6 ar
  11    5   27 1
  12    6    7 ar
  13    7    8 ar
  14    8    9 ar
  15    8   28 1
  16    9   10 ar
  17    9   29 1
  18   10   30 1
  19   11   12 1
  20   11   31 1
  21   12   13 2
  22   12   14 1
  23   13   15 1
  24   14   23 1
  25   14   32 1
  26   15   16 1
  27   15   17 1
  28   15   33 1
  29   16   21 ar
  30   16   20 ar
  31   17   34 1
  32   17   35 1
  33   17   36 1
  34   18   19 ar
  35   18   22 ar
  36   18   37 1
  37   19   20 ar
  38   19   38 1
  39   20   39 1
  40   21   22 ar
  41   21   40 1
  42   22   41 1
  43   23   24 3

#	End of record

