#	Name: ASD02198550
#	Creating user name:	WinNT
#	Creation time:	15. 06. 2019 20:19

#	Modifying user name:	WinNT
#	Modification time:	15. 06. 2019 20:19

#	Program:	/corina/corina34_cracker 3.40 0067  02.08.2006

@<TRIPOS>MOLECULE
ASD02198550
  41   44    0    0    0
SMALL
NO_CHARGES


@<TRIPOS>ATOM
   1 C1            -0.0969     1.0550     0.1419 C.2     
   2 C2            -0.2792    -0.2912     0.2176 C.2     
   3 N3            -1.5249    -0.8216     0.2245 N.pl3   
   4 N4            -2.5917    -0.1139     0.1620 N.2     
   5 C5            -2.5585     1.1995     0.0853 C.2     
   6 C6            -1.2532     1.8762     0.0770 C.2     
   7 C7            -1.6540    -2.2103     0.3033 C.ar    
   8 C8            -2.9900    -4.1800     0.5326 C.ar    
   9 N9            -1.9067    -4.9293     0.4575 N.ar    
  10 C10           -0.7044    -4.4047     0.3157 C.ar    
  11 C11           -0.5343    -3.0376     0.2340 C.ar    
  12 C12           -3.8105     1.9804     0.0150 C.2     
  13 N13           -4.9345     1.6508    -0.6890 N.pl3   
  14 N14           -5.8807     2.6618    -0.4798 N.2     
  15 C15           -5.3625     3.5659     0.3127 C.2     
  16 C16           -4.0670     3.1749     0.6514 C.2     
  17 C17           -5.1089     0.5068    -1.4782 C.ar    
  18 C18           -4.0882     0.0774    -2.3162 C.ar    
  19 O19           -1.1671     3.0934     0.0073 O.2     
  20 C20           -6.3007    -0.2036    -1.4200 C.ar    
  21 C21           -6.4694    -1.3314    -2.1991 C.ar    
  22 C22           -5.4529    -1.7537    -3.0361 C.ar    
  23 C23           -4.2631    -1.0512    -3.0928 C.ar    
  24 C24           -2.9052    -2.8045     0.4590 C.ar    
  25 O25            1.1509     1.5961     0.1344 O.3     
  26 C26            2.2520     0.6884     0.2093 C.3     
  27 H27            0.5794    -0.9440     0.2725 H       
  28 H28           -3.9558    -4.6492     0.6486 H       
  29 H29            0.1570    -5.0535     0.2586 H       
  30 H30            0.4526    -2.6146     0.1176 H       
  31 H31           -5.8576     4.4638     0.6517 H       
  32 H32           -3.3854     3.7148     1.2919 H       
  33 H33           -3.1588     0.6256    -2.3609 H       
  34 H34           -7.0946     0.1253    -0.7659 H       
  35 H35           -7.3960    -1.8843    -2.1543 H       
  36 H36           -5.5871    -2.6362    -3.6441 H       
  37 H37           -3.4712    -1.3834    -3.7477 H       
  38 H38           -3.7959    -2.1969     0.5216 H       
  39 H39            2.1874     0.1142     1.1335 H       
  40 H40            2.2220     0.0096    -0.6430 H       
  41 H41            3.1867     1.2491     0.1945 H       
@<TRIPOS>BOND
   1    1    2 2
   2    1   25 1
   3    1    6 1
   4    2    3 1
   5    2   27 1
   6    3    4 1
   7    3    7 1
   8    4    5 2
   9    5    6 1
  10    5   12 1
  11    6   19 2
  12    7   24 ar
  13    7   11 ar
  14    8    9 ar
  15    8   24 ar
  16    8   28 1
  17    9   10 ar
  18   10   11 ar
  19   10   29 1
  20   11   30 1
  21   12   13 1
  22   12   16 2
  23   13   14 1
  24   13   17 1
  25   14   15 2
  26   15   16 1
  27   15   31 1
  28   16   32 1
  29   17   20 ar
  30   17   18 ar
  31   18   23 ar
  32   18   33 1
  33   20   21 ar
  34   20   34 1
  35   21   22 ar
  36   21   35 1
  37   22   23 ar
  38   22   36 1
  39   23   37 1
  40   24   38 1
  41   25   26 1
  42   26   39 1
  43   26   40 1
  44   26   41 1

#	End of record

