#	Name: ASD08150123
#	Creating user name:	WinNT
#	Creation time:	15. 06. 2019 21:15

#	Modifying user name:	WinNT
#	Modification time:	15. 06. 2019 21:15

#	Program:	/corina/corina34_cracker 3.40 0067  02.08.2006

@<TRIPOS>MOLECULE
ASD08150123
  45   49    0    0    0
SMALL
NO_CHARGES


@<TRIPOS>ATOM
   1 N1            -0.0155     1.2942     0.0092 N.2     
   2 C2             0.0021    -0.0041     0.0020 C.2     
   3 N3             1.1487    -0.7361    -0.0129 N.am    
   4 C4             2.3560    -0.1245    -0.0206 C.2     
   5 C5             2.3702     1.3455    -0.0129 C.ar    
   6 C6             3.5601     2.0709    -0.0203 C.ar    
   7 C7             3.5158     3.4477    -0.0130 C.ar    
   8 C8             2.2978     4.1151     0.0021 C.ar    
   9 C9             1.1111     3.4174     0.0097 C.ar    
  10 C10            1.1297     2.0210     0.0021 C.ar    
  11 O11            3.3901    -0.7667    -0.0331 O.2     
  12 C12           -1.3145    -0.7373     0.0112 C.3     
  13 S13           -2.6718     0.4600     0.0311 S.3     
  14 N14           -5.9165     1.0934     0.0666 N.2     
  15 C15           -7.2137     0.9889     0.0790 C.2     
  16 N16           -7.5749    -0.3256     0.0761 N.pl3   
  17 C17           -6.4217    -1.0688     0.0610 C.ar    
  18 N18           -6.1428    -2.3684     0.0515 N.ar    
  19 C19           -4.8947    -2.7870     0.0367 C.ar    
  20 N20           -3.8685    -1.9564     0.0300 N.ar    
  21 C21           -4.0491    -0.6389     0.0389 C.ar    
  22 C22           -5.3646    -0.1434     0.0550 C.ar    
  23 C23           -0.2018     4.1569     0.0266 C.3     
  24 F24            0.0392     5.5350     0.0321 F       
  25 F25           -0.9429     3.8176    -1.1105 F       
  26 F26           -0.9207     3.8047     1.1740 F       
  27 C27            1.0791    -2.1353    -0.0197 C.ar    
  28 C28            1.0560    -2.8374     1.1796 C.ar    
  29 C29            0.9874    -4.2176     1.1688 C.ar    
  30 C30            0.9422    -4.8995    -0.0336 C.ar    
  31 C31            0.9656    -4.2034    -1.2279 C.ar    
  32 C32            1.0274    -2.8232    -1.2242 C.ar    
  33 Cl33           1.1138    -1.9818     2.6890 Cl      
  34 H34            4.5102     1.5573    -0.0314 H       
  35 H35            4.4360     4.0130    -0.0188 H       
  36 H36            2.2815     5.1950     0.0084 H       
  37 H37           -1.3908    -1.3582    -0.8815 H       
  38 H38           -1.3731    -1.3677     0.8984 H       
  39 H39           -7.9024     1.8208     0.0899 H       
  40 H40           -8.4809    -0.6719     0.0834 H       
  41 H41           -4.7030    -3.8499     0.0297 H       
  42 H42            0.9694    -4.7642     2.1001 H       
  43 H43            0.8890    -5.9781    -0.0395 H       
  44 H44            0.9309    -4.7391    -2.1650 H       
  45 H45            1.0403    -2.2803    -2.1577 H       
@<TRIPOS>BOND
   1    1    2 2
   2    1   10 1
   3    2    3 1
   4    2   12 1
   5    3    4 am
   6    3   27 1
   7    4    5 1
   8    4   11 2
   9    5    6 ar
  10    5   10 ar
  11    6    7 ar
  12    6   34 1
  13    7    8 ar
  14    7   35 1
  15    8    9 ar
  16    8   36 1
  17    9   10 ar
  18    9   23 1
  19   12   13 1
  20   12   37 1
  21   12   38 1
  22   13   21 1
  23   14   15 2
  24   14   22 1
  25   15   16 1
  26   15   39 1
  27   16   17 1
  28   16   40 1
  29   17   18 ar
  30   17   22 ar
  31   18   19 ar
  32   19   20 ar
  33   19   41 1
  34   20   21 ar
  35   21   22 ar
  36   23   24 1
  37   23   25 1
  38   23   26 1
  39   27   28 ar
  40   27   32 ar
  41   28   29 ar
  42   28   33 1
  43   29   30 ar
  44   29   42 1
  45   30   31 ar
  46   30   43 1
  47   31   32 ar
  48   31   44 1
  49   32   45 1

#	End of record

