#	Name: ASD01913491
#	Creating user name:	WinNT
#	Creation time:	15. 06. 2019 20:01

#	Modifying user name:	WinNT
#	Modification time:	15. 06. 2019 20:01

#	Program:	/corina/corina34_cracker 3.40 0067  02.08.2006

@<TRIPOS>MOLECULE
ASD01913491
  32   34    0    0    0
SMALL
NO_CHARGES


@<TRIPOS>ATOM
   1 C1            -0.3503    -0.7048    -2.1296 C.ar    
   2 C2            -0.7958    -0.0362    -0.9939 C.ar    
   3 C3            -0.7634     1.3546    -0.9926 C.ar    
   4 N4            -0.3135     1.9873    -2.0636 N.ar    
   5 C5             0.1000     1.3178    -3.1208 C.ar    
   6 N6             0.0850     0.0006    -3.1605 N.ar    
   7 C7            -1.2355    -2.0816     0.0311 C.ar    
   8 C8            -0.0423    -2.7771     0.1680 C.ar    
   9 N9            -0.0186    -4.0944     0.1211 N.ar    
  10 C10           -1.1150    -4.8039    -0.0559 C.ar    
  11 C11           -2.3489    -4.1818    -0.2017 C.ar    
  12 C12           -2.4153    -2.7925    -0.1575 C.ar    
  13 N13           -3.5080    -4.9414    -0.3902 N.am    
  14 C14           -4.6725    -4.5412     0.1577 C.2     
  15 O15           -1.2512    -0.7239     0.0862 O.3     
  16 C16           -5.8615    -5.3943     0.0580 C.2     
  17 O17           -4.7375    -3.4720     0.7353 O.2     
  18 S18           -5.9178    -6.9576    -0.7418 S.3     
  19 C19           -7.5698    -7.1533    -0.3638 C.2     
  20 C20           -8.0331    -6.0741     0.3342 C.2     
  21 C21           -7.0738    -5.0980     0.5718 C.2     
  22 C22           -9.3872    -5.9619     0.7864 C.1     
  23 N23          -10.4614    -5.8728     1.1450 N.1     
  24 H24           -0.3556    -1.7841    -2.1674 H       
  25 H25           -1.1011     1.9097    -0.1299 H       
  26 H26            0.4613     1.8643    -3.9794 H       
  27 H27            0.8786    -2.2322     0.3145 H       
  28 H28           -1.0536    -5.8816    -0.0885 H       
  29 H29           -3.3593    -2.2795    -0.2675 H       
  30 H30           -3.4738    -5.7562    -0.9153 H       
  31 H31           -8.1664    -8.0106    -0.6386 H       
  32 H32           -7.2806    -4.1845     1.1096 H       
@<TRIPOS>BOND
   1    1    2 ar
   2    1    6 ar
   3    1   24 1
   4    2    3 ar
   5    2   15 1
   6    3    4 ar
   7    3   25 1
   8    4    5 ar
   9    5    6 ar
  10    5   26 1
  11    7    8 ar
  12    7   12 ar
  13    7   15 1
  14    8    9 ar
  15    8   27 1
  16    9   10 ar
  17   10   11 ar
  18   10   28 1
  19   11   12 ar
  20   11   13 1
  21   12   29 1
  22   13   14 am
  23   13   30 1
  24   14   16 1
  25   14   17 2
  26   16   18 1
  27   16   21 2
  28   18   19 1
  29   19   20 2
  30   19   31 1
  31   20   21 1
  32   20   22 1
  33   21   32 1
  34   22   23 3

#	End of record

