#	Name: ASD01914093
#	Creating user name:	WinNT
#	Creation time:	15. 06. 2019 20:02

#	Modifying user name:	WinNT
#	Modification time:	15. 06. 2019 20:02

#	Program:	/corina/corina34_cracker 3.40 0067  02.08.2006

@<TRIPOS>MOLECULE
ASD01914093
  46   47    0    0    0
SMALL
NO_CHARGES


@<TRIPOS>ATOM
   1 N1            -0.0158     1.3165     0.0093 N.ar    
   2 C2             0.0021    -0.0041     0.0020 C.ar    
   3 C3             2.3925     0.0202    -0.0202 C.ar    
   4 C4             2.3298     1.4116    -0.0126 C.ar    
   5 O5             3.5881    -0.6224    -0.0355 O.3     
   6 C6             1.1980    -0.6949    -0.0127 C.ar    
   7 C7             1.0956     2.0279     0.0025 C.ar    
   8 Cl8           -1.4955    -0.8821     0.0116 Cl      
   9 C9             3.5567    -2.0510    -0.0424 C.3     
  10 C10            4.9661    -2.5843    -0.0593 C.ar    
  11 N11            5.1664    -3.8883    -0.0678 N.ar    
  12 C12            6.3772    -4.4059    -0.0827 C.ar    
  13 C13            7.5018    -3.5802    -0.0894 C.ar    
  14 C14            7.3214    -2.1916    -0.0806 C.ar    
  15 C15            6.0288    -1.6984    -0.0712 C.ar    
  16 C16            8.8611    -4.1615    -0.1051 C.2     
  17 N17            9.0217    -5.4996    -0.1130 N.am    
  18 C18           10.3686    -6.0756    -0.1285 C.3     
  19 C19           10.3292    -7.4811     0.4749 C.3     
  20 O20            9.8338    -3.4325    -0.1108 O.2     
  21 C21           10.8733    -6.1537    -1.5707 C.3     
  22 C22            9.3878    -8.3630    -0.3478 C.3     
  23 C23           11.7359    -8.0826     0.4586 C.3     
  24 C24            9.8245    -7.4030     1.9171 C.3     
  25 H25            3.2353     2.0002    -0.0181 H       
  26 H26            1.2064    -1.7749    -0.0178 H       
  27 H27            1.0383     3.1064     0.0081 H       
  28 H28            3.0441    -2.4075     0.8510 H       
  29 H29            3.0261    -2.3985    -0.9288 H       
  30 H30            6.5008    -5.4788    -0.0893 H       
  31 H31            8.1694    -1.5228    -0.0855 H       
  32 H32            5.8512    -0.6332    -0.0643 H       
  33 H33            8.2455    -6.0813    -0.1084 H       
  34 H34           11.0393    -5.4473     0.4576 H       
  35 H35           10.2026    -6.7820    -2.1568 H       
  36 H36           10.9014    -5.1524    -2.0006 H       
  37 H37           11.8754    -6.5823    -1.5823 H       
  38 H38            9.7474    -8.4187    -1.3753 H       
  39 H39            9.3598    -9.3643     0.0820 H       
  40 H40            8.3857    -7.9345    -0.3363 H       
  41 H41           12.4065    -7.4543     1.0447 H       
  42 H42           11.7078    -9.0839     0.8885 H       
  43 H43           12.0954    -8.1383    -0.5688 H       
  44 H44            8.8224    -6.9744     1.9287 H       
  45 H45            9.7965    -8.4042     2.3469 H       
  46 H46           10.4952    -6.7746     2.5032 H       
@<TRIPOS>BOND
   1    1    2 ar
   2    1    7 ar
   3    2    6 ar
   4    2    8 1
   5    3    4 ar
   6    3    5 1
   7    3    6 ar
   8    4    7 ar
   9    4   25 1
  10    5    9 1
  11    6   26 1
  12    7   27 1
  13    9   10 1
  14    9   28 1
  15    9   29 1
  16   10   11 ar
  17   10   15 ar
  18   11   12 ar
  19   12   13 ar
  20   12   30 1
  21   13   14 ar
  22   13   16 1
  23   14   15 ar
  24   14   31 1
  25   15   32 1
  26   16   17 am
  27   16   20 2
  28   17   18 1
  29   17   33 1
  30   18   19 1
  31   18   21 1
  32   18   34 1
  33   19   22 1
  34   19   23 1
  35   19   24 1
  36   21   35 1
  37   21   36 1
  38   21   37 1
  39   22   38 1
  40   22   39 1
  41   22   40 1
  42   23   41 1
  43   23   42 1
  44   23   43 1
  45   24   44 1
  46   24   45 1
  47   24   46 1

#	End of record

