#	Name: ASD03330280
#	Creating user name:	WinNT
#	Creation time:	15. 06. 2019 20:36

#	Modifying user name:	WinNT
#	Modification time:	15. 06. 2019 20:36

#	Program:	/corina/corina34_cracker 3.40 0067  02.08.2006

@<TRIPOS>MOLECULE
ASD03330280
  63   65    0    0    0
SMALL
NO_CHARGES


@<TRIPOS>ATOM
   1 C1             2.4057     0.4788     0.0762 C.3     
   2 N2             1.7847    -0.8004     0.4474 N.3     
   3 C3             1.4827    -1.6115    -0.7459 C.3     
   4 C4             2.7237    -1.6648    -1.5991 C.2     
   5 N5             3.7807    -0.8247    -1.4459 N.pl3   
   6 C6             3.8315     0.2352    -0.4348 C.3     
   7 C7             3.0211    -2.5028    -2.6235 C.2     
   8 N8             4.2498    -2.1710    -3.0817 N.2     
   9 C9             4.7116    -1.1627    -2.3763 C.2     
  10 C10            6.0242    -0.5062    -2.5638 C.ar    
  11 C11            6.7565    -0.7249    -3.7310 C.ar    
  12 C12            2.1607    -3.5804    -3.1434 C.2     
  13 O13            1.0701    -3.7820    -2.6443 O.2     
  14 C14            1.7271    -5.4136    -4.6888 C.3     
  15 N15            2.5824    -4.3424    -4.1719 N.am    
  16 C16            7.9797    -0.1094    -3.9000 C.ar    
  17 C17            8.4804     0.7232    -2.9150 C.ar    
  18 C18            7.7591     0.9441    -1.7553 C.ar    
  19 C19            6.5322     0.3386    -1.5766 C.ar    
  20 C20            2.5948    -6.4795    -5.3611 C.3     
  21 C21            3.5316    -7.1028    -4.3244 C.3     
  22 C22            1.6975    -7.5664    -5.9565 C.3     
  23 C23            3.4228    -5.8352    -6.4747 C.3     
  24 C24            0.5778    -0.5846     1.2565 C.3     
  25 C25            0.7466    -4.8351    -5.7109 C.3     
  26 O26            1.4742    -4.2894    -6.8131 O.3     
  27 C27           -0.4620     0.1737     0.4290 C.3     
  28 C28           -1.8598    -0.1092     0.9831 C.3     
  29 C29           -0.1777     1.6752     0.5048 C.3     
  30 H30            1.8160     0.9539    -0.7078 H       
  31 H31            2.4400     1.1316     0.9484 H       
  32 H32            1.1996    -2.6199    -0.4439 H       
  33 H33            0.6691    -1.1522    -1.3072 H       
  34 H34            4.2239     1.1495    -0.8800 H       
  35 H35            4.4704    -0.0756     0.3918 H       
  36 H36            6.3668    -1.3749    -4.5005 H       
  37 H37            1.1711    -5.8635    -3.8662 H       
  38 H38            3.4522    -4.1816    -4.5700 H       
  39 H39            8.5477    -0.2781    -4.8029 H       
  40 H40            9.4385     1.2024    -3.0518 H       
  41 H41            8.1553     1.5951    -0.9900 H       
  42 H42            5.9701     0.5118    -0.6708 H       
  43 H43            2.9417    -7.5619    -3.5311 H       
  44 H44            4.1497    -7.8622    -4.8033 H       
  45 H45            4.1708    -6.3285    -3.9002 H       
  46 H46            1.0301    -7.1224    -6.6950 H       
  47 H47            2.3157    -8.3258    -6.4354 H       
  48 H48            1.1076    -8.0255    -5.1631 H       
  49 H49            3.8781    -4.9168    -6.1039 H       
  50 H50            4.2042    -6.5256    -6.7923 H       
  51 H51            2.7761    -5.6041    -7.3211 H       
  52 H52            0.1677    -1.5474     1.5612 H       
  53 H53            0.8331    -0.0019     2.1415 H       
  54 H54            0.0853    -5.6248    -6.0674 H       
  55 H55            0.1543    -4.0493    -5.2419 H       
  56 H56            0.9150    -3.9041    -7.5015 H       
  57 H57           -0.4095    -0.1540    -0.6092 H       
  58 H58           -1.9123     0.2185     2.0214 H       
  59 H59           -2.6006     0.4310     0.3937 H       
  60 H60           -2.0623    -1.1789     0.9292 H       
  61 H61           -0.9072     2.2141    -0.0999 H       
  62 H62           -0.2487     2.0066     1.5408 H       
  63 H63            0.8252     1.8746     0.1275 H       
@<TRIPOS>BOND
   1    1    2 1
   2    1    6 1
   3    1   30 1
   4    1   31 1
   5    2    3 1
   6    2   24 1
   7    3    4 1
   8    3   32 1
   9    3   33 1
  10    4    5 1
  11    4    7 2
  12    5    6 1
  13    5    9 1
  14    6   34 1
  15    6   35 1
  16    7    8 1
  17    7   12 1
  18    8    9 2
  19    9   10 1
  20   10   11 ar
  21   10   19 ar
  22   11   16 ar
  23   11   36 1
  24   12   13 2
  25   12   15 am
  26   14   15 1
  27   14   25 1
  28   14   20 1
  29   14   37 1
  30   15   38 1
  31   16   17 ar
  32   16   39 1
  33   17   18 ar
  34   17   40 1
  35   18   19 ar
  36   18   41 1
  37   19   42 1
  38   20   21 1
  39   20   22 1
  40   20   23 1
  41   21   43 1
  42   21   44 1
  43   21   45 1
  44   22   46 1
  45   22   47 1
  46   22   48 1
  47   23   49 1
  48   23   50 1
  49   23   51 1
  50   24   27 1
  51   24   52 1
  52   24   53 1
  53   25   26 1
  54   25   54 1
  55   25   55 1
  56   26   56 1
  57   27   28 1
  58   27   29 1
  59   27   57 1
  60   28   58 1
  61   28   59 1
  62   28   60 1
  63   29   61 1
  64   29   62 1
  65   29   63 1

#	End of record

