#	Name: ASD05790113
#	Creating user name:	WinNT
#	Creation time:	15. 06. 2019 21:03

#	Modifying user name:	WinNT
#	Modification time:	15. 06. 2019 21:03

#	Program:	/corina/corina34_cracker 3.40 0067  02.08.2006

@<TRIPOS>MOLECULE
ASD05790113
  72   77    0    0    0
SMALL
NO_CHARGES


@<TRIPOS>ATOM
   1 C1            -0.0184     1.5092     0.0103 C.3     
   2 C2             0.0021    -0.0041     0.0020 C.2     
   3 C3             0.7718    -0.7039     1.1009 C.3     
   4 C4             2.1307    -0.0339     1.2207 C.2     
   5 C5             2.1825     1.4754     1.2165 C.3     
   6 C6             1.4255     2.0147    -0.0007 C.3     
   7 C7             3.1788    -0.8040     1.3203 C.2     
   8 C8             4.5894    -0.2900     1.4863 C.3     
   9 C9             4.4760     1.0870     2.1259 C.3     
  10 C10            3.6169     1.9394     1.1610 C.3     
  11 C11            5.7893     1.8828     2.1625 C.3     
  12 C12            5.3555     3.3434     2.1130 C.2     
  13 C13            3.9065     3.3637     1.6166 C.3     
  14 C14            6.5209     1.5736     3.4556 C.3     
  15 C15            7.8376     2.2619     3.5880 C.3     
  16 C16            7.7718     3.7070     4.0141 C.3     
  17 C17            7.4167     4.6343     2.8646 C.3     
  18 C18            6.0413     4.3811     2.3657 C.2     
  19 O19            6.8112     3.8722     5.0804 O.3     
  20 C20            7.5092     4.2313     6.2576 C.3     
  21 C21            8.7402     5.0329     5.7518 C.3     
  22 C22            9.1599     4.1344     4.5777 C.3     
  23 C23            6.7974     5.0936     7.2794 C.3     
  24 C24            7.7812     5.3209     8.4412 C.3     
  25 C25            9.0961     5.9112     7.9405 C.3     
  26 N26            9.6852     5.0966     6.8595 N.3     
  27 O27           -0.5764    -0.6317    -0.8523 O.2     
  28 C28            1.5329     2.0092     2.4948 C.3     
  29 C29            5.2819     5.6544     2.0958 C.3     
  30 C30            7.1517     6.2825     9.4511 C.3     
  31 C31            9.9518     2.9209     5.0689 C.3     
  32 H32           -0.5407     1.8731    -0.8745 H       
  33 H33           -0.5236     1.8636     0.9088 H       
  34 H34            0.2321    -0.6140     2.0437 H       
  35 H35            0.9006    -1.7563     0.8481 H       
  36 H36            1.9192     1.6772    -0.9120 H       
  37 H37            1.4272     3.1044     0.0263 H       
  38 H38            3.0290    -1.8729     1.2822 H       
  39 H39            5.1563    -0.9576     2.1352 H       
  40 H40            5.0751    -0.2112     0.5137 H       
  41 H41            4.0167     1.0232     3.1124 H       
  42 H42            3.9940     1.8169     0.1456 H       
  43 H43            6.4058     1.6397     1.2971 H       
  44 H44            3.8030     4.0560     0.7811 H       
  45 H45            3.2338     3.6452     2.4268 H       
  46 H46            5.8882     1.8707     4.2920 H       
  47 H47            6.6843     0.4975     3.5133 H       
  48 H48            8.4368     1.7169     4.3174 H       
  49 H49            8.3483     2.2115     2.6264 H       
  50 H50            7.4874     5.6672     3.2054 H       
  51 H51            8.1249     4.4798     2.0506 H       
  52 H52            7.8572     3.3259     6.7549 H       
  53 H53            8.4547     6.0266     5.4066 H       
  54 H54            9.7276     4.6971     3.8366 H       
  55 H55            6.5226     6.0492     6.8327 H       
  56 H56            5.9061     4.5815     7.6418 H       
  57 H57            7.9808     4.3685     8.9322 H       
  58 H58            8.9137     6.9188     7.5669 H       
  59 H59            9.8008     5.9635     8.7703 H       
  60 H60            9.9184     4.1720     7.1895 H       
  61 H61            2.0720     1.6288     3.3624 H       
  62 H62            1.5695     3.0986     2.4933 H       
  63 H63            0.4946     1.6806     2.5393 H       
  64 H64            5.9146     6.5110     2.3282 H       
  65 H65            4.9938     5.6899     1.0452 H       
  66 H66            4.3879     5.6833     2.7188 H       
  67 H67            6.2260     5.8527     9.8338 H       
  68 H68            7.8443     6.4472    10.2765 H       
  69 H69            6.9362     7.2327     8.9625 H       
  70 H70            9.3442     2.3509     5.7718 H       
  71 H71           10.2133     2.2897     4.2197 H       
  72 H72           10.8619     3.2576     5.5652 H       
@<TRIPOS>BOND
   1    1    2 1
   2    1    6 1
   3    1   32 1
   4    1   33 1
   5    2    3 1
   6    2   27 2
   7    3    4 1
   8    3   34 1
   9    3   35 1
  10    4    5 1
  11    4    7 2
  12    5    6 1
  13    5   28 1
  14    5   10 1
  15    6   36 1
  16    6   37 1
  17    7    8 1
  18    7   38 1
  19    8    9 1
  20    8   39 1
  21    8   40 1
  22    9   10 1
  23    9   11 1
  24    9   41 1
  25   10   13 1
  26   10   42 1
  27   11   12 1
  28   11   14 1
  29   11   43 1
  30   12   13 1
  31   12   18 2
  32   13   44 1
  33   13   45 1
  34   14   15 1
  35   14   46 1
  36   14   47 1
  37   15   16 1
  38   15   48 1
  39   15   49 1
  40   16   17 1
  41   16   19 1
  42   16   22 1
  43   17   18 1
  44   17   50 1
  45   17   51 1
  46   18   29 1
  47   19   20 1
  48   20   21 1
  49   20   23 1
  50   20   52 1
  51   21   22 1
  52   21   26 1
  53   21   53 1
  54   22   31 1
  55   22   54 1
  56   23   24 1
  57   23   55 1
  58   23   56 1
  59   24   25 1
  60   24   30 1
  61   24   57 1
  62   25   26 1
  63   25   58 1
  64   25   59 1
  65   26   60 1
  66   28   61 1
  67   28   62 1
  68   28   63 1
  69   29   64 1
  70   29   65 1
  71   29   66 1
  72   30   67 1
  73   30   68 1
  74   30   69 1
  75   31   70 1
  76   31   71 1
  77   31   72 1

#	End of record

