#	Name: ASD03730401
#	Creating user name:	WinNT
#	Creation time:	15. 06. 2019 20:44

#	Modifying user name:	WinNT
#	Modification time:	15. 06. 2019 20:44

#	Program:	/corina/corina34_cracker 3.40 0067  02.08.2006

@<TRIPOS>MOLECULE
ASD03730401
  67   72    0    0    0
SMALL
NO_CHARGES


@<TRIPOS>ATOM
   1 C1            -0.3886     1.2529     0.6793 C.2     
   2 C2            -0.5540    -0.2130     0.7772 C.ar    
   3 C3             0.5566    -1.0310     0.9907 C.ar    
   4 C4             0.3952    -2.3981     1.0816 C.ar    
   5 C5            -0.8640    -2.9587     0.9610 C.ar    
   6 C6            -1.9690    -2.1535     0.7493 C.ar    
   7 C7            -1.8223    -0.7845     0.6622 C.ar    
   8 O8             0.7164     1.7482     0.7848 O.2     
   9 N9            -1.4623     2.0396     0.4675 N.am    
  10 C10           -1.0325    -4.4529     1.0603 C.3     
  11 O11           -3.6425    -0.9453     6.7678 O.3     
  12 C12           -4.0742    -0.8801     8.1398 C.3     
  13 O13           -4.7581    -2.1307     8.3431 O.3     
  14 C14           -4.1915    -3.0052     7.4606 C.ar    
  15 C15           -3.5065    -2.2757     6.4916 C.ar    
  16 C16           -4.2041    -4.3874     7.4054 C.ar    
  17 C17           -3.5372    -5.0584     6.3848 C.ar    
  18 C18           -2.8633    -4.3185     5.4179 C.ar    
  19 C19           -2.8437    -2.9405     5.4736 C.ar    
  20 O20           -3.4117    -6.3975     6.1584 O.3     
  21 C21           -2.2767    -5.3109     4.4499 C.3     
  22 C22           -3.0145    -6.6129     4.7905 C.3     
  23 N23           -1.2672    -4.8261     2.4574 N.am    
  24 C24           -2.4896    -4.9043     3.0202 C.2     
  25 C25           -0.7916    -5.4518     4.6066 C.ar    
  26 C26            0.0255    -5.7966     5.6599 C.ar    
  27 C27            1.3975    -5.8404     5.4872 C.ar    
  28 C28            1.9460    -5.5363     4.2545 C.ar    
  29 C29            1.1318    -5.1894     3.1966 C.ar    
  30 C30           -0.2504    -5.1432     3.3613 C.ar    
  31 O31           -3.5529    -4.6887     2.4780 O.2     
  32 C32           -1.2984     3.4921     0.3706 C.3     
  33 C33           -2.6614     4.1443     0.1302 C.3     
  34 C34           -3.5570     3.9185     1.3500 C.3     
  35 C35           -4.9644     4.4397     1.0528 C.3     
  36 C36           -2.4756     5.6461    -0.0952 C.3     
  37 C37           -1.6990     5.8748    -1.3934 C.3     
  38 H38            1.5401    -0.5947     1.0843 H       
  39 H39            1.2537    -3.0322     1.2468 H       
  40 H40           -2.9492    -2.5973     0.6560 H       
  41 H41           -2.6862    -0.1567     0.5014 H       
  42 H42           -2.3436     1.6440     0.3793 H       
  43 H43           -1.8829    -4.7638     0.4534 H       
  44 H44           -0.1294    -4.9452     0.6995 H       
  45 H45           -3.2166    -0.7996     8.8077 H       
  46 H46           -4.7559    -0.0424     8.2874 H       
  47 H47           -4.7351    -4.9495     8.1593 H       
  48 H48           -2.3104    -2.3785     4.7212 H       
  49 H49           -2.3446    -7.4693     4.7122 H       
  50 H50           -3.8867    -6.7426     4.1498 H       
  51 H51           -0.4050    -6.0335     6.6217 H       
  52 H52            2.0386    -6.1116     6.3129 H       
  53 H53            3.0170    -5.5704     4.1197 H       
  54 H54            1.5676    -4.9528     2.2372 H       
  55 H55           -0.8723     3.8725     1.2989 H       
  56 H56           -0.6315     3.7279    -0.4587 H       
  57 H57           -3.1268     3.6997    -0.7495 H       
  58 H58           -3.6039     2.8528     1.5741 H       
  59 H59           -3.1453     4.4522     2.2067 H       
  60 H60           -4.9318     5.5217     0.9251 H       
  61 H61           -5.3377     3.9771     0.1391 H       
  62 H62           -5.6265     4.1915     1.8824 H       
  63 H63           -3.4515     6.1263    -0.1661 H       
  64 H64           -1.9205     6.0729     0.7402 H       
  65 H65           -0.7529     5.3351    -1.3508 H       
  66 H66           -2.2865     5.5121    -2.2369 H       
  67 H67           -1.5044     6.9401    -1.5176 H       
@<TRIPOS>BOND
   1    1    2 1
   2    1    8 2
   3    1    9 am
   4    2    3 ar
   5    2    7 ar
   6    3    4 ar
   7    3   38 1
   8    4    5 ar
   9    4   39 1
  10    5    6 ar
  11    5   10 1
  12    6    7 ar
  13    6   40 1
  14    7   41 1
  15    9   32 1
  16    9   42 1
  17   10   23 1
  18   10   43 1
  19   10   44 1
  20   11   12 1
  21   11   15 1
  22   12   13 1
  23   12   45 1
  24   12   46 1
  25   13   14 1
  26   14   15 ar
  27   14   16 ar
  28   15   19 ar
  29   16   17 ar
  30   16   47 1
  31   17   18 ar
  32   17   20 1
  33   18   19 ar
  34   18   21 1
  35   19   48 1
  36   20   22 1
  37   21   22 1
  38   21   24 1
  39   21   25 1
  40   22   49 1
  41   22   50 1
  42   23   24 am
  43   23   30 1
  44   24   31 2
  45   25   26 ar
  46   25   30 ar
  47   26   27 ar
  48   26   51 1
  49   27   28 ar
  50   27   52 1
  51   28   29 ar
  52   28   53 1
  53   29   30 ar
  54   29   54 1
  55   32   33 1
  56   32   55 1
  57   32   56 1
  58   33   34 1
  59   33   36 1
  60   33   57 1
  61   34   35 1
  62   34   58 1
  63   34   59 1
  64   35   60 1
  65   35   61 1
  66   35   62 1
  67   36   37 1
  68   36   63 1
  69   36   64 1
  70   37   65 1
  71   37   66 1
  72   37   67 1

#	End of record

