#	Name: ASD01028505
#	Creating user name:	WinNT
#	Creation time:	15. 06. 2019 18:57

#	Modifying user name:	WinNT
#	Modification time:	15. 06. 2019 18:57

#	Program:	/corina/corina34_cracker 3.40 0067  02.08.2006

@<TRIPOS>MOLECULE
ASD01028505
  45   49    0    0    0
SMALL
NO_CHARGES


@<TRIPOS>ATOM
   1 C1            -0.0171     1.4107     0.0098 C.ar    
   2 C2             0.0021    -0.0041     0.0020 C.ar    
   3 C3             1.2178     2.1059     0.0017 C.ar    
   4 C4             2.3842     1.3595    -0.0135 C.ar    
   5 C5             2.3156    -0.0274    -0.0203 C.ar    
   6 N6             1.1663    -0.6618    -0.0123 N.ar    
   7 N7             1.2571     3.4927     0.0084 N.pl3   
   8 C8             2.5460     4.1890    -0.0001 C.3     
   9 C9             2.3126     5.6778     0.0096 C.2     
  10 N10            2.1995     6.4598     1.1051 N.pl3   
  11 C11            1.9953     7.7368     0.6404 C.2     
  12 N12            1.9947     7.6680    -0.6809 N.2     
  13 N13            2.1887     6.4478    -1.0429 N.2     
  14 N14            2.2498     6.2137     2.4787 N.2     
  15 C15            2.1026     7.1998     3.3391 C.2     
  16 C16            1.8909     8.5232     2.8911 C.2     
  17 C17            1.8383     8.7914     1.5607 C.2     
  18 C18           -1.2221    -0.6978     0.0101 C.ar    
  19 C19           -2.3882     0.0404     0.0252 C.ar    
  20 C20           -2.3240     1.4376     0.0321 C.ar    
  21 N21           -1.1760     2.0696     0.0299 N.ar    
  22 C22            2.1591     6.9192     4.7886 C.2     
  23 O23           -3.5931    -0.5873     0.0330 O.3     
  24 C24           -4.7566     0.2422     0.0487 C.3     
  25 S25            1.9841     8.1022     6.0828 S.3     
  26 C26            2.1878     6.8698     7.2499 C.2     
  27 N27            2.3624     5.7278     6.6721 N.2     
  28 C28            2.3482     5.7088     5.3586 C.2     
  29 C29            2.1671     7.0853     8.7413 C.3     
  30 H30            3.3441     1.8544    -0.0203 H       
  31 H31            3.2318    -0.5991    -0.0326 H       
  32 H32            0.4311     4.0012     0.0187 H       
  33 H33            3.1182     3.9052     0.8831 H       
  34 H34            3.1015     3.9142    -0.8968 H       
  35 H35            1.7714     9.3225     3.6076 H       
  36 H36            1.6767     9.8009     1.2126 H       
  37 H37           -1.2485    -1.7775     0.0042 H       
  38 H38           -3.2409     2.0082     0.0435 H       
  39 H39           -5.6490    -0.3837     0.0535 H       
  40 H40           -4.7458     0.8665     0.9421 H       
  41 H41           -4.7625     0.8765    -0.8377 H       
  42 H42            2.4849     4.8049     4.7837 H       
  43 H43            1.1469     6.9779     9.1098 H       
  44 H44            2.8074     6.3469     9.2240 H       
  45 H45            2.5321     8.0868     8.9688 H       
@<TRIPOS>BOND
   1    1    2 ar
   2    1    3 ar
   3    1   21 ar
   4    2   18 ar
   5    2    6 ar
   6    3    4 ar
   7    3    7 1
   8    4    5 ar
   9    4   30 1
  10    5    6 ar
  11    5   31 1
  12    7    8 1
  13    7   32 1
  14    8    9 1
  15    8   33 1
  16    8   34 1
  17    9   10 1
  18    9   13 2
  19   10   11 1
  20   10   14 1
  21   11   12 2
  22   11   17 1
  23   12   13 1
  24   14   15 2
  25   15   16 1
  26   15   22 1
  27   16   17 2
  28   16   35 1
  29   17   36 1
  30   18   19 ar
  31   18   37 1
  32   19   20 ar
  33   19   23 1
  34   20   21 ar
  35   20   38 1
  36   22   25 1
  37   22   28 2
  38   23   24 1
  39   24   39 1
  40   24   40 1
  41   24   41 1
  42   25   26 1
  43   26   27 2
  44   26   29 1
  45   27   28 1
  46   28   42 1
  47   29   43 1
  48   29   44 1
  49   29   45 1

#	End of record

