#	Name: ASD02440012
#	Creating user name:	WinNT
#	Creation time:	15. 06. 2019 20:21

#	Modifying user name:	WinNT
#	Modification time:	15. 06. 2019 20:21

#	Program:	/corina/corina34_cracker 3.40 0067  02.08.2006

@<TRIPOS>MOLECULE
ASD02440012
  37   40    0    0    0
SMALL
NO_CHARGES


@<TRIPOS>ATOM
   1 C1            -0.0168     1.3911     0.0097 C.ar    
   2 C2             0.0021    -0.0041     0.0020 C.ar    
   3 C3            -1.1648    -0.7094     0.0093 C.ar    
   4 C4            -2.3896    -0.0288     0.0246 C.ar    
   5 C5            -2.4167     1.3815     0.0325 C.ar    
   6 C6            -1.2187     2.0807     0.0306 C.ar    
   7 C7            -3.6568    -0.7632     0.0321 C.2     
   8 C8            -4.8506    -0.0091     0.0468 C.2     
   9 C9            -4.7801     1.4053     0.0540 C.2     
  10 O10           -3.5914     2.0430     0.0473 O.3     
  11 C11           -6.1013    -0.6580     0.0539 C.2     
  12 C12           -7.2440     0.0718     0.0676 C.2     
  13 C13           -7.1861     1.4814     0.0743 C.2     
  14 C14           -5.9500     2.1387     0.0683 C.2     
  15 O15           -8.2230     2.1338     0.0858 O.2     
  16 O16            1.1524     2.0790     0.0022 O.3     
  17 C17           -3.6850    -2.2373     0.0240 C.ar    
  18 C18           -4.0031    -2.9479     1.2000 C.ar    
  19 C19           -3.4028    -2.9388    -1.1485 C.ar    
  20 C20           -3.4312    -4.3199    -1.1502 C.ar    
  21 C21           -3.7388    -5.0165     0.0057 C.ar    
  22 C22           -4.0261    -4.3396     1.1766 C.ar    
  23 C23           -4.3093    -2.2201     2.4486 C.2     
  24 O24           -4.2877    -1.0057     2.4647 O.2     
  25 O25           -4.6126    -2.9032     3.5695 O.3     
  26 H26            0.9463    -0.5282    -0.0101 H       
  27 H27           -1.1452    -1.7892     0.0030 H       
  28 H28           -1.2227     3.1607     0.0366 H       
  29 H29           -6.1498    -1.7369     0.0481 H       
  30 H30           -8.2016    -0.4276     0.0729 H       
  31 H31           -5.9116     3.2180     0.0743 H       
  32 H32            1.4829     2.2831    -0.8833 H       
  33 H33           -3.1627    -2.4022    -2.0545 H       
  34 H34           -3.2123    -4.8597    -2.0596 H       
  35 H35           -3.7582    -6.0962    -0.0081 H       
  36 H36           -4.2648    -4.8908     2.0742 H       
  37 H37           -4.8057    -2.3834     4.3617 H       
@<TRIPOS>BOND
   1    1    2 ar
   2    1   16 1
   3    1    6 ar
   4    2    3 ar
   5    2   26 1
   6    3    4 ar
   7    3   27 1
   8    4    5 ar
   9    4    7 1
  10    5    6 ar
  11    5   10 1
  12    6   28 1
  13    7    8 2
  14    7   17 1
  15    8    9 1
  16    8   11 1
  17    9   10 1
  18    9   14 2
  19   11   12 2
  20   11   29 1
  21   12   13 1
  22   12   30 1
  23   13   14 1
  24   13   15 2
  25   14   31 1
  26   16   32 1
  27   17   18 ar
  28   17   19 ar
  29   18   23 1
  30   18   22 ar
  31   19   20 ar
  32   19   33 1
  33   20   21 ar
  34   20   34 1
  35   21   22 ar
  36   21   35 1
  37   22   36 1
  38   23   24 2
  39   23   25 1
  40   25   37 1

#	End of record

