#	Name: ASD01700018
#	Creating user name:	WinNT
#	Creation time:	15. 06. 2019 19:22

#	Modifying user name:	WinNT
#	Modification time:	15. 06. 2019 19:22

#	Program:	/corina/corina34_cracker 3.40 0067  02.08.2006

@<TRIPOS>MOLECULE
ASD01700018
  50   52    0    0    0
SMALL
NO_CHARGES


@<TRIPOS>ATOM
   1 C1            -0.2220     1.8330    -1.8809 C.2     
   2 N2            -0.3115     0.5041    -2.0870 N.am    
   3 O3             0.8197     2.4168    -2.1177 O.2     
   4 C4             0.8007    -0.2452    -2.6926 C.3     
   5 N5            -9.7190     4.5676    -1.6680 N.pl3   
   6 O6            -0.1028    -2.1893    -1.5785 O.3     
   7 C7             1.1048    -1.4590    -1.8070 C.3     
   8 C8            -1.1002    -1.4554    -0.8718 C.3     
   9 C9            -1.5221    -0.2414    -1.7073 C.3     
  10 C10           -1.3773     2.5742    -1.3789 C.2     
  11 C11           -1.2581     3.8846    -1.0726 C.2     
  12 C12           -2.4191     4.6294    -0.5681 C.ar    
  13 C13           -2.2933     5.9836    -0.2337 C.ar    
  14 C14           -0.9659     6.6796    -0.3914 C.3     
  15 C15           -3.3754     6.6727     0.2352 C.ar    
  16 C16           -3.2413     8.1300     0.5949 C.3     
  17 C17           -4.6029     6.0304     0.3809 C.ar    
  18 C18           -7.3078     5.7566     0.8443 C.ar    
  19 C19           -7.6623     4.9721     1.9357 C.ar    
  20 C20           -8.6944     4.0603     1.8267 C.ar    
  21 C21           -9.3775     3.9248     0.6335 C.ar    
  22 C22           -9.0283     4.7060    -0.4619 C.ar    
  23 C23           -7.9927     5.6231    -0.3561 C.ar    
  24 C24           -4.7322     4.6831     0.0498 C.ar    
  25 C25           -3.6567     3.9886    -0.4255 C.ar    
  26 F26           -0.2683     6.1156    -1.4649 F       
  27 F27           -1.1792     8.0402    -0.6371 F       
  28 F28           -0.2182     6.5291     0.7814 F       
  29 F29           -3.2895     8.9041    -0.5695 F       
  30 F30           -4.2901     8.4992     1.4440 F       
  31 F31           -2.0199     8.3397     1.2440 F       
  32 S32           -5.9957     6.9240     0.9862 S.3     
  33 H33            0.5173    -0.5805    -3.6902 H       
  34 H34            1.6820     0.3931    -2.7558 H       
  35 H35          -10.4428     3.9260    -1.7415 H       
  36 H36           -9.4749     5.1130    -2.4321 H       
  37 H37            1.8299    -2.1016    -2.3064 H       
  38 H38            1.5120    -1.1215    -0.8539 H       
  39 H39           -1.9676    -2.0926    -0.6996 H       
  40 H40           -0.6974    -1.1213     0.0844 H       
  41 H41           -2.1783     0.3995    -1.1184 H       
  42 H42           -2.0434    -0.5763    -2.6041 H       
  43 H43           -2.3264     2.0744    -1.2528 H       
  44 H44           -0.3091     4.3844    -1.1986 H       
  45 H45           -7.1301     5.0752     2.8698 H       
  46 H46           -8.9677     3.4517     2.6760 H       
  47 H47          -10.1836     3.2107     0.5516 H       
  48 H48           -7.7196     6.2315    -1.2056 H       
  49 H49           -5.6854     4.1886     0.1649 H       
  50 H50           -3.7589     2.9456    -0.6865 H       
@<TRIPOS>BOND
   1    1    2 am
   2    1    3 2
   3    1   10 1
   4    2    4 1
   5    2    9 1
   6    4    7 1
   7    4   33 1
   8    4   34 1
   9    5   22 1
  10    5   35 1
  11    5   36 1
  12    6    7 1
  13    6    8 1
  14    7   37 1
  15    7   38 1
  16    8    9 1
  17    8   39 1
  18    8   40 1
  19    9   41 1
  20    9   42 1
  21   10   11 2
  22   10   43 1
  23   11   12 1
  24   11   44 1
  25   12   13 ar
  26   12   25 ar
  27   13   14 1
  28   13   15 ar
  29   14   26 1
  30   14   27 1
  31   14   28 1
  32   15   16 1
  33   15   17 ar
  34   16   29 1
  35   16   30 1
  36   16   31 1
  37   17   24 ar
  38   17   32 1
  39   18   19 ar
  40   18   23 ar
  41   18   32 1
  42   19   20 ar
  43   19   45 1
  44   20   21 ar
  45   20   46 1
  46   21   22 ar
  47   21   47 1
  48   22   23 ar
  49   23   48 1
  50   24   25 ar
  51   24   49 1
  52   25   50 1

#	End of record

