#	Name: ASD01850042
#	Creating user name:	WinNT
#	Creation time:	15. 06. 2019 19:38

#	Modifying user name:	WinNT
#	Modification time:	15. 06. 2019 19:38

#	Program:	/corina/corina34_cracker 3.40 0067  02.08.2006

@<TRIPOS>MOLECULE
ASD01850042
  55   57    0    0    0
SMALL
NO_CHARGES


@<TRIPOS>ATOM
   1 C1             0.2748     2.7068     0.4421 C.ar    
   2 C2            -0.1235     1.3833     0.4146 C.ar    
   3 C3             0.8179     0.3810     0.2734 C.ar    
   4 C4             2.1576     0.7021     0.1592 C.ar    
   5 C5             2.5558     2.0255     0.1857 C.ar    
   6 C6             1.6146     3.0278     0.3283 C.ar    
   7 C7             4.2393     3.8794    -1.9699 C.3     
   8 N8             4.3569     2.5564    -1.3516 N.am    
   9 C9             4.0164     2.3755     0.0617 C.3     
  10 C10            5.5870     4.5996    -1.8935 C.3     
  11 C11            4.7783     1.5058    -2.0831 C.2     
  12 C12            5.0051     1.6617    -3.5648 C.3     
  13 O13            4.9750     0.4349    -1.5489 O.2     
  14 C14            5.9247     0.5433    -4.0603 C.3     
  15 C15            3.6634     1.5833    -4.2969 C.3     
  16 C16            3.8939     1.7768    -5.7990 C.3     
  17 N17            4.8884     0.7960    -6.2550 N.am    
  18 C18            6.1808     0.7249    -5.5597 C.3     
  19 C19            5.0896     0.6112    -8.9936 C.2     
  20 C20            6.3595     0.5539    -9.6123 C.2     
  21 N21            6.2903     1.3170   -10.6647 N.2     
  22 O22            5.1963     1.8194   -10.7791 O.3     
  23 C23            4.3738     1.4393    -9.7914 C.2     
  24 C24            7.5563    -0.2341    -9.1458 C.3     
  25 C25            2.9385     1.8574    -9.6014 C.3     
  26 S26            4.5587    -0.2104    -7.5280 S.o2    
  27 O27            5.4039    -1.3423    -7.3740 O.2     
  28 O28            3.1431    -0.3029    -7.6103 O.2     
  29 H29           -0.4611     3.4901     0.5479 H       
  30 H30           -1.1702     1.1325     0.5038 H       
  31 H31            0.5067    -0.6530     0.2526 H       
  32 H32            2.8931    -0.0811     0.0495 H       
  33 H33            1.9257     4.0618     0.3487 H       
  34 H34            3.9456     3.7678    -3.0136 H       
  35 H35            3.4854     4.4621    -1.4406 H       
  36 H36            4.2160     3.2993     0.6047 H       
  37 H37            4.6198     1.5702     0.4806 H       
  38 H38            5.4995     5.5839    -2.3535 H       
  39 H39            5.8807     4.7112    -0.8497 H       
  40 H40            6.3409     4.0169    -2.4228 H       
  41 H41            5.4699     2.6279    -3.7613 H       
  42 H42            6.8714     0.5853    -3.5218 H       
  43 H43            5.4494    -0.4222    -3.8867 H       
  44 H44            3.2095     0.6081    -4.1211 H       
  45 H45            3.0008     2.3656    -3.9268 H       
  46 H46            2.9573     1.6237    -6.3351 H       
  47 H47            4.2633     2.7852    -5.9851 H       
  48 H48            6.7366     1.6476    -5.7263 H       
  49 H49            6.7530    -0.1222    -5.9379 H       
  50 H50            7.5351    -1.2271    -9.5948 H       
  51 H51            8.4694     0.2805    -9.4452 H       
  52 H52            7.5302    -0.3257    -8.0599 H       
  53 H53            2.6483     2.5356   -10.4038 H       
  54 H54            2.2976     0.9760    -9.6210 H       
  55 H55            2.8314     2.3632    -8.6417 H       
@<TRIPOS>BOND
   1    1    2 ar
   2    1    6 ar
   3    1   29 1
   4    2    3 ar
   5    2   30 1
   6    3    4 ar
   7    3   31 1
   8    4    5 ar
   9    4   32 1
  10    5    6 ar
  11    5    9 1
  12    6   33 1
  13    7    8 1
  14    7   10 1
  15    7   34 1
  16    7   35 1
  17    8    9 1
  18    8   11 am
  19    9   36 1
  20    9   37 1
  21   10   38 1
  22   10   39 1
  23   10   40 1
  24   11   12 1
  25   11   13 2
  26   12   14 1
  27   12   15 1
  28   12   41 1
  29   14   18 1
  30   14   42 1
  31   14   43 1
  32   15   16 1
  33   15   44 1
  34   15   45 1
  35   16   17 1
  36   16   46 1
  37   16   47 1
  38   17   26 am
  39   17   18 1
  40   18   48 1
  41   18   49 1
  42   19   26 1
  43   19   20 1
  44   19   23 2
  45   20   21 2
  46   20   24 1
  47   21   22 1
  48   22   23 1
  49   23   25 1
  50   24   50 1
  51   24   51 1
  52   24   52 1
  53   25   53 1
  54   25   54 1
  55   25   55 1
  56   26   27 2
  57   26   28 2

#	End of record

