#	Name: ASD01410550
#	Creating user name:	WinNT
#	Creation time:	15. 06. 2019 19:18

#	Modifying user name:	WinNT
#	Modification time:	15. 06. 2019 19:18

#	Program:	/corina/corina34_cracker 3.40 0067  02.08.2006

@<TRIPOS>MOLECULE
ASD01410550
  87   92    0    0    0
SMALL
NO_CHARGES


@<TRIPOS>ATOM
   1 C1             2.0539     3.6403     3.4599 C.ar    
   2 C2             2.8239     3.1279     4.4946 C.ar    
   3 C3             3.9137     2.3338     4.1966 C.ar    
   4 N4             4.2282     2.0591     2.9452 N.ar    
   5 C5             3.5188     2.5288     1.9320 C.ar    
   6 C6             2.4097     3.3339     2.1578 C.ar    
   7 O7             3.8781     2.2211     0.6605 O.3     
   8 C8             5.0253     1.5154     0.4743 C.ar    
   9 C9             5.1114     0.2028     0.9225 C.ar    
  10 C10            6.2711    -0.5226     0.7387 C.ar    
  11 C11            7.3615     0.0558     0.1039 C.ar    
  12 C12            7.2810     1.3808    -0.3510 C.ar    
  13 C13            6.1006     2.1045    -0.1655 C.ar    
  14 N14            8.5330    -0.6771    -0.0807 N.am    
  15 C15            8.7743    -1.2751    -1.2641 C.2     
  16 C16            9.5017    -0.7972     1.0118 C.3     
  17 O17            8.0150    -1.1067    -2.1947 O.2     
  18 C18            9.9877    -2.1531    -1.4311 C.3     
  19 C19            2.4748     3.4352     5.9281 C.3     
  20 C20           10.1538    -2.5180    -2.9076 C.3     
  21 C21           11.3858    -3.4094    -3.0772 C.3     
  22 C22           11.2087    -4.6863    -2.2530 C.3     
  23 C23           11.0426    -4.3213    -0.7765 C.3     
  24 C24            9.8107    -3.4300    -0.6070 C.3     
  25 C25           12.4406    -5.5776    -2.4226 C.3     
  26 C26            8.8082    -1.3750     2.2471 C.3     
  27 C27            9.8199    -1.5004     3.3880 C.3     
  28 C28           10.3870    -0.1189     3.7209 C.3     
  29 C29           11.0805     0.4589     2.4856 C.3     
  30 C30           10.0688     0.5843     1.3447 C.3     
  31 O31           11.3320    -0.2361     4.7865 O.3     
  32 C32           11.4180     0.9235     5.6171 C.3     
  33 N33            1.5562     2.4136     6.4367 N.pl3   
  34 C34            1.9377     1.2049     6.9677 C.ar    
  35 C35            0.1917     2.5254     6.4584 C.2     
  36 C36           -0.3495     1.4167     6.9869 C.2     
  37 C37            0.7596     0.5263     7.3335 C.ar    
  38 C38            0.8484    -0.7454     7.9048 C.ar    
  39 C39            2.1057    -1.2890     8.0879 C.ar    
  40 C40            3.2236    -0.5640     7.7037 C.ar    
  41 N41            3.1180     0.6343     7.1703 N.ar    
  42 C42            1.6047     3.8667     1.0006 C.3     
  43 F43            0.5481     4.6444     1.4865 F       
  44 F44            2.4252     4.6526     0.1843 F       
  45 F45            1.0934     2.7978     0.2568 F       
  46 C46            8.4338     2.0038    -1.0257 C.2     
  47 O47            9.4369     1.3525    -1.2405 O.2     
  48 O48            8.3754     3.2957    -1.4045 O.3     
  49 H49            1.1939     4.2603     3.6660 H       
  50 H50            4.5164     1.9328     4.9981 H       
  51 H51            4.2663    -0.2522     1.4177 H       
  52 H52            6.3304    -1.5422     1.0898 H       
  53 H53            6.0311     3.1247    -0.5129 H       
  54 H54           10.3125    -1.4590     0.7073 H       
  55 H55           10.8731    -1.6185    -1.0871 H       
  56 H56            3.3832     3.4393     6.5304 H       
  57 H57            1.9973     4.4135     5.9840 H       
  58 H58            9.2684    -3.0527    -3.2516 H       
  59 H59           10.2800    -1.6084    -3.4948 H       
  60 H60           11.5041    -3.6694    -4.1291 H       
  61 H61           12.2712    -2.8748    -2.7332 H       
  62 H62           10.3233    -5.2209    -2.5970 H       
  63 H63           10.9165    -5.2310    -0.1894 H       
  64 H64           11.9280    -3.7867    -0.4325 H       
  65 H65            9.6923    -3.1700     0.4449 H       
  66 H66            8.9252    -3.9646    -0.9510 H       
  67 H67           13.3261    -5.0430    -2.0786 H       
  68 H68           12.3145    -6.4873    -1.8355 H       
  69 H69           12.5590    -5.8376    -3.4745 H       
  70 H70            7.9975    -0.7132     2.5516 H       
  71 H71            8.4042    -2.3592     2.0100 H       
  72 H72            9.3259    -1.9121     4.2681 H       
  73 H73           10.6307    -2.1623     3.0836 H       
  74 H74            9.5763     0.5429     4.0254 H       
  75 H75           11.4845     1.4431     2.7227 H       
  76 H76           11.8913    -0.2029     2.1811 H       
  77 H77           10.5628     0.9960     0.4646 H       
  78 H78            9.2580     1.2462     1.6491 H       
  79 H79           12.1561     0.7549     6.4012 H       
  80 H80           11.7176     1.7809     5.0144 H       
  81 H81           10.4458     1.1194     6.0694 H       
  82 H82           -0.3662     3.3792     6.1032 H       
  83 H83           -1.4016     1.2203     7.1316 H       
  84 H84           -0.0394    -1.2876     8.1950 H       
  85 H85            2.2166    -2.2696     8.5266 H       
  86 H86            4.2046    -0.9920     7.8483 H       
  87 H87            9.1561     3.6603    -1.8435 H       
@<TRIPOS>BOND
   1    1    2 ar
   2    1    6 ar
   3    1   49 1
   4    2    3 ar
   5    2   19 1
   6    3    4 ar
   7    3   50 1
   8    4    5 ar
   9    5    6 ar
  10    5    7 1
  11    6   42 1
  12    7    8 1
  13    8    9 ar
  14    8   13 ar
  15    9   10 ar
  16    9   51 1
  17   10   11 ar
  18   10   52 1
  19   11   12 ar
  20   11   14 1
  21   12   13 ar
  22   12   46 1
  23   13   53 1
  24   14   15 am
  25   14   16 1
  26   15   17 2
  27   15   18 1
  28   16   26 1
  29   16   30 1
  30   16   54 1
  31   18   20 1
  32   18   24 1
  33   18   55 1
  34   19   33 1
  35   19   56 1
  36   19   57 1
  37   20   21 1
  38   20   58 1
  39   20   59 1
  40   21   22 1
  41   21   60 1
  42   21   61 1
  43   22   23 1
  44   22   25 1
  45   22   62 1
  46   23   24 1
  47   23   63 1
  48   23   64 1
  49   24   65 1
  50   24   66 1
  51   25   67 1
  52   25   68 1
  53   25   69 1
  54   26   27 1
  55   26   70 1
  56   26   71 1
  57   27   28 1
  58   27   72 1
  59   27   73 1
  60   28   29 1
  61   28   31 1
  62   28   74 1
  63   29   30 1
  64   29   75 1
  65   29   76 1
  66   30   77 1
  67   30   78 1
  68   31   32 1
  69   32   79 1
  70   32   80 1
  71   32   81 1
  72   33   34 1
  73   33   35 1
  74   34   37 ar
  75   34   41 ar
  76   35   36 2
  77   35   82 1
  78   36   37 1
  79   36   83 1
  80   37   38 ar
  81   38   39 ar
  82   38   84 1
  83   39   40 ar
  84   39   85 1
  85   40   41 ar
  86   40   86 1
  87   42   43 1
  88   42   44 1
  89   42   45 1
  90   46   47 2
  91   46   48 1
  92   48   87 1

#	End of record

