#	Name: ASD05430031
#	Creating user name:	WinNT
#	Creation time:	15. 06. 2019 20:59

#	Modifying user name:	WinNT
#	Modification time:	15. 06. 2019 20:59

#	Program:	/corina/corina34_cracker 3.40 0067  02.08.2006

@<TRIPOS>MOLECULE
ASD05430031
  64   71    0    0    0
SMALL
NO_CHARGES


@<TRIPOS>ATOM
   1 C1             0.0642     1.1620     0.4281 C.ar    
   2 C2             0.0195    -0.0124    -0.3260 C.ar    
   3 C3             1.1594    -0.4729    -0.9668 C.ar    
   4 C4             2.3514     0.2189    -0.8708 C.ar    
   5 C5             2.4228     1.3948    -0.1242 C.ar    
   6 C6             1.2674     1.8720     0.5326 C.ar    
   7 C7             4.8739    -0.0473     0.2060 C.3     
   8 C8             4.8545     1.4584     0.0657 C.2     
   9 C9             3.6898     2.1308    -0.0217 C.2     
  10 C10            6.2048    -0.4852     0.8241 C.3     
  11 C11            6.9026     0.5478     1.7161 C.3     
  12 N12            7.1169     1.7705     0.9410 N.pl3   
  13 C13            6.1448     2.1703     0.0277 C.2     
  14 N14           -1.1801    -0.7274    -0.4349 N.pl3   
  15 C15           -1.9890    -1.1081     0.5879 C.2     
  16 C16           -1.7627    -1.1700    -1.5944 C.2     
  17 C17           -2.8965    -1.8060    -1.2430 C.2     
  18 N18           -3.0098    -1.7532     0.0924 N.2     
  19 C19           -3.8715    -2.4606    -2.1874 C.3     
  20 N20           -0.2600     2.9842     1.7128 N.2     
  21 O21           -0.8598     1.8394     1.1399 O.3     
  22 C22            8.3150     2.5940     1.1174 C.3     
  23 C23            8.6991     3.1732    -0.2448 C.3     
  24 O24            7.6102     3.7760    -0.9293 O.3     
  25 N25            6.3704     3.1116    -0.8310 N.2     
  26 C26            8.0248     3.7141     2.0830 C.ar    
  27 C27            8.9740     4.0833     3.0179 C.ar    
  28 C28            8.7092     5.1105     3.9035 C.ar    
  29 C29            7.4928     5.7701     3.8543 C.ar    
  30 C30            6.5430     5.3994     2.9175 C.ar    
  31 C31            6.8120     4.3754     2.0294 C.ar    
  32 F32            7.2327     6.7742     4.7199 F       
  33 C33            0.9928     3.0357     1.3745 C.2     
  34 C34            6.3436    -1.9575     1.2192 C.3     
  35 C35            7.0930    -1.4183    -0.0007 C.3     
  36 C36            9.9647     4.0427    -0.2019 C.3     
  37 O37           10.3414     3.3487    -1.4092 O.3     
  38 C38            9.5172     2.2030    -1.1099 C.3     
  39 H39            1.1152    -1.3826    -1.5471 H       
  40 H40            3.2311    -0.1525    -1.3753 H       
  41 H41            4.0530    -0.3628     0.8499 H       
  42 H42            4.7615    -0.5052    -0.7768 H       
  43 H43            3.6880     3.2108    -0.0164 H       
  44 H44            6.2754     0.7679     2.5799 H       
  45 H45            7.8626     0.1537     2.0497 H       
  46 H46           -1.8162    -0.9105     1.6355 H       
  47 H47           -1.3851    -1.0343    -2.5970 H       
  48 H48           -3.5873    -3.5020    -2.3388 H       
  49 H49           -4.8744    -2.4158    -1.7629 H       
  50 H50           -3.8580    -1.9376    -3.1436 H       
  51 H51            9.1306     1.9800     1.4994 H       
  52 H52            9.9226     3.5684     3.0563 H       
  53 H53            9.4507     5.3986     4.6341 H       
  54 H54            5.5938     5.9132     2.8782 H       
  55 H55            6.0713     4.0861     1.2986 H       
  56 H56            1.7014     3.7987     1.6610 H       
  57 H57            6.9297    -2.1867     2.1092 H       
  58 H58            5.4897    -2.6100     1.0374 H       
  59 H59            6.7323    -1.7164    -0.9851 H       
  60 H60            8.1722    -1.2930     0.0866 H       
  61 H61            9.7745     5.1063    -0.3453 H       
  62 H62           10.6146     3.8345     0.6480 H       
  63 H63           10.0292     1.4278    -0.5399 H       
  64 H64            8.9736     1.8134    -1.9706 H       
@<TRIPOS>BOND
   1    1    2 ar
   2    1    6 ar
   3    1   21 1
   4    2    3 ar
   5    2   14 1
   6    3    4 ar
   7    3   39 1
   8    4    5 ar
   9    4   40 1
  10    5    6 ar
  11    5    9 1
  12    6   33 1
  13    7    8 1
  14    7   10 1
  15    7   41 1
  16    7   42 1
  17    8    9 2
  18    8   13 1
  19    9   43 1
  20   10   11 1
  21   10   34 1
  22   10   35 1
  23   11   12 1
  24   11   44 1
  25   11   45 1
  26   12   13 1
  27   12   22 1
  28   13   25 2
  29   14   15 1
  30   14   16 1
  31   15   18 2
  32   15   46 1
  33   16   17 2
  34   16   47 1
  35   17   18 1
  36   17   19 1
  37   19   48 1
  38   19   49 1
  39   19   50 1
  40   20   21 1
  41   20   33 2
  42   22   23 1
  43   22   26 1
  44   22   51 1
  45   23   24 1
  46   23   36 1
  47   23   38 1
  48   24   25 1
  49   26   27 ar
  50   26   31 ar
  51   27   28 ar
  52   27   52 1
  53   28   29 ar
  54   28   53 1
  55   29   30 ar
  56   29   32 1
  57   30   31 ar
  58   30   54 1
  59   31   55 1
  60   33   56 1
  61   34   35 1
  62   34   57 1
  63   34   58 1
  64   35   59 1
  65   35   60 1
  66   36   37 1
  67   36   61 1
  68   36   62 1
  69   37   38 1
  70   38   63 1
  71   38   64 1

#	End of record

