#	Name: ASD01140698
#	Creating user name:	WinNT
#	Creation time:	15. 06. 2019 19:01

#	Modifying user name:	WinNT
#	Modification time:	15. 06. 2019 19:01

#	Program:	/corina/corina34_cracker 3.40 0067  02.08.2006

@<TRIPOS>MOLECULE
ASD01140698
  48   51    0    0    0
SMALL
NO_CHARGES


@<TRIPOS>ATOM
   1 C1            -0.0187     1.5258     0.0104 C.3     
   2 C2             0.0021    -0.0041     0.0020 C.3     
   3 N3             0.7106    -0.4894     1.1889 N.pl3   
   4 N4             2.0857    -0.7392     1.2794 N.2     
   5 C5             2.3786    -1.1604     2.4772 C.2     
   6 C6             1.1934    -1.2071     3.2381 C.ar    
   7 C7             0.8761    -1.5704     4.5653 C.ar    
   8 C8            -0.4591    -1.4757     4.9509 C.ar    
   9 N9            -1.3693    -1.0602     4.0885 N.ar    
  10 N10           -1.0923    -0.7275     2.8800 N.ar    
  11 C11            0.1441    -0.7712     2.4022 C.ar    
  12 C12            1.9202    -2.0337     5.5086 C.ar    
  13 C13            2.8132    -3.0350     5.1256 C.ar    
  14 C14            3.7870    -3.4677     6.0028 C.ar    
  15 C15            3.8833    -2.9120     7.2662 C.ar    
  16 F16            4.8384    -3.3402     8.1204 F       
  17 C17            2.9947    -1.9088     7.6596 C.ar    
  18 C18            2.0155    -1.4662     6.7771 C.ar    
  19 C19            3.0987    -1.3129     9.0145 C.ar    
  20 C20            3.1201     0.0717     9.1697 C.ar    
  21 C21            3.2164     0.6206    10.4324 C.ar    
  22 C22            3.2922    -0.2011    11.5425 C.ar    
  23 C23            3.2715    -1.5762    11.3943 C.ar    
  24 C24            3.1696    -2.1358    10.1367 C.ar    
  25 S25            3.4163     0.5065    13.1514 S.o2    
  26 O26            4.0726    -0.4901    13.9229 O.2     
  27 O27            4.0164     1.7755    12.9308 O.2     
  28 C28            1.6963     0.7014    13.6940 C.3     
  29 C29            1.6700     1.3145    15.0956 C.3     
  30 H30            1.0039     1.9031     0.0027 H       
  31 H31           -0.5459     1.8868    -0.8726 H       
  32 H32           -0.5289     1.8773     0.9072 H       
  33 H33           -1.0205    -0.3814     0.0098 H       
  34 H34            0.5123    -0.3556    -0.8948 H       
  35 H35            3.3641    -1.4292     2.8277 H       
  36 H36           -0.7505    -1.7427     5.9560 H       
  37 H37            2.7421    -3.4726     4.1408 H       
  38 H38            4.4761    -4.2430     5.7020 H       
  39 H39            1.3287    -0.6880     7.0756 H       
  40 H40            3.0616     0.7141     8.3035 H       
  41 H41            3.2331     1.6936    10.5538 H       
  42 H42            3.3309    -2.2131    12.2645 H       
  43 H43            3.1493    -3.2095    10.0224 H       
  44 H44            1.1687     1.3566    13.0009 H       
  45 H45            1.2092    -0.2735    13.7147 H       
  46 H46            2.1977     0.6593    15.7887 H       
  47 H47            2.1572     2.2893    15.0749 H       
  48 H48            0.6366     1.4316    15.4216 H       
@<TRIPOS>BOND
   1    1    2 1
   2    1   30 1
   3    1   31 1
   4    1   32 1
   5    2    3 1
   6    2   33 1
   7    2   34 1
   8    3   11 1
   9    3    4 1
  10    4    5 2
  11    5    6 1
  12    5   35 1
  13    6   11 ar
  14    6    7 ar
  15    7    8 ar
  16    7   12 1
  17    8    9 ar
  18    8   36 1
  19    9   10 ar
  20   10   11 ar
  21   12   18 ar
  22   12   13 ar
  23   13   14 ar
  24   13   37 1
  25   14   15 ar
  26   14   38 1
  27   15   16 1
  28   15   17 ar
  29   17   18 ar
  30   17   19 1
  31   18   39 1
  32   19   24 ar
  33   19   20 ar
  34   20   21 ar
  35   20   40 1
  36   21   22 ar
  37   21   41 1
  38   22   23 ar
  39   22   25 1
  40   23   24 ar
  41   23   42 1
  42   24   43 1
  43   25   26 2
  44   25   27 2
  45   25   28 1
  46   28   29 1
  47   28   44 1
  48   28   45 1
  49   29   46 1
  50   29   47 1
  51   29   48 1

#	End of record

