#	Name: ASD01917725
#	Creating user name:	WinNT
#	Creation time:	15. 06. 2019 20:09

#	Modifying user name:	WinNT
#	Modification time:	15. 06. 2019 20:09

#	Program:	/corina/corina34_cracker 3.40 0067  02.08.2006

@<TRIPOS>MOLECULE
ASD01917725
  42   44    0    0    0
SMALL
NO_CHARGES


@<TRIPOS>ATOM
   1 C1            -0.0189     1.5420     0.0105 C.3     
   2 C2             0.0021    -0.0041     0.0020 C.3     
   3 C3             1.3442    -0.3602     0.6025 C.2     
   4 N4             2.1544     0.7123     0.5924 N.am    
   5 C5             1.4890     1.8776    -0.0021 C.3     
   6 C6             3.5253     0.7176     1.1090 C.3     
   7 O7             1.6451    -1.4541     1.0311 O.2     
   8 C8            -1.1170    -0.5514     0.8500 C.ar    
   9 N9            -2.2594    -0.8846     0.2799 N.ar    
  10 C10           -3.2685    -1.3675     0.9740 C.ar    
  11 C11           -3.1596    -1.5443     2.3560 C.ar    
  12 C12           -1.9581    -1.1991     2.9891 C.ar    
  13 C13           -0.9273    -0.7013     2.2120 C.ar    
  14 C14           -4.2586    -2.0641     3.1127 C.1     
  15 C15           -5.1596    -2.4902     3.7331 C.1     
  16 C16           -6.2586    -3.0100     4.4898 C.ar    
  17 C17           -7.4632    -3.3575     3.8646 C.ar    
  18 C18           -8.4961    -3.8554     4.6336 C.ar    
  19 N19           -8.3588    -4.0047     5.9383 N.ar    
  20 C20           -7.2413    -3.6897     6.5663 C.ar    
  21 C21           -6.1573    -3.1910     5.8767 C.ar    
  22 C22            1.9726     2.0879    -1.4383 C.3     
  23 C23            1.7603     3.1276     0.8374 C.3     
  24 Cl24          -9.9958    -4.2904     3.8750 Cl      
  25 H25           -0.5124     1.9304    -0.8804 H       
  26 H26           -0.4952     1.9207     0.9148 H       
  27 H27           -0.0716    -0.3810    -1.0181 H       
  28 H28            3.7724    -0.2719     1.4936 H       
  29 H29            4.2150     0.9780     0.3061 H       
  30 H30            3.6084     1.4505     1.9114 H       
  31 H31           -4.1880    -1.6288     0.4714 H       
  32 H32           -1.8398    -1.3186     4.0559 H       
  33 H33            0.0146    -0.4286     2.6648 H       
  34 H34           -7.5820    -3.2375     2.7979 H       
  35 H35           -7.1740    -3.8287     7.6353 H       
  36 H36           -5.2463    -2.9359     6.3977 H       
  37 H37            1.7647     1.1939    -2.0263 H       
  38 H38            1.4521     2.9397    -1.8759 H       
  39 H39            3.0456     2.2798    -1.4360 H       
  40 H40            2.8317     3.3271     0.8563 H       
  41 H41            1.2397     3.9793     0.3995 H       
  42 H42            1.4026     2.9669     1.8544 H       
@<TRIPOS>BOND
   1    1    2 1
   2    1    5 1
   3    1   25 1
   4    1   26 1
   5    2    3 1
   6    2    8 1
   7    2   27 1
   8    3    4 am
   9    3    7 2
  10    4    5 1
  11    4    6 1
  12    5   22 1
  13    5   23 1
  14    6   28 1
  15    6   29 1
  16    6   30 1
  17    8    9 ar
  18    8   13 ar
  19    9   10 ar
  20   10   11 ar
  21   10   31 1
  22   11   12 ar
  23   11   14 1
  24   12   13 ar
  25   12   32 1
  26   13   33 1
  27   14   15 3
  28   15   16 1
  29   16   17 ar
  30   16   21 ar
  31   17   18 ar
  32   17   34 1
  33   18   19 ar
  34   18   24 1
  35   19   20 ar
  36   20   21 ar
  37   20   35 1
  38   21   36 1
  39   22   37 1
  40   22   38 1
  41   22   39 1
  42   23   40 1
  43   23   41 1
  44   23   42 1

#	End of record

