#	Name: ASD01911072
#	Creating user name:	WinNT
#	Creation time:	15. 06. 2019 19:57

#	Modifying user name:	WinNT
#	Modification time:	15. 06. 2019 19:57

#	Program:	/corina/corina34_cracker 3.40 0067  02.08.2006

@<TRIPOS>MOLECULE
ASD01911072
  48   51    0    0    0
SMALL
NO_CHARGES


@<TRIPOS>ATOM
   1 N1             0.2559     1.0871    -0.0663 N.3     
   2 C2             0.0722    -0.3354     0.2512 C.3     
   3 C3            -1.4228    -0.6302     0.4136 C.3     
   4 N4            -2.1241    -0.1668    -0.7932 N.am    
   5 C5            -1.8826     1.2091    -1.2534 C.3     
   6 C6            -0.3696     1.4315    -1.3501 C.3     
   7 C7            -2.9662    -0.9813    -1.4596 C.2     
   8 C8            -3.7594    -0.4580    -2.5918 C.ar    
   9 C9            -3.9447    -1.2380    -3.7359 C.ar    
  10 C10           -4.6846    -0.7519    -4.7952 C.ar    
  11 C11           -5.2472     0.5086    -4.7325 C.ar    
  12 C12           -5.0694     1.3009    -3.5922 C.ar    
  13 C13           -4.3282     0.8119    -2.5173 C.ar    
  14 C14           -5.6520     2.6074    -3.5276 C.1     
  15 O15           -3.0733    -2.1463    -1.1296 O.2     
  16 C16           -6.1297     3.6786    -3.4746 C.1     
  17 C17           -6.7123     4.9851    -3.4100 C.ar    
  18 C18           -6.5412     5.7842    -2.2770 C.ar    
  19 N19           -7.0774     6.9855    -2.2183 N.ar    
  20 C20           -7.7894     7.4803    -3.2125 C.ar    
  21 C21           -8.0052     6.7522    -4.3692 C.ar    
  22 C22           -7.4592     5.4866    -4.4847 C.ar    
  23 C23            1.6039     1.4289    -0.0611 C.ar    
  24 Cl24          -6.1753     1.1109    -6.0703 Cl      
  25 C25            1.9975     2.6764     0.4148 C.ar    
  26 C26            3.3426     3.0028     0.4145 C.ar    
  27 C27            4.2510     2.0677    -0.0632 C.ar    
  28 C28            3.7902     0.8493    -0.5203 C.ar    
  29 N29            2.5022     0.5629    -0.5037 N.ar    
  30 Cl30           0.8176     3.8074     1.0001 Cl      
  31 H31            0.4772    -0.9438    -0.5574 H       
  32 H32            0.5923    -0.5708     1.1797 H       
  33 H33           -1.5733    -1.7028     0.5355 H       
  34 H34           -1.8074    -0.1021     1.2862 H       
  35 H35           -2.3372     1.3525    -2.2336 H       
  36 H36           -2.3115     1.9140    -0.5411 H       
  37 H37           -0.1698     2.4774    -1.5830 H       
  38 H38            0.0416     0.7985    -2.1365 H       
  39 H39           -3.5077    -2.2240    -3.7919 H       
  40 H40           -4.8240    -1.3596    -5.6770 H       
  41 H41           -4.1875     1.4184    -1.6348 H       
  42 H42           -5.9649     5.4136    -1.4422 H       
  43 H43           -8.2113     8.4704    -3.1220 H       
  44 H44           -8.5902     7.1696    -5.1754 H       
  45 H45           -7.6117     4.8968    -5.3765 H       
  46 H46            3.6780     3.9632     0.7773 H       
  47 H47            5.3075     2.2914    -0.0773 H       
  48 H48            4.4936     0.1194    -0.8930 H       
@<TRIPOS>BOND
   1    1    2 1
   2    1   23 1
   3    1    6 1
   4    2    3 1
   5    2   31 1
   6    2   32 1
   7    3    4 1
   8    3   33 1
   9    3   34 1
  10    4    5 1
  11    4    7 am
  12    5    6 1
  13    5   35 1
  14    5   36 1
  15    6   37 1
  16    6   38 1
  17    7    8 1
  18    7   15 2
  19    8    9 ar
  20    8   13 ar
  21    9   10 ar
  22    9   39 1
  23   10   11 ar
  24   10   40 1
  25   11   12 ar
  26   11   24 1
  27   12   13 ar
  28   12   14 1
  29   13   41 1
  30   14   16 3
  31   16   17 1
  32   17   18 ar
  33   17   22 ar
  34   18   19 ar
  35   18   42 1
  36   19   20 ar
  37   20   21 ar
  38   20   43 1
  39   21   22 ar
  40   21   44 1
  41   22   45 1
  42   23   25 ar
  43   23   29 ar
  44   25   26 ar
  45   25   30 1
  46   26   27 ar
  47   26   46 1
  48   27   28 ar
  49   27   47 1
  50   28   29 ar
  51   28   48 1

#	End of record

