#	Name: ASD04910474
#	Creating user name:	WinNT
#	Creation time:	15. 06. 2019 20:56

#	Modifying user name:	WinNT
#	Modification time:	15. 06. 2019 20:56

#	Program:	/corina/corina34_cracker 3.40 0067  02.08.2006

@<TRIPOS>MOLECULE
ASD04910474
  77   80    0    0    0
SMALL
NO_CHARGES


@<TRIPOS>ATOM
   1 C1             1.6062     1.4615     0.4345 C.2     
   2 C2             1.3565    -0.0228     0.3599 C.3     
   3 C3             2.6932    -0.7668     0.3873 C.3     
   4 O4             2.7371     1.8812     0.5025 O.2     
   5 O5             0.5723     2.3175     0.4197 O.3     
   6 C6             3.4888    -3.0690     0.3240 C.2     
   7 C7             3.2439    -4.5252     0.2509 C.ar    
   8 C8             4.3169    -5.4178     0.2602 C.ar    
   9 C9             4.0815    -6.7754     0.1922 C.ar    
  10 C10            2.7851    -7.2528     0.1143 C.ar    
  11 C11            1.7170    -6.3734     0.1046 C.ar    
  12 C12            1.9384    -5.0136     0.1780 C.ar    
  13 O13            4.6266    -2.6468     0.3925 O.2     
  14 N14            2.4505    -2.2098     0.3148 N.am    
  15 C15            2.5355    -8.7370     0.0393 C.3     
  16 C16            2.1417    -9.2586     1.4227 C.3     
  17 C17            1.7578   -10.7476     1.4333 C.3     
  18 C18            2.5164   -10.8528     2.7668 C.3     
  19 C19            3.3438    -9.6431     2.3013 C.3     
  20 C20            1.6457   -10.5651     3.9916 C.3     
  21 C21            3.3349   -12.1379     2.9066 C.3     
  22 O22            1.4780    -8.9960    -0.8862 O.3     
  23 C23            1.8161    -9.0880    -2.1997 C.ar    
  24 C24            0.8593    -9.4454    -3.1387 C.ar    
  25 C25            1.2021    -9.5385    -4.4729 C.ar    
  26 C26            2.5044    -9.2744    -4.8748 C.ar    
  27 C27            3.4615    -8.9168    -3.9348 C.ar    
  28 C28            3.1165    -8.8188    -2.6016 C.ar    
  29 N29            2.8533    -9.3693    -6.2304 N.pl3   
  30 N30            2.5928   -10.4564    -7.0746 N.2     
  31 C31            3.0676   -10.1756    -8.2617 C.2     
  32 C32            3.6450    -8.9024    -8.2124 C.2     
  33 C33            3.4954    -8.4254    -6.9547 C.2     
  34 C34            4.3105    -8.1858    -9.3590 C.3     
  35 F35            4.2664    -8.9921   -10.5014 F       
  36 F36            3.6398    -6.9840    -9.6101 F       
  37 F37            5.6432    -7.9160    -9.0298 F       
  38 C38            4.8754    -8.6299    -4.3704 C.3     
  39 C39            0.1628    -9.9272    -5.4927 C.3     
  40 C40            0.8874     3.7329     0.4946 C.3     
  41 C41           -0.4083     4.5460     0.4652 C.3     
  42 H42            0.7508    -0.3326     1.2115 H       
  43 H43            0.8295    -0.2566    -0.5651 H       
  44 H44            3.2989    -0.4570    -0.4643 H       
  45 H45            3.2202    -0.5330     1.3123 H       
  46 H46            5.3293    -5.0464     0.3202 H       
  47 H47            4.9108    -7.4671     0.1993 H       
  48 H48            0.7075    -6.7524     0.0437 H       
  49 H49            1.1036    -4.3284     0.1748 H       
  50 H50            1.5426    -2.5467     0.2602 H       
  51 H51            3.4422    -9.2415    -0.2946 H       
  52 H52            1.4182    -8.6175     1.9265 H       
  53 H53            0.6857   -10.9215     1.5260 H       
  54 H54            2.2124   -11.3216     0.6259 H       
  55 H55            4.2321    -9.9150     1.7311 H       
  56 H56            3.5522    -8.9252     3.0946 H       
  57 H57            0.8229   -11.2790     4.0283 H       
  58 H58            2.2479   -10.6580     4.8954 H       
  59 H59            1.2461    -9.5533     3.9237 H       
  60 H60            4.0741   -12.1866     2.1071 H       
  61 H61            3.8422   -12.1424     3.8714 H       
  62 H62            2.6714   -13.0002     2.8410 H       
  63 H63           -0.1537    -9.6512    -2.8259 H       
  64 H64            3.8599    -8.5363    -1.8708 H       
  65 H65            3.0216   -10.8167    -9.1296 H       
  66 H66            3.8310    -7.4644    -6.5937 H       
  67 H67            4.9516    -7.5928    -4.6969 H       
  68 H68            5.5544    -8.7986    -3.5346 H       
  69 H69            5.1428    -9.2910    -5.1949 H       
  70 H70           -0.2631    -9.0282    -5.9383 H       
  71 H71            0.6262   -10.5338    -6.2707 H       
  72 H72           -0.6265   -10.5007    -5.0066 H       
  73 H73            1.4236     3.9372     1.4213 H       
  74 H74            1.5107     4.0118    -0.3550 H       
  75 H75           -0.9446     4.3417    -0.4615 H       
  76 H76           -1.0317     4.2671     1.3147 H       
  77 H77           -0.1718     5.6086     0.5214 H       
@<TRIPOS>BOND
   1    1    2 1
   2    1    4 2
   3    1    5 1
   4    2    3 1
   5    2   42 1
   6    2   43 1
   7    3   14 1
   8    3   44 1
   9    3   45 1
  10    5   40 1
  11    6    7 1
  12    6   13 2
  13    6   14 am
  14    7    8 ar
  15    7   12 ar
  16    8    9 ar
  17    8   46 1
  18    9   10 ar
  19    9   47 1
  20   10   11 ar
  21   10   15 1
  22   11   12 ar
  23   11   48 1
  24   12   49 1
  25   14   50 1
  26   15   16 1
  27   15   22 1
  28   15   51 1
  29   16   17 1
  30   16   19 1
  31   16   52 1
  32   17   18 1
  33   17   53 1
  34   17   54 1
  35   18   19 1
  36   18   20 1
  37   18   21 1
  38   19   55 1
  39   19   56 1
  40   20   57 1
  41   20   58 1
  42   20   59 1
  43   21   60 1
  44   21   61 1
  45   21   62 1
  46   22   23 1
  47   23   24 ar
  48   23   28 ar
  49   24   25 ar
  50   24   63 1
  51   25   26 ar
  52   25   39 1
  53   26   27 ar
  54   26   29 1
  55   27   28 ar
  56   27   38 1
  57   28   64 1
  58   29   30 1
  59   29   33 1
  60   30   31 2
  61   31   32 1
  62   31   65 1
  63   32   33 2
  64   32   34 1
  65   33   66 1
  66   34   35 1
  67   34   36 1
  68   34   37 1
  69   38   67 1
  70   38   68 1
  71   38   69 1
  72   39   70 1
  73   39   71 1
  74   39   72 1
  75   40   41 1
  76   40   73 1
  77   40   74 1
  78   41   75 1
  79   41   76 1
  80   41   77 1

#	End of record

