#	Name: ASD01000072
#	Creating user name:	WinNT
#	Creation time:	15. 06. 2019 18:54

#	Modifying user name:	WinNT
#	Modification time:	15. 06. 2019 18:54

#	Program:	/corina/corina34_cracker 3.40 0067  02.08.2006

@<TRIPOS>MOLECULE
ASD01000072
  50   52    0    0    0
SMALL
NO_CHARGES


@<TRIPOS>ATOM
   1 C1             1.1554     1.1251    -1.7794 C.ar    
   2 C2             1.3279    -0.2310    -1.5736 C.ar    
   3 C3             1.0159    -0.7893    -0.3481 C.ar    
   4 C4             0.5319     0.0085     0.6718 C.ar    
   5 C5             0.3603     1.3647     0.4663 C.ar    
   6 C6             0.6709     1.9228    -0.7597 C.ar    
   7 C7             1.2030    -2.2677    -0.1241 C.3     
   8 C8             1.0147    -2.5821     1.3376 C.ar    
   9 C9             0.0614    -3.5034     1.7292 C.ar    
  10 C10           -0.1115    -3.7918     3.0700 C.ar    
  11 C11            0.6693    -3.1592     4.0193 C.ar    
  12 C12            1.6233    -2.2385     3.6277 C.ar    
  13 C13            1.7990    -1.9534     2.2865 C.ar    
  14 S14           -0.0172    -3.1867    -1.1024 S.3     
  15 C15           -1.5907    -2.4354    -0.6023 C.3     
  16 C16           -2.7479    -3.1894    -1.2604 C.3     
  17 C17            2.5923    -2.6683    -0.5491 C.ar    
  18 C18            2.8368    -3.9569    -0.9864 C.ar    
  19 C19            3.6207    -1.7460    -0.5071 C.ar    
  20 C20            4.8952    -2.1135    -0.8970 C.ar    
  21 C21            5.1410    -3.4034    -1.3284 C.ar    
  22 C22            4.1109    -4.3243    -1.3762 C.ar    
  23 N23           -2.7926    -4.5643    -0.7449 N.3     
  24 C24            4.3788    -5.7308    -1.8466 C.3     
  25 C25           -4.0460    -2.4921    -0.9446 C.2     
  26 O26           -4.7615    -2.9155    -0.0678 O.2     
  27 O27           -4.4074    -1.4007    -1.6373 O.3     
  28 H28            1.4033     1.5620    -2.7354 H       
  29 H29            1.7060    -0.8542    -2.3705 H       
  30 H30            0.2875    -0.4278     1.6290 H       
  31 H31           -0.0185     1.9879     1.2629 H       
  32 H32            0.5371     2.9824    -0.9201 H       
  33 H33           -0.5487    -3.9976     0.9876 H       
  34 H34           -0.8568    -4.5110     3.3760 H       
  35 H35            0.5338    -3.3839     5.0669 H       
  36 H36            2.2330    -1.7440     4.3693 H       
  37 H37            2.5443    -1.2341     1.9805 H       
  38 H38           -1.6911    -2.4901     0.4817 H       
  39 H39           -1.6113    -1.3919    -0.9168 H       
  40 H40           -2.6003    -3.2108    -2.3401 H       
  41 H41            2.0323    -4.6765    -1.0231 H       
  42 H42            3.4287    -0.7380    -0.1700 H       
  43 H43            5.6988    -1.3926    -0.8649 H       
  44 H44            6.1365    -3.6904    -1.6334 H       
  45 H45           -1.9596    -5.0733    -1.0000 H       
  46 H46           -2.9288    -4.5714     0.2548 H       
  47 H47            4.6519    -6.3531    -0.9944 H       
  48 H48            3.4822    -6.1332    -2.3179 H       
  49 H49            5.1961    -5.7232    -2.5677 H       
  50 H50           -5.2487    -0.9879    -1.3986 H       
@<TRIPOS>BOND
   1    1    2 ar
   2    1    6 ar
   3    1   28 1
   4    2    3 ar
   5    2   29 1
   6    3    4 ar
   7    3    7 1
   8    4    5 ar
   9    4   30 1
  10    5    6 ar
  11    5   31 1
  12    6   32 1
  13    7    8 1
  14    7   14 1
  15    7   17 1
  16    8    9 ar
  17    8   13 ar
  18    9   10 ar
  19    9   33 1
  20   10   11 ar
  21   10   34 1
  22   11   12 ar
  23   11   35 1
  24   12   13 ar
  25   12   36 1
  26   13   37 1
  27   14   15 1
  28   15   16 1
  29   15   38 1
  30   15   39 1
  31   16   25 1
  32   16   23 1
  33   16   40 1
  34   17   18 ar
  35   17   19 ar
  36   18   22 ar
  37   18   41 1
  38   19   20 ar
  39   19   42 1
  40   20   21 ar
  41   20   43 1
  42   21   22 ar
  43   21   44 1
  44   22   24 1
  45   23   45 1
  46   23   46 1
  47   24   47 1
  48   24   48 1
  49   24   49 1
  50   25   26 2
  51   25   27 1
  52   27   50 1

#	End of record

