#	Name: ASD01510104
#	Creating user name:	WinNT
#	Creation time:	15. 06. 2019 19:21

#	Modifying user name:	WinNT
#	Modification time:	15. 06. 2019 19:21

#	Program:	/corina/corina34_cracker 3.40 0067  02.08.2006

@<TRIPOS>MOLECULE
ASD01510104
  45   47    0    0    0
SMALL
NO_CHARGES


@<TRIPOS>ATOM
   1 C1            -0.2887     1.4158    -0.0531 C.3     
   2 O2            -0.1892    -0.0097    -0.0440 O.3     
   3 C3             0.3022    -0.6003    -1.1633 C.ar    
   4 N4             0.6612     0.1464    -2.1939 N.ar    
   5 C5             1.1453    -0.3893    -3.3050 C.ar    
   6 C6             1.2932    -1.7648    -3.4257 C.ar    
   7 C7             0.9281    -2.5812    -2.3673 C.ar    
   8 C8             0.4286    -1.9874    -1.2129 C.ar    
   9 S9            -0.0512    -2.9770     0.1637 S.3     
  10 C10            0.1299    -4.6199    -0.4468 C.ar    
  11 C11            1.3177    -5.3122    -0.2406 C.ar    
  12 C12            1.4601    -6.6004    -0.7186 C.ar    
  13 C13            0.4236    -7.2051    -1.4034 C.ar    
  14 C14           -0.7668    -6.5187    -1.6137 C.ar    
  15 C15           -0.9159    -5.2271    -1.1298 C.ar    
  16 N16           -1.8138    -7.1309    -2.3064 N.pl3   
  17 N17            1.5099     0.4375    -4.3651 N.3     
  18 C18            1.2752     1.8503    -4.0360 C.3     
  19 C19            1.7611     2.7281    -5.1917 C.3     
  20 N20            1.0503     2.3518    -6.4216 N.3     
  21 C21            1.2849     0.9390    -6.7508 C.3     
  22 C22            0.7990     0.0612    -5.5950 C.3     
  23 C23            1.4348     3.2237    -7.5396 C.3     
  24 H24            0.7007     1.8482    -0.2021 H       
  25 H25           -0.9478     1.7289    -0.8629 H       
  26 H26           -0.6950     1.7578     0.8988 H       
  27 H27            1.6882    -2.1937    -4.3348 H       
  28 H28            1.0330    -3.6539    -2.4356 H       
  29 H29            2.1302    -4.8422     0.2937 H       
  30 H30            2.3839    -7.1360    -0.5571 H       
  31 H31            0.5384    -8.2122    -1.7760 H       
  32 H32           -1.8397    -4.6916    -1.2918 H       
  33 H33           -1.7105    -8.0354    -2.6410 H       
  34 H34           -2.6443    -6.6514    -2.4529 H       
  35 H35            0.2094     2.0147    -3.8777 H       
  36 H36            1.8219     2.1080    -3.1288 H       
  37 H37            1.5617     3.7749    -4.9622 H       
  38 H38            2.8324     2.5841    -5.3323 H       
  39 H39            0.7382     0.6813    -7.6579 H       
  40 H40            2.3508     0.7746    -6.9091 H       
  41 H41            0.9985    -0.9856    -5.8246 H       
  42 H42           -0.2722     0.2052    -5.4545 H       
  43 H43            2.5071     3.1376    -7.7154 H       
  44 H44            0.8942     2.9234    -8.4372 H       
  45 H45            1.1884     4.2572    -7.2958 H       
@<TRIPOS>BOND
   1    1    2 1
   2    1   24 1
   3    1   25 1
   4    1   26 1
   5    2    3 1
   6    3    4 ar
   7    3    8 ar
   8    4    5 ar
   9    5    6 ar
  10    5   17 1
  11    6    7 ar
  12    6   27 1
  13    7    8 ar
  14    7   28 1
  15    8    9 1
  16    9   10 1
  17   10   11 ar
  18   10   15 ar
  19   11   12 ar
  20   11   29 1
  21   12   13 ar
  22   12   30 1
  23   13   14 ar
  24   13   31 1
  25   14   15 ar
  26   14   16 1
  27   15   32 1
  28   16   33 1
  29   16   34 1
  30   17   18 1
  31   17   22 1
  32   18   19 1
  33   18   35 1
  34   18   36 1
  35   19   20 1
  36   19   37 1
  37   19   38 1
  38   20   21 1
  39   20   23 1
  40   21   22 1
  41   21   39 1
  42   21   40 1
  43   22   41 1
  44   22   42 1
  45   23   43 1
  46   23   44 1
  47   23   45 1

#	End of record

