#	Name: ASD01911556
#	Creating user name:	WinNT
#	Creation time:	15. 06. 2019 19:58

#	Modifying user name:	WinNT
#	Modification time:	15. 06. 2019 19:58

#	Program:	/corina/corina34_cracker 3.40 0067  02.08.2006

@<TRIPOS>MOLECULE
ASD01911556
  37   39    0    0    0
SMALL
NO_CHARGES


@<TRIPOS>ATOM
   1 N1            -0.0162     1.3436     0.0094 N.am    
   2 C2             1.2424     2.0932     0.0014 C.3     
   3 C3             0.0021    -0.0041     0.0020 C.2     
   4 C4            -1.2566    -0.7538     0.0100 C.2     
   5 C5            -1.3813    -2.1170     0.0039 C.2     
   6 S6            -2.8763    -0.0590     0.0369 S.3     
   7 C7            -3.5692    -1.6782     0.0299 C.2     
   8 N8            -2.6048    -2.5646     0.0136 N.2     
   9 C9            -4.9692    -1.9790     0.0444 C.1     
  10 C10           -6.1169    -2.2256     0.0564 C.1     
  11 C11           -7.5169    -2.5264     0.0709 C.ar    
  12 C12           -7.9497    -3.8557     0.0634 C.ar    
  13 C13           -9.3017    -4.1375     0.0780 C.ar    
  14 C14          -10.2271    -3.1055     0.1000 C.ar    
  15 C15           -9.8043    -1.7883     0.1075 C.ar    
  16 C16           -8.4572    -1.4921     0.0985 C.ar    
  17 O17            1.0643    -0.5982    -0.0113 O.2     
  18 C18            1.0190     3.4919    -0.5999 C.3     
  19 F19           -9.7231    -5.4211     0.0704 F       
  20 C20            1.3869     4.5086     0.5004 C.3     
  21 C21            2.3523     3.7307     1.4289 C.3     
  22 C22            1.7383     2.3088     1.4462 C.3     
  23 H23           -0.8627     1.8170     0.0241 H       
  24 H24            1.9940     1.5544    -0.5756 H       
  25 H25           -0.5253    -2.7754    -0.0085 H       
  26 H26           -7.2291    -4.6599     0.0460 H       
  27 H27          -11.2833    -3.3309     0.1110 H       
  28 H28          -10.5310    -0.9896     0.1243 H       
  29 H29           -8.1295    -0.4631     0.1043 H       
  30 H30            1.6628     3.6322    -1.4682 H       
  31 H31           -0.0258     3.6129    -0.8858 H       
  32 H32            1.8885     5.3742     0.0678 H       
  33 H33            0.4964     4.8169     1.0482 H       
  34 H34            3.3588     3.7118     1.0110 H       
  35 H35            2.3566     4.1618     2.4300 H       
  36 H36            0.9045     2.2618     2.1467 H       
  37 H37            2.4963     1.5691     1.7038 H       
@<TRIPOS>BOND
   1    1    3 am
   2    1    2 1
   3    1   23 1
   4    2   18 1
   5    2   22 1
   6    2   24 1
   7    3    4 1
   8    3   17 2
   9    4    5 2
  10    4    6 1
  11    5    8 1
  12    5   25 1
  13    6    7 1
  14    7    8 2
  15    7    9 1
  16    9   10 3
  17   10   11 1
  18   11   12 ar
  19   11   16 ar
  20   12   13 ar
  21   12   26 1
  22   13   14 ar
  23   13   19 1
  24   14   15 ar
  25   14   27 1
  26   15   16 ar
  27   15   28 1
  28   16   29 1
  29   18   20 1
  30   18   30 1
  31   18   31 1
  32   20   21 1
  33   20   32 1
  34   20   33 1
  35   21   22 1
  36   21   34 1
  37   21   35 1
  38   22   36 1
  39   22   37 1

#	End of record

