#	Name: ASD00310433
#	Creating user name:	WinNT
#	Creation time:	15. 06. 2019 18:34

#	Modifying user name:	WinNT
#	Modification time:	15. 06. 2019 18:34

#	Program:	/corina/corina34_cracker 3.40 0067  02.08.2006

@<TRIPOS>MOLECULE
ASD00310433
  40   42    0    0    0
SMALL
NO_CHARGES


@<TRIPOS>ATOM
   1 N1            -0.0163     1.3506     0.0095 N.pl3   
   2 C2             0.0021    -0.0041     0.0020 C.2     
   3 C3             1.2920    -0.4478    -0.0127 C.2     
   4 C4             2.1471     0.7549    -0.0144 C.ar    
   5 C5             3.5247     0.9594    -0.0260 C.ar    
   6 C6             4.0259     2.2569    -0.0235 C.ar    
   7 C7             3.1469     3.3465    -0.0092 C.ar    
   8 C8             1.7847     3.1447     0.0023 C.ar    
   9 C9             1.2695     1.8506    -0.0001 C.ar    
  10 C10            1.7405    -1.8448    -0.0240 C.2     
  11 O11            2.9290    -2.1017    -0.0364 O.2     
  12 O12            0.8347    -2.8438    -0.0208 O.3     
  13 C13            5.4914     2.4862    -0.0353 C.ar    
  14 C14            6.0928     3.1037    -1.1306 C.ar    
  15 C15            7.4557     3.3154    -1.1387 C.ar    
  16 C16            8.2283     2.9142    -0.0575 C.ar    
  17 C17            7.6323     2.2989     1.0348 C.ar    
  18 C18            6.2691     2.0896     1.0513 C.ar    
  19 O19            9.5710     3.1238    -0.0685 O.3     
  20 C20           10.3054     2.6861     1.0765 C.3     
  21 C21           11.7893     3.0047     0.8831 C.3     
  22 C22           12.5756     2.5361     2.1091 C.3     
  23 O23           13.9615     2.8336     1.9284 O.3     
  24 F24            3.6385     4.6048    -0.0063 F       
  25 F25            4.3686    -0.0955    -0.0393 F       
  26 H26           -0.8206     1.8928     0.0164 H       
  27 H27           -0.8728    -0.6373     0.0075 H       
  28 H28            1.1145     3.9916     0.0133 H       
  29 H29            1.1781    -3.7477    -0.0286 H       
  30 H30            5.4923     3.4158    -1.9723 H       
  31 H31            7.9224     3.7935    -1.9873 H       
  32 H32            8.2361     1.9876     1.8744 H       
  33 H33            5.8053     1.6152     1.9035 H       
  34 H34            9.9359     3.2007     1.9636 H       
  35 H35           10.1778     1.6107     1.2008 H       
  36 H36           12.1587     2.4901    -0.0040 H       
  37 H37           11.9169     4.0800     0.7589 H       
  38 H38           12.2061     3.0506     2.9961 H       
  39 H39           12.4480     1.4607     2.2333 H       
  40 H40           14.5216     2.5635     2.6690 H       
@<TRIPOS>BOND
   1    1    2 1
   2    1    9 1
   3    1   26 1
   4    2    3 2
   5    2   27 1
   6    3    4 1
   7    3   10 1
   8    4    5 ar
   9    4    9 ar
  10    5    6 ar
  11    5   25 1
  12    6    7 ar
  13    6   13 1
  14    7    8 ar
  15    7   24 1
  16    8    9 ar
  17    8   28 1
  18   10   11 2
  19   10   12 1
  20   12   29 1
  21   13   14 ar
  22   13   18 ar
  23   14   15 ar
  24   14   30 1
  25   15   16 ar
  26   15   31 1
  27   16   17 ar
  28   16   19 1
  29   17   18 ar
  30   17   32 1
  31   18   33 1
  32   19   20 1
  33   20   21 1
  34   20   34 1
  35   20   35 1
  36   21   22 1
  37   21   36 1
  38   21   37 1
  39   22   23 1
  40   22   38 1
  41   22   39 1
  42   23   40 1

#	End of record

