#	Name: ASD02398041
#	Creating user name:	WinNT
#	Creation time:	15. 06. 2019 20:20

#	Modifying user name:	WinNT
#	Modification time:	15. 06. 2019 20:20

#	Program:	/corina/corina34_cracker 3.40 0067  02.08.2006

@<TRIPOS>MOLECULE
ASD02398041
  66   70    0    0    0
SMALL
NO_CHARGES


@<TRIPOS>ATOM
   1 C1            -0.9196    -0.6721     1.1524 C.ar    
   2 C2            -0.0139    -0.2569     0.1634 C.ar    
   3 C3            -0.3898     0.7299    -0.7435 C.ar    
   4 C4            -1.6474     1.2945    -0.6672 C.ar    
   5 C5            -2.5401     0.8854     0.3083 C.ar    
   6 C6            -2.1852    -0.0967     1.2117 C.ar    
   7 C7            -2.0502     2.3625    -1.6511 C.3     
   8 C8            -2.5797     1.7162    -2.9053 C.2     
   9 O9            -2.7161     0.5167    -2.9555 O.2     
  10 O10           -2.8998     2.4731    -3.9666 O.3     
  11 C11            1.3355    -0.8657     0.0857 C.ar    
  12 C12            2.2816    -0.5991     1.0745 C.ar    
  13 C13            1.6615    -1.7115    -0.9732 C.ar    
  14 C14            2.9193    -2.2759    -1.0401 C.ar    
  15 C15            3.8553    -2.0039    -0.0588 C.ar    
  16 C16            3.5358    -1.1689     0.9971 C.ar    
  17 C17            1.9352     0.3102     2.2253 C.3     
  18 N18            3.0766     0.3975     3.1394 N.am    
  19 C19            4.1164     1.2329     3.0101 C.2     
  20 O20            5.0290     1.1151     3.9811 O.3     
  21 C21            4.6094     0.0826     4.9195 C.3     
  22 C22            3.2652    -0.4130     4.3523 C.3     
  23 O23            4.2210     2.0247     2.0943 O.2     
  24 C24            3.3490    -1.8973     3.9907 C.3     
  25 C25            5.6169    -1.0374     4.9579 C.ar    
  26 C26            5.8480    -1.7192     6.1380 C.ar    
  27 C27            6.3060    -1.3868     3.8116 C.ar    
  28 C28            7.2302    -2.4142     3.8468 C.ar    
  29 C29            7.4656    -3.0919     5.0283 C.ar    
  30 C30            6.7722    -2.7465     6.1732 C.ar    
  31 C31           -0.5317    -1.7226     2.1251 C.2     
  32 C32           -0.5833    -1.6215     3.4855 C.2     
  33 N33           -0.1465    -2.7894     3.9980 N.pl3   
  34 N34            0.1848    -3.6377     2.9346 N.2     
  35 C35           -0.0486    -3.0090     1.8132 C.2     
  36 C36           -0.0374    -3.1149     5.4222 C.3     
  37 C37            5.2267    -2.6236    -0.1374 C.3     
  38 F38            5.3112    -3.4260    -1.2803 F       
  39 F39            6.1919    -1.6131    -0.2047 F       
  40 F40            5.4503    -3.4070     1.0000 F       
  41 H41            0.3023     1.0540    -1.5066 H       
  42 H42           -3.5213     1.3336     0.3603 H       
  43 H43           -2.8864    -0.4114     1.9704 H       
  44 H44           -2.8255     2.9891    -1.2101 H       
  45 H45           -1.1833     2.9760    -1.8966 H       
  46 H46           -3.2355     2.0134    -4.7484 H       
  47 H47            0.9311    -1.9252    -1.7396 H       
  48 H48            3.1730    -2.9314    -1.8601 H       
  49 H49            4.2709    -0.9598     1.7602 H       
  50 H50            1.6976     1.3036     1.8447 H       
  51 H51            1.0728    -0.0906     2.7581 H       
  52 H52            4.4682     0.5050     5.9144 H       
  53 H53            2.4602    -0.2366     5.0657 H       
  54 H54            3.5114    -2.4831     4.8955 H       
  55 H55            2.4177    -2.2093     3.5182 H       
  56 H56            4.1777    -2.0570     3.3009 H       
  57 H57            5.3066    -1.4489     7.0326 H       
  58 H58            6.1220    -0.8573     2.8884 H       
  59 H59            7.7680    -2.6876     2.9510 H       
  60 H60            8.1874    -3.8949     5.0557 H       
  61 H61            6.9561    -3.2760     7.0964 H       
  62 H62           -0.9137    -0.7614     4.0491 H       
  63 H63            0.1083    -3.4039     0.8203 H       
  64 H64           -0.9715    -3.5592     5.7660 H       
  65 H65            0.7782    -3.8224     5.5718 H       
  66 H66            0.1623    -2.2052     5.9885 H       
@<TRIPOS>BOND
   1    1    2 ar
   2    1   31 1
   3    1    6 ar
   4    2    3 ar
   5    2   11 1
   6    3    4 ar
   7    3   41 1
   8    4    5 ar
   9    4    7 1
  10    5    6 ar
  11    5   42 1
  12    6   43 1
  13    7    8 1
  14    7   44 1
  15    7   45 1
  16    8    9 2
  17    8   10 1
  18   10   46 1
  19   11   12 ar
  20   11   13 ar
  21   12   17 1
  22   12   16 ar
  23   13   14 ar
  24   13   47 1
  25   14   15 ar
  26   14   48 1
  27   15   16 ar
  28   15   37 1
  29   16   49 1
  30   17   18 1
  31   17   50 1
  32   17   51 1
  33   18   19 am
  34   18   22 1
  35   19   20 1
  36   19   23 2
  37   20   21 1
  38   21   22 1
  39   21   25 1
  40   21   52 1
  41   22   24 1
  42   22   53 1
  43   24   54 1
  44   24   55 1
  45   24   56 1
  46   25   26 ar
  47   25   27 ar
  48   26   30 ar
  49   26   57 1
  50   27   28 ar
  51   27   58 1
  52   28   29 ar
  53   28   59 1
  54   29   30 ar
  55   29   60 1
  56   30   61 1
  57   31   32 2
  58   31   35 1
  59   32   33 1
  60   32   62 1
  61   33   34 1
  62   33   36 1
  63   34   35 2
  64   35   63 1
  65   36   64 1
  66   36   65 1
  67   36   66 1
  68   37   38 1
  69   37   39 1
  70   37   40 1

#	End of record

