#	Name: ASD01841032
#	Creating user name:	WinNT
#	Creation time:	15. 06. 2019 19:38

#	Modifying user name:	WinNT
#	Modification time:	15. 06. 2019 19:38

#	Program:	/corina/corina34_cracker 3.40 0067  02.08.2006

@<TRIPOS>MOLECULE
ASD01841032
  38   40    0    0    0
SMALL
NO_CHARGES


@<TRIPOS>ATOM
   1 C1            -0.0184     1.5028     0.0103 C.2     
   2 C2             0.0021    -0.0041     0.0020 C.3     
   3 O3             1.0235     2.1234     0.0037 O.2     
   4 N4            -1.1946     2.1607     0.0195 N.am    
   5 S5            -2.6702     4.5308     0.0393 S.3     
   6 C6            -1.2134     3.5468     0.0271 C.2     
   7 N7            -0.1667     4.2960     0.0266 N.2     
   8 C8            -0.3470     5.6321     0.0351 C.ar    
   9 C9            -1.6950     5.9985     0.0433 C.ar    
  10 C10           -2.0612     7.3435     0.0520 C.ar    
  11 C11           -1.0965     8.3260     0.0521 C.ar    
  12 C12            0.2464     7.9801     0.0436 C.ar    
  13 C13            0.6281     6.6574     0.0356 C.ar    
  14 C14           -3.5193     7.7239     0.0608 C.3     
  15 O15            1.9486     6.3346     0.0282 O.3     
  16 C16            2.8811     7.4174     0.0292 C.3     
  17 C17            1.4547    -0.5114    -0.0146 C.3     
  18 C18            1.6445    -1.3464     1.2686 C.3     
  19 C19            0.2106    -1.7941     1.6461 C.3     
  20 C20           -0.6401    -0.5484     1.2947 C.3     
  21 H21           -0.5346    -0.3797    -0.8692 H       
  22 H22           -2.0280     1.6644     0.0207 H       
  23 H23           -1.3859     9.3665     0.0585 H       
  24 H24            0.9990     8.7547     0.0434 H       
  25 H25           -3.8661     7.8103     1.0906 H       
  26 H26           -3.6486     8.6794    -0.4475 H       
  27 H27           -4.0980     6.9571    -0.4543 H       
  28 H28            3.8969     7.0222     0.0228 H       
  29 H29            2.7249     8.0323    -0.8572 H       
  30 H30            2.7328     8.0238     0.9227 H       
  31 H31            1.6227    -1.1340    -0.8934 H       
  32 H32            2.1448     0.3322    -0.0166 H       
  33 H33            2.2750    -2.2131     1.0701 H       
  34 H34            2.0743    -0.7345     2.0618 H       
  35 H35           -0.0960    -2.6524     1.0482 H       
  36 H36            0.1440    -2.0198     2.7104 H       
  37 H37           -0.5793     0.1923     2.0921 H       
  38 H38           -1.6769    -0.8327     1.1152 H       
@<TRIPOS>BOND
   1    1    2 1
   2    1    3 2
   3    1    4 am
   4    2   17 1
   5    2   20 1
   6    2   21 1
   7    4    6 1
   8    4   22 1
   9    5    6 1
  10    5    9 1
  11    6    7 2
  12    7    8 1
  13    8    9 ar
  14    8   13 ar
  15    9   10 ar
  16   10   11 ar
  17   10   14 1
  18   11   12 ar
  19   11   23 1
  20   12   13 ar
  21   12   24 1
  22   13   15 1
  23   14   25 1
  24   14   26 1
  25   14   27 1
  26   15   16 1
  27   16   28 1
  28   16   29 1
  29   16   30 1
  30   17   18 1
  31   17   31 1
  32   17   32 1
  33   18   19 1
  34   18   33 1
  35   18   34 1
  36   19   20 1
  37   19   35 1
  38   19   36 1
  39   20   37 1
  40   20   38 1

#	End of record

