#	Name: ASD01410312
#	Creating user name:	WinNT
#	Creation time:	15. 06. 2019 19:17

#	Modifying user name:	WinNT
#	Modification time:	15. 06. 2019 19:17

#	Program:	/corina/corina34_cracker 3.40 0067  02.08.2006

@<TRIPOS>MOLECULE
ASD01410312
  59   63    0    0    0
SMALL
NO_CHARGES


@<TRIPOS>ATOM
   1 O1            -0.0014     2.0064    -0.7466 O.3     
   2 C2            -0.0982     0.6821    -0.5642 C.2     
   3 C3             1.1553     0.1779    -0.4005 C.2     
   4 C4             2.0626     1.3285    -0.4988 C.2     
   5 C5             1.2808     2.4000    -0.7092 C.2     
   6 N6             2.5490    -1.9004    -0.8036 N.pl3   
   7 C7             1.5265    -1.2348    -0.1713 C.2     
   8 C8             0.9108    -2.0774     0.6976 C.2     
   9 C9             1.5623    -3.3314     0.6206 C.ar    
  10 C10            2.5894    -3.1994    -0.3365 C.ar    
  11 C11            1.3667    -4.5574     1.2734 C.ar    
  12 C12            2.1708    -5.6172     0.9873 C.ar    
  13 C13            3.1989    -5.4938     0.0403 C.ar    
  14 C14            3.4024    -4.2835    -0.6227 C.ar    
  15 C15           -1.4390    -2.6490     1.2457 C.3     
  16 C16           -2.6259    -2.3041     2.1475 C.3     
  17 C17           -2.2301    -2.5072     3.6114 C.3     
  18 C18           -1.0492    -1.5957     3.9516 C.3     
  19 C19            0.1377    -1.9407     3.0497 C.3     
  20 C20           -0.2582    -1.7376     1.5859 C.3     
  21 C21            3.4447    -1.3281    -1.8118 C.3     
  22 C22            4.6485    -0.7285    -1.1318 C.2     
  23 O23            4.7485    -0.7748     0.0761 O.2     
  24 N24            5.6141    -0.1410    -1.8659 N.am    
  25 C25            8.2532     0.6249     0.5772 C.ar    
  26 C26            7.1979    -0.0109    -0.0470 C.ar    
  27 C27            6.6829     0.5011    -1.2307 C.ar    
  28 C28            7.2311     1.6513    -1.7829 C.ar    
  29 C29            8.2862     2.2824    -1.1538 C.ar    
  30 C30            8.7968     1.7701     0.0248 C.ar    
  31 C31            4.0627    -6.6490    -0.2598 C.2     
  32 O32            4.9539    -6.5448    -1.0795 O.2     
  33 O33            3.8646    -7.8215     0.3748 O.3     
  34 H34           -1.0153     0.1119    -0.5493 H       
  35 H35            3.1395     1.3156    -0.4183 H       
  36 H36            1.6284     3.4154    -0.8296 H       
  37 H37            0.5777    -4.6601     2.0038 H       
  38 H38            2.0169    -6.5592     1.4926 H       
  39 H39            4.1940    -4.1905    -1.3515 H       
  40 H40           -1.1528    -3.6888     1.4037 H       
  41 H41           -1.7210    -2.5043     0.2028 H       
  42 H42           -2.9121    -1.2643     1.9894 H       
  43 H43           -3.4672    -2.9534     1.9051 H       
  44 H44           -3.0756    -2.2614     4.2538 H       
  45 H45           -1.9438    -3.5470     3.7694 H       
  46 H46           -1.3354    -0.5559     3.7935 H       
  47 H47           -0.7672    -1.7404     4.9945 H       
  48 H48            0.9789    -1.2914     3.2921 H       
  49 H49            0.4239    -2.9805     3.2078 H       
  50 H50           -0.5444    -0.6978     1.4278 H       
  51 H51            3.7673    -2.1113    -2.4977 H       
  52 H52            2.9177    -0.5526    -2.3677 H       
  53 H53            5.5682    -0.1632    -2.8345 H       
  54 H54            8.6513     0.2298     1.5002 H       
  55 H55            6.7740    -0.9055     0.3848 H       
  56 H56            6.8329     2.0517    -2.7036 H       
  57 H57            8.7132     3.1768    -1.5829 H       
  58 H58            9.6217     2.2657     0.5151 H       
  59 H59            4.4565    -8.5507     0.1447 H       
@<TRIPOS>BOND
   1    1    2 1
   2    1    5 1
   3    2    3 2
   4    2   34 1
   5    3    4 1
   6    3    7 1
   7    4    5 2
   8    4   35 1
   9    5   36 1
  10    6    7 1
  11    6   21 1
  12    6   10 1
  13    7    8 2
  14    8    9 1
  15    8   20 1
  16    9   10 ar
  17    9   11 ar
  18   10   14 ar
  19   11   12 ar
  20   11   37 1
  21   12   13 ar
  22   12   38 1
  23   13   14 ar
  24   13   31 1
  25   14   39 1
  26   15   16 1
  27   15   20 1
  28   15   40 1
  29   15   41 1
  30   16   17 1
  31   16   42 1
  32   16   43 1
  33   17   18 1
  34   17   44 1
  35   17   45 1
  36   18   19 1
  37   18   46 1
  38   18   47 1
  39   19   20 1
  40   19   48 1
  41   19   49 1
  42   20   50 1
  43   21   22 1
  44   21   51 1
  45   21   52 1
  46   22   23 2
  47   22   24 am
  48   24   27 1
  49   24   53 1
  50   25   26 ar
  51   25   30 ar
  52   25   54 1
  53   26   27 ar
  54   26   55 1
  55   27   28 ar
  56   28   29 ar
  57   28   56 1
  58   29   30 ar
  59   29   57 1
  60   30   58 1
  61   31   32 2
  62   31   33 1
  63   33   59 1

#	End of record

