#	Name: ASD00170179
#	Creating user name:	WinNT
#	Creation time:	15. 06. 2019 18:31

#	Modifying user name:	WinNT
#	Modification time:	15. 06. 2019 18:31

#	Program:	/corina/corina34_cracker 3.40 0067  02.08.2006

@<TRIPOS>MOLECULE
ASD00170179
  33   35    0    0    0
SMALL
NO_CHARGES


@<TRIPOS>ATOM
   1 C1             0.0144     1.3185    -0.0550 C.2     
   2 C2             0.0204    -0.0181    -0.0733 C.2     
   3 C3            -1.3167    -0.5799     0.0132 C.2     
   4 C4            -2.2996     0.3729     0.0953 C.2     
   5 S5            -1.6253     1.9357     0.0614 S.3     
   6 C6             1.2607     2.1799    -0.1315 C.3     
   7 C7             2.4803     1.3110     0.1876 C.3     
   8 C8             2.4274     0.0424    -0.6690 C.3     
   9 C9             1.2884    -0.8512    -0.1735 C.3     
  10 N10           -3.6500     0.1022     0.1867 N.pl3   
  11 C11           -1.5875    -2.0175     0.0120 C.2     
  12 C12           -1.8379    -2.7214    -1.2636 C.ar    
  13 O13           -1.6066    -2.6344     1.0618 O.2     
  14 C14           -1.9789    -4.1105    -1.2814 C.ar    
  15 C15           -2.2128    -4.7619    -2.4735 C.ar    
  16 C16           -2.3080    -4.0402    -3.6536 C.ar    
  17 C17           -2.1687    -2.6607    -3.6416 C.ar    
  18 C18           -1.9399    -1.9990    -2.4542 C.ar    
  19 F19           -2.5368    -4.6835    -4.8194 F       
  20 H20            1.3587     2.5926    -1.1356 H       
  21 H21            1.1898     2.9905     0.5937 H       
  22 H22            3.3916     1.8651    -0.0373 H       
  23 H23            2.4682     1.0392     1.2430 H       
  24 H24            2.2514     0.3128    -1.7101 H       
  25 H25            3.3732    -0.4931    -0.5856 H       
  26 H26            1.5397    -1.2529     0.8081 H       
  27 H27            1.1336    -1.6695    -0.8767 H       
  28 H28           -3.9669    -0.8122     0.1206 H       
  29 H29           -4.2821     0.8263     0.3170 H       
  30 H30           -1.9046    -4.6736    -0.3628 H       
  31 H31           -2.3217    -5.8363    -2.4884 H       
  32 H32           -2.2437    -2.1033    -4.5636 H       
  33 H33           -1.8315    -0.9244    -2.4460 H       
@<TRIPOS>BOND
   1    1    2 2
   2    1    6 1
   3    1    5 1
   4    2    3 1
   5    2    9 1
   6    3    4 2
   7    3   11 1
   8    4    5 1
   9    4   10 1
  10    6    7 1
  11    6   20 1
  12    6   21 1
  13    7    8 1
  14    7   22 1
  15    7   23 1
  16    8    9 1
  17    8   24 1
  18    8   25 1
  19    9   26 1
  20    9   27 1
  21   10   28 1
  22   10   29 1
  23   11   12 1
  24   11   13 2
  25   12   14 ar
  26   12   18 ar
  27   14   15 ar
  28   14   30 1
  29   15   16 ar
  30   15   31 1
  31   16   17 ar
  32   16   19 1
  33   17   18 ar
  34   17   32 1
  35   18   33 1

#	End of record

