#	Name: ASD01911801
#	Creating user name:	WinNT
#	Creation time:	15. 06. 2019 19:58

#	Modifying user name:	WinNT
#	Modification time:	15. 06. 2019 19:58

#	Program:	/corina/corina34_cracker 3.40 0067  02.08.2006

@<TRIPOS>MOLECULE
ASD01911801
  39   41    0    0    0
SMALL
NO_CHARGES


@<TRIPOS>ATOM
   1 N1            -0.4985     1.5362     0.6771 N.pl3   
   2 C2            -0.7708     0.2408     1.0968 C.2     
   3 C3             0.2720     2.0240     2.8527 C.2     
   4 N4             0.0062     0.7723     3.2521 N.2     
   5 C5            -0.4980    -0.1165     2.4296 C.2     
   6 C6            -1.2904    -0.4577     0.0191 C.2     
   7 C7            -1.3284     0.4450    -1.0703 C.2     
   8 C8            -0.8279     1.6555    -0.6202 C.2     
   9 N9            -1.6975    -1.7953     0.0093 N.pl3   
  10 C10           -0.8134    -2.7919    -0.4142 C.ar    
  11 C11           -1.1767    -4.1320    -0.3210 C.ar    
  12 C12            0.4269    -2.4467    -0.9341 C.ar    
  13 C13            1.2987    -3.4339    -1.3519 C.ar    
  14 C14            0.9380    -4.7654    -1.2531 C.ar    
  15 C15           -0.2994    -5.1143    -0.7409 C.ar    
  16 F16           -2.3845    -4.4725     0.1795 F       
  17 I17            2.2645    -6.2573    -1.8883 I       
  18 C18           -1.8066     0.1504    -2.4314 C.2     
  19 N19           -1.8610     1.1317    -3.3537 N.am    
  20 O20           -2.1526    -0.9784    -2.7234 O.2     
  21 O21           -2.3209     0.8484    -4.6626 O.3     
  22 C22           -2.3257     1.9804    -5.5347 C.3     
  23 C23           -2.8382     1.5597    -6.9136 C.3     
  24 O24           -4.2050     1.1558    -6.8109 O.3     
  25 C25            0.0321     2.4259     1.5894 C.2     
  26 F26            0.3102     3.6944     1.2168 F       
  27 H27            0.6869     2.7267     3.5601 H       
  28 H28           -0.7034    -1.1190     2.7747 H       
  29 H29           -0.7248     2.5517    -1.2140 H       
  30 H30           -2.5933    -2.0317     0.2964 H       
  31 H31            0.7098    -1.4074    -1.0122 H       
  32 H32            2.2633    -3.1653    -1.7566 H       
  33 H33           -0.5780    -6.1550    -0.6647 H       
  34 H34           -1.5851     2.0320    -3.1208 H       
  35 H35           -2.9774     2.7521    -5.1248 H       
  36 H36           -1.3127     2.3719    -5.6274 H       
  37 H37           -2.7585     2.4004    -7.6028 H       
  38 H38           -2.2403     0.7275    -7.2850 H       
  39 H39           -4.5963     0.8753    -7.6496 H       
@<TRIPOS>BOND
   1    1    2 1
   2    1   25 1
   3    1    8 1
   4    2    6 2
   5    2    5 1
   6    3    4 1
   7    3   25 2
   8    3   27 1
   9    4    5 2
  10    5   28 1
  11    6    7 1
  12    6    9 1
  13    7    8 2
  14    7   18 1
  15    8   29 1
  16    9   10 1
  17    9   30 1
  18   10   11 ar
  19   10   12 ar
  20   11   16 1
  21   11   15 ar
  22   12   13 ar
  23   12   31 1
  24   13   14 ar
  25   13   32 1
  26   14   15 ar
  27   14   17 1
  28   15   33 1
  29   18   19 am
  30   18   20 2
  31   19   21 1
  32   19   34 1
  33   21   22 1
  34   22   23 1
  35   22   35 1
  36   22   36 1
  37   23   24 1
  38   23   37 1
  39   23   38 1
  40   24   39 1
  41   25   26 1

#	End of record

