#	Name: ASD05730104
#	Creating user name:	WinNT
#	Creation time:	15. 06. 2019 21:02

#	Modifying user name:	WinNT
#	Modification time:	15. 06. 2019 21:02

#	Program:	/corina/corina34_cracker 3.40 0067  02.08.2006

@<TRIPOS>MOLECULE
ASD05730104
  67   71    0    0    0
SMALL
NO_CHARGES


@<TRIPOS>ATOM
   1 N1            -0.0121     1.3947     0.0611 N.3     
   2 C2             0.0057    -0.0044     0.0405 C.ar    
   3 C3            -1.0323    -0.7033    -0.5618 C.ar    
   4 C4            -1.0148    -2.0837    -0.5821 C.ar    
   5 C5             0.0409    -2.7733    -0.0002 C.ar    
   6 C6             1.0786    -2.0746     0.6025 C.ar    
   7 C7             1.0642    -0.6940     0.6174 C.ar    
   8 N8             0.0586    -4.1738    -0.0208 N.pl3   
   9 C9             1.2584    -4.8475    -0.1401 C.ar    
  10 N10            1.2606    -6.1684    -0.0441 N.ar    
  11 C11            2.3946    -6.8510    -0.1535 C.ar    
  12 C12            3.5949    -6.1410    -0.3737 C.ar    
  13 C13            3.5397    -4.7422    -0.4679 C.ar    
  14 N14            2.3673    -4.1471    -0.3522 N.ar    
  15 N15            2.4062    -8.2195    -0.0550 N.am    
  16 C16            3.5593    -8.9066    -0.1658 C.2     
  17 C17            4.8219    -8.2009    -0.3945 C.2     
  18 C18            4.8200    -6.8354    -0.4956 C.2     
  19 C19            1.1516    -8.9406     0.1737 C.3     
  20 C20            0.5151    -9.2959    -1.1715 C.3     
  21 O21            3.5520   -10.1214    -0.0751 O.2     
  22 C22            6.0899    -8.9576    -0.5159 C.ar    
  23 C23            6.6912    -9.5024     0.6178 C.ar    
  24 C24            6.6844    -9.1330    -1.7665 C.ar    
  25 C25            7.8659    -9.8397    -1.8726 C.ar    
  26 C26            8.4597   -10.3731    -0.7426 C.ar    
  27 C27            7.8721   -10.2067     0.4985 C.ar    
  28 C28            1.1754     1.9265     0.7443 C.3     
  29 C29            1.1582     3.4553     0.6758 C.3     
  30 N30           -0.0739     3.9572     1.3000 N.3     
  31 C31           -1.2614     3.4255     0.6168 C.3     
  32 C32           -1.2442     1.8966     0.6853 C.3     
  33 S33            9.9670   -11.2742    -0.8860 S.o2    
  34 C34           11.2639   -10.0196    -0.6994 C.3     
  35 O35            9.9581   -12.1521     0.2314 O.2     
  36 C36           -0.0926     5.4260     1.3216 C.3     
  37 O37            9.9487   -11.7788    -2.2142 O.2     
  38 Cl38           5.9398    -8.4647    -3.1853 Cl      
  39 H39           -1.8535    -0.1670    -1.0141 H       
  40 H40           -1.8221    -2.6272    -1.0502 H       
  41 H41            1.8992    -2.6109     1.0557 H       
  42 H42            1.8714    -0.1506     1.0859 H       
  43 H43           -0.7717    -4.6704     0.0487 H       
  44 H44            4.4369    -4.1650    -0.6359 H       
  45 H45            5.7409    -6.2969    -0.6641 H       
  46 H46            1.3543    -9.8543     0.7324 H       
  47 H47            0.4689    -8.3102     0.7435 H       
  48 H48            0.3124    -8.3822    -1.7302 H       
  49 H49            1.1978    -9.9262    -1.7413 H       
  50 H50           -0.4183    -9.8324    -1.0014 H       
  51 H51            6.2339    -9.3732     1.5877 H       
  52 H52            8.3271    -9.9767    -2.8396 H       
  53 H53            8.3406   -10.6255     1.3769 H       
  54 H54            1.1677     1.6091     1.7870 H       
  55 H55            2.0746     1.5507     0.2561 H       
  56 H56            2.0230     3.8529     1.2070 H       
  57 H57            1.1934     3.7731    -0.3663 H       
  58 H58           -2.1606     3.8013     1.1050 H       
  59 H59           -1.2536     3.7429    -0.4259 H       
  60 H60           -2.1090     1.4990     0.1541 H       
  61 H61           -1.2794     1.5788     1.7274 H       
  62 H62           11.1677    -9.5397     0.2745 H       
  63 H63           12.2422   -10.4942    -0.7756 H       
  64 H64           11.1610    -9.2711    -1.4851 H       
  65 H65           -0.0383     5.8051     0.3011 H       
  66 H66           -1.0151     5.7708     1.7888 H       
  67 H67            0.7618     5.7918     1.8911 H       
@<TRIPOS>BOND
   1    1    2 1
   2    1   28 1
   3    1   32 1
   4    2    3 ar
   5    2    7 ar
   6    3    4 ar
   7    3   39 1
   8    4    5 ar
   9    4   40 1
  10    5    6 ar
  11    5    8 1
  12    6    7 ar
  13    6   41 1
  14    7   42 1
  15    8    9 1
  16    8   43 1
  17    9   10 ar
  18    9   14 ar
  19   10   11 ar
  20   11   12 ar
  21   11   15 1
  22   12   13 ar
  23   12   18 1
  24   13   14 ar
  25   13   44 1
  26   15   16 am
  27   15   19 1
  28   16   17 1
  29   16   21 2
  30   17   18 2
  31   17   22 1
  32   18   45 1
  33   19   20 1
  34   19   46 1
  35   19   47 1
  36   20   48 1
  37   20   49 1
  38   20   50 1
  39   22   24 ar
  40   22   23 ar
  41   23   27 ar
  42   23   51 1
  43   24   25 ar
  44   24   38 1
  45   25   26 ar
  46   25   52 1
  47   26   27 ar
  48   26   33 1
  49   27   53 1
  50   28   29 1
  51   28   54 1
  52   28   55 1
  53   29   30 1
  54   29   56 1
  55   29   57 1
  56   30   31 1
  57   30   36 1
  58   31   32 1
  59   31   58 1
  60   31   59 1
  61   32   60 1
  62   32   61 1
  63   33   34 1
  64   33   35 2
  65   33   37 2
  66   34   62 1
  67   34   63 1
  68   34   64 1
  69   36   65 1
  70   36   66 1
  71   36   67 1

#	End of record

