#	Name: ASD01917832
#	Creating user name:	WinNT
#	Creation time:	15. 06. 2019 20:10

#	Modifying user name:	WinNT
#	Modification time:	15. 06. 2019 20:10

#	Program:	/corina/corina34_cracker 3.40 0067  02.08.2006

@<TRIPOS>MOLECULE
ASD01917832
  44   47    0    0    0
SMALL
NO_CHARGES


@<TRIPOS>ATOM
   1 C1             0.0489     1.0737    -0.4728 C.2     
   2 C2            -0.0491    -0.2683    -0.4329 C.2     
   3 C3            -1.3665    -0.9959    -0.2130 C.3     
   4 C4            -2.3767    -0.0276     0.4071 C.3     
   5 N5            -2.3477     1.2403    -0.3376 N.am    
   6 C6            -1.1061     2.0326    -0.2969 C.3     
   7 C7            -3.4216     1.6633    -1.0335 C.2     
   8 O8            -4.3930     0.9400    -1.1526 O.2     
   9 S9             1.7294     1.5075    -0.7529 S.3     
  10 C10            2.1580    -0.1468    -0.7881 C.2     
  11 N11            1.1155    -0.8784    -0.6059 N.2     
  12 C12            3.5543    -0.6721    -1.0019 C.3     
  13 O13            3.7819    -0.8648    -2.3994 O.3     
  14 C14            5.0019    -1.3379    -2.7663 C.ar    
  15 C15            5.2911    -1.5485    -4.1067 C.ar    
  16 C16            6.5320    -2.0296    -4.4771 C.ar    
  17 C17            7.4853    -2.3011    -3.5132 C.ar    
  18 C18            7.1994    -2.0925    -2.1766 C.ar    
  19 C19            5.9622    -1.6058    -1.8015 C.ar    
  20 C20           -3.4195     2.9955    -1.6473 C.2     
  21 N21           -4.3052     3.4561    -2.5950 N.pl3   
  22 C22           -3.9762     4.7322    -2.9116 C.2     
  23 C23           -2.8945     5.0993    -2.1836 C.2     
  24 C24           -2.5337     4.0165    -1.3756 C.2     
  25 C25           -5.4179     2.6937    -3.1667 C.3     
  26 H26           -1.7471    -1.3571    -1.1684 H       
  27 H27           -1.2094    -1.8388     0.4600 H       
  28 H28           -3.3760    -0.4594     0.3528 H       
  29 H29           -2.1137     0.1555     1.4489 H       
  30 H30           -1.0234     2.5424     0.6630 H       
  31 H31           -1.1061     2.7628    -1.1062 H       
  32 H32            4.2761     0.0454    -0.6117 H       
  33 H33            3.6686    -1.6226    -0.4807 H       
  34 H34            4.5466    -1.3369    -4.8600 H       
  35 H35            6.7575    -2.1940    -5.5204 H       
  36 H36            8.4549    -2.6772    -3.8048 H       
  37 H37            7.9455    -2.3061    -1.4256 H       
  38 H38            5.7393    -1.4429    -0.7574 H       
  39 H39           -4.4919     5.3546    -3.6279 H       
  40 H40           -2.4009     6.0593    -2.2181 H       
  41 H41           -1.7143     3.9852    -0.6728 H       
  42 H42           -6.2842     2.7671    -2.5093 H       
  43 H43           -5.6701     3.0985    -4.1468 H       
  44 H44           -5.1272     1.6482    -3.2692 H       
@<TRIPOS>BOND
   1    1    2 2
   2    1    9 1
   3    1    6 1
   4    2    3 1
   5    2   11 1
   6    3    4 1
   7    3   26 1
   8    3   27 1
   9    4    5 1
  10    4   28 1
  11    4   29 1
  12    5    6 1
  13    5    7 am
  14    6   30 1
  15    6   31 1
  16    7    8 2
  17    7   20 1
  18    9   10 1
  19   10   11 2
  20   10   12 1
  21   12   13 1
  22   12   32 1
  23   12   33 1
  24   13   14 1
  25   14   15 ar
  26   14   19 ar
  27   15   16 ar
  28   15   34 1
  29   16   17 ar
  30   16   35 1
  31   17   18 ar
  32   17   36 1
  33   18   19 ar
  34   18   37 1
  35   19   38 1
  36   20   21 1
  37   20   24 2
  38   21   22 1
  39   21   25 1
  40   22   23 2
  41   22   39 1
  42   23   24 1
  43   23   40 1
  44   24   41 1
  45   25   42 1
  46   25   43 1
  47   25   44 1

#	End of record

