#	Name: ASD02030154
#	Creating user name:	WinNT
#	Creation time:	15. 06. 2019 20:14

#	Modifying user name:	WinNT
#	Modification time:	15. 06. 2019 20:14

#	Program:	/corina/corina34_cracker 3.40 0067  02.08.2006

@<TRIPOS>MOLECULE
ASD02030154
  52   55    0    0    0
SMALL
NO_CHARGES


@<TRIPOS>ATOM
   1 N1            -0.2110     1.4213    -0.1418 N.am    
   2 C2            -0.0215    -0.0123     0.1207 C.3     
   3 C3            -0.9182    -0.4178     1.2970 C.3     
   4 N4            -2.2770     0.0827     1.0460 N.am    
   5 C5            -2.4665     1.5163     0.7835 C.3     
   6 C6            -1.5704     1.9228    -0.3872 C.3     
   7 C7             0.8425     2.2619    -0.1517 C.2     
   8 C8             2.1847     1.7694     0.2241 C.2     
   9 N9             3.2639     2.5059     0.3786 N.2     
  10 N10            2.5167     0.4895     0.4742 N.2     
  11 C11            3.7912     0.4691     0.7709 C.2     
  12 N12            4.2449     1.7377     0.7070 N.pl3   
  13 O13            0.6889     3.4251    -0.4696 O.2     
  14 C14           -3.3305    -0.7579     1.0559 C.2     
  15 C15           -4.7012    -0.2261     0.9122 C.ar    
  16 O16           -3.1527    -1.9537     1.1831 O.2     
  17 C17           -1.5429     3.4478    -0.5074 C.3     
  18 C18           -2.1091     1.3118    -1.6824 C.3     
  19 C19           -5.6731    -0.9677     0.2373 C.ar    
  20 C20            5.5610     2.1505     0.9553 C.ar    
  21 C21            5.8995     3.4934     0.8550 C.ar    
  22 C22            7.1974     3.8971     1.1003 C.ar    
  23 C23            8.1593     2.9654     1.4450 C.ar    
  24 C24            7.8253     1.6273     1.5457 C.ar    
  25 C25            6.5277     1.2182     1.3076 C.ar    
  26 C26           -6.9518    -0.4667     0.1057 C.ar    
  27 C27           -7.2727     0.7716     0.6425 C.ar    
  28 C28           -6.3106     1.5123     1.3134 C.ar    
  29 C29           -5.0308     1.0172     1.4557 C.ar    
  30 Cl30          -8.1610    -1.3872    -0.7335 Cl      
  31 F31           -8.5262     1.2579     0.5110 F       
  32 Cl32          -6.7199     3.0613     1.9818 Cl      
  33 H33           -0.2973    -0.5858    -0.7642 H       
  34 H34            1.0215    -0.2032     0.3731 H       
  35 H35           -0.9388    -1.5042     1.3837 H       
  36 H36           -0.5322     0.0180     2.2185 H       
  37 H37           -3.5095     1.7073     0.5312 H       
  38 H38           -2.1907     2.0898     1.6685 H       
  39 H39            4.3733    -0.4046     1.0241 H       
  40 H40           -1.0463     3.8721     0.3652 H       
  41 H41           -0.9992     3.7315    -1.4085 H       
  42 H42           -2.5635     3.8263    -0.5645 H       
  43 H43           -3.1224     1.6719    -1.8600 H       
  44 H44           -1.4689     1.6029    -2.5152 H       
  45 H45           -2.1197     0.2254    -1.5947 H       
  46 H46           -5.4241    -1.9317    -0.1812 H       
  47 H47            5.1488     4.2214     0.5851 H       
  48 H48            7.4613     4.9414     1.0224 H       
  49 H49            9.1737     3.2834     1.6356 H       
  50 H50            8.5787     0.9020     1.8151 H       
  51 H51            6.2673     0.1731     1.3868 H       
  52 H52           -4.2824     1.5947     1.9781 H       
@<TRIPOS>BOND
   1    1    2 1
   2    1    7 am
   3    1    6 1
   4    2    3 1
   5    2   33 1
   6    2   34 1
   7    3    4 1
   8    3   35 1
   9    3   36 1
  10    4    5 1
  11    4   14 am
  12    5    6 1
  13    5   37 1
  14    5   38 1
  15    6   17 1
  16    6   18 1
  17    7    8 1
  18    7   13 2
  19    8    9 2
  20    8   10 1
  21    9   12 1
  22   10   11 2
  23   11   12 1
  24   11   39 1
  25   12   20 1
  26   14   15 1
  27   14   16 2
  28   15   19 ar
  29   15   29 ar
  30   17   40 1
  31   17   41 1
  32   17   42 1
  33   18   43 1
  34   18   44 1
  35   18   45 1
  36   19   26 ar
  37   19   46 1
  38   20   21 ar
  39   20   25 ar
  40   21   22 ar
  41   21   47 1
  42   22   23 ar
  43   22   48 1
  44   23   24 ar
  45   23   49 1
  46   24   25 ar
  47   24   50 1
  48   25   51 1
  49   26   27 ar
  50   26   30 1
  51   27   28 ar
  52   27   31 1
  53   28   29 ar
  54   28   32 1
  55   29   52 1

#	End of record

