#	Name: ASD02030738
#	Creating user name:	WinNT
#	Creation time:	15. 06. 2019 20:16

#	Modifying user name:	WinNT
#	Modification time:	15. 06. 2019 20:16

#	Program:	/corina/corina34_cracker 3.40 0067  02.08.2006

@<TRIPOS>MOLECULE
ASD02030738
  26   26    0    0    0
SMALL
NO_CHARGES


@<TRIPOS>ATOM
   1 N1            -0.0169     1.3957     0.0097 N.2     
   2 N2             0.0021    -0.0041     0.0020 N.am    
   3 C3             1.1646    -0.6797    -0.0123 C.2     
   4 N4             2.3448    -0.0325    -0.0200 N.am    
   5 C5             2.3757     1.3164    -0.0131 C.2     
   6 C6             1.1074     2.0610     0.0026 C.2     
   7 O7             1.1494    -1.8958    -0.0178 O.2     
   8 O8             3.4386     1.9089    -0.0192 O.2     
   9 O9             1.1051     3.4197     0.0094 O.3     
  10 C10           -1.2627    -0.7434     0.0101 C.3     
  11 C11           -1.6892    -1.0085     1.4554 C.3     
  12 N12           -2.9574    -1.7498     1.4635 N.3     
  13 C13           -3.2788    -2.2283     2.8147 C.3     
  14 C14           -4.0496    -0.9305     0.9215 C.3     
  15 H15            3.1737    -0.5362    -0.0303 H       
  16 H16            0.2211     3.8114     0.0197 H       
  17 H17           -2.0303    -0.1556    -0.4933 H       
  18 H18           -1.1322    -1.6923    -0.5101 H       
  19 H19           -0.9215    -1.5962     1.9587 H       
  20 H20           -1.8197    -0.0596     1.9756 H       
  21 H21           -3.3671    -1.3774     3.4900 H       
  22 H22           -4.2223    -2.7737     2.7921 H       
  23 H23           -2.4855    -2.8890     3.1644 H       
  24 H24           -3.8167    -0.6477    -0.1051 H       
  25 H25           -4.9767    -1.5034     0.9391 H       
  26 H26           -4.1658    -0.0325     1.5283 H       
@<TRIPOS>BOND
   1    1    2 1
   2    1    6 2
   3    2    3 am
   4    2   10 1
   5    3    4 am
   6    3    7 2
   7    4    5 am
   8    4   15 1
   9    5    6 1
  10    5    8 2
  11    6    9 1
  12    9   16 1
  13   10   11 1
  14   10   17 1
  15   10   18 1
  16   11   12 1
  17   11   19 1
  18   11   20 1
  19   12   13 1
  20   12   14 1
  21   13   21 1
  22   13   22 1
  23   13   23 1
  24   14   24 1
  25   14   25 1
  26   14   26 1

#	End of record

