#	Name: ASD01940491
#	Creating user name:	WinNT
#	Creation time:	15. 06. 2019 20:12

#	Modifying user name:	WinNT
#	Modification time:	15. 06. 2019 20:12

#	Program:	/corina/corina34_cracker 3.40 0067  02.08.2006

@<TRIPOS>MOLECULE
ASD01940491
  25   25    0    0    0
SMALL
NO_CHARGES


@<TRIPOS>ATOM
   1 C1            -0.5352     1.8459     0.1152 C.ar    
   2 C2            -0.1744     0.5167     0.2556 C.ar    
   3 C3             1.1632     0.1662     0.3128 C.ar    
   4 C4             2.1392     1.1453     0.2297 C.ar    
   5 C5             1.7779     2.4717     0.0896 C.ar    
   6 C6             0.4422     2.8229     0.0322 C.ar    
   7 N7             3.5698     0.7708     0.2914 N.pl3   
   8 O8             4.4284     1.6317     0.2183 O.2     
   9 O9             3.8885    -0.3982     0.4153 O.2     
  10 F10            1.5167    -1.1304     0.4503 F       
  11 F11           -1.8405     2.1889     0.0535 F       
  12 C12           -1.2374    -0.5476     0.3464 C.3     
  13 O13           -2.3896    -0.1343    -0.3910 O.3     
  14 C14           -3.5663    -0.8924    -0.1035 C.3     
  15 O15           -0.7358    -1.7695    -0.1990 O.3     
  16 C16           -1.4323    -2.9346     0.2478 C.3     
  17 H17            2.5397     3.2345     0.0252 H       
  18 H18            0.1610     3.8599    -0.0773 H       
  19 H19           -1.5100    -0.7007     1.3907 H       
  20 H20           -4.4473    -0.3194    -0.3927 H       
  21 H21           -3.5416    -1.8277    -0.6628 H       
  22 H22           -3.6076    -1.1084     0.9640 H       
  23 H23           -1.4914    -2.9275     1.3362 H       
  24 H24           -2.4387    -2.9391    -0.1707 H       
  25 H25           -0.8980    -3.8258    -0.0812 H       
@<TRIPOS>BOND
   1    1    2 ar
   2    1    6 ar
   3    1   11 1
   4    2    3 ar
   5    2   12 1
   6    3    4 ar
   7    3   10 1
   8    4    5 ar
   9    4    7 1
  10    5    6 ar
  11    5   17 1
  12    6   18 1
  13    7    8 2
  14    7    9 2
  15   12   13 1
  16   12   15 1
  17   12   19 1
  18   13   14 1
  19   14   20 1
  20   14   21 1
  21   14   22 1
  22   15   16 1
  23   16   23 1
  24   16   24 1
  25   16   25 1

#	End of record

