#	Name: ASD01813002
#	Creating user name:	WinNT
#	Creation time:	15. 06. 2019 19:29

#	Modifying user name:	WinNT
#	Modification time:	15. 06. 2019 19:29

#	Program:	/corina/corina34_cracker 3.40 0067  02.08.2006

@<TRIPOS>MOLECULE
ASD01813002
  48   51    0    0    0
SMALL
NO_CHARGES


@<TRIPOS>ATOM
   1 C1            -0.0868     1.3567    -0.1862 C.2     
   2 C2            -0.0458     0.0138    -0.1862 C.2     
   3 N3            -1.1839    -0.7206    -0.0074 N.pl3   
   4 C4            -2.3900    -0.1746     0.1881 C.2     
   5 C5            -2.5339     1.1985     0.2140 C.2     
   6 C6            -1.3309     2.0171     0.0158 C.2     
   7 O7            -1.3956     3.2361     0.0302 O.2     
   8 C8            -1.0785    -2.1816    -0.0313 C.3     
   9 C9            -0.9267    -2.6975     1.3765 C.ar    
  10 C10           -2.0483    -2.9047     2.1591 C.ar    
  11 C11           -1.9151    -3.3770     3.4491 C.ar    
  12 C12           -0.6479    -3.6451     3.9627 C.ar    
  13 C13            0.4785    -3.4345     3.1699 C.ar    
  14 C14            0.3333    -2.9673     1.8794 C.ar    
  15 C15           -0.4984    -4.1526     5.3491 C.ar    
  16 C16            0.7688    -4.4207     5.8627 C.ar    
  17 C17            0.9020    -4.8926     7.1529 C.ar    
  18 C18           -0.2195    -5.0998     7.9355 C.ar    
  19 C19           -1.4799    -4.8358     7.4305 C.ar    
  20 C20           -1.6243    -4.3573     6.1440 C.ar    
  21 C21            1.1279     2.2206    -0.3975 C.3     
  22 C22            2.4082     1.4203    -0.1679 C.3     
  23 C23            2.3173     0.1281    -0.9890 C.3     
  24 C24            1.2386    -0.7568    -0.3700 C.3     
  25 C25           -3.8497     1.8209     0.4293 C.2     
  26 O26           -4.8329     1.1241     0.5881 O.2     
  27 O27           -3.9648     3.1636     0.4505 O.3     
  28 H28           -3.2529    -0.8094     0.3255 H       
  29 H29           -1.9790    -2.6036    -0.4778 H       
  30 H30           -0.2095    -2.4736    -0.6209 H       
  31 H31           -3.0300    -2.6962     1.7601 H       
  32 H32           -2.7914    -3.5381     4.0594 H       
  33 H33            1.4630    -3.6407     3.5631 H       
  34 H34            1.2056    -2.8037     1.2640 H       
  35 H35            1.6451    -4.2599     5.2523 H       
  36 H36            1.8838    -5.1007     7.5520 H       
  37 H37           -0.1107    -5.4696     8.9444 H       
  38 H38           -2.3523    -4.9997     8.0457 H       
  39 H39           -2.6089    -4.1511     5.7508 H       
  40 H40            1.1226     2.6038    -1.4179 H       
  41 H41            1.0984     3.0580     0.2996 H       
  42 H42            3.2698     2.0033    -0.4932 H       
  43 H43            2.5057     1.1778     0.8903 H       
  44 H44            2.0516     0.3652    -2.0192 H       
  45 H45            3.2759    -0.3902    -0.9660 H       
  46 H46            1.5828    -1.1169     0.5995 H       
  47 H47            1.0551    -1.6093    -1.0240 H       
  48 H48           -4.8494     3.5262     0.5952 H       
@<TRIPOS>BOND
   1    1    2 2
   2    1   21 1
   3    1    6 1
   4    2    3 1
   5    2   24 1
   6    3    4 1
   7    3    8 1
   8    4    5 2
   9    4   28 1
  10    5    6 1
  11    5   25 1
  12    6    7 2
  13    8    9 1
  14    8   29 1
  15    8   30 1
  16    9   10 ar
  17    9   14 ar
  18   10   11 ar
  19   10   31 1
  20   11   12 ar
  21   11   32 1
  22   12   13 ar
  23   12   15 1
  24   13   14 ar
  25   13   33 1
  26   14   34 1
  27   15   16 ar
  28   15   20 ar
  29   16   17 ar
  30   16   35 1
  31   17   18 ar
  32   17   36 1
  33   18   19 ar
  34   18   37 1
  35   19   20 ar
  36   19   38 1
  37   20   39 1
  38   21   22 1
  39   21   40 1
  40   21   41 1
  41   22   23 1
  42   22   42 1
  43   22   43 1
  44   23   24 1
  45   23   44 1
  46   23   45 1
  47   24   46 1
  48   24   47 1
  49   25   26 2
  50   25   27 1
  51   27   48 1

#	End of record

