#	Name: ASD05430592
#	Creating user name:	WinNT
#	Creation time:	15. 06. 2019 21:00

#	Modifying user name:	WinNT
#	Modification time:	15. 06. 2019 21:00

#	Program:	/corina/corina34_cracker 3.40 0067  02.08.2006

@<TRIPOS>MOLECULE
ASD05430592
  36   38    0    0    0
SMALL
NO_CHARGES


@<TRIPOS>ATOM
   1 C1            -0.0167     1.3796     0.0096 C.ar    
   2 C2             0.0021    -0.0041     0.0020 C.ar    
   3 C3             1.1717     2.0813     0.0020 C.ar    
   4 C4             2.3972     1.4066     0.0023 C.ar    
   5 C5             2.4019     0.0200    -0.0127 C.ar    
   6 C6             1.2096    -0.6780    -0.0129 C.ar    
   7 C7             1.2250    -2.1848    -0.0300 C.3     
   8 C8             1.9594    -2.7014     1.2088 C.3     
   9 C9            -0.2122    -2.7096    -0.0267 C.3     
  10 C10            1.9434    -2.6732    -1.2895 C.3     
  11 N11            1.2109     3.4806    -0.0304 N.pl3   
  12 C12            2.3980     4.1321    -0.3175 C.2     
  13 C13            3.6632     3.3669    -0.6024 C.3     
  14 O14            3.5698     2.0898     0.0399 O.3     
  15 C15            0.2792     4.4233     0.1716 C.2     
  16 N16            0.8413     5.5986     0.0228 N.2     
  17 C17            2.1440     5.4375    -0.2781 C.2     
  18 C18            3.1390     6.5417    -0.5265 C.3     
  19 H19           -0.9582     1.9086     0.0170 H       
  20 H20           -0.9255    -0.5572     0.0081 H       
  21 H21            3.3397    -0.5155    -0.0243 H       
  22 H22            1.4476    -2.3534     2.1060 H       
  23 H23            1.9706    -3.7913     1.1964 H       
  24 H24            2.9833    -2.3275     1.2064 H       
  25 H25           -0.7354    -2.3416    -0.9093 H       
  26 H26           -0.2010    -3.7995    -0.0391 H       
  27 H27           -0.7240    -2.3616     0.8705 H       
  28 H28            2.9673    -2.2993    -1.2918 H       
  29 H29            1.9546    -3.7631    -1.3019 H       
  30 H30            1.4202    -2.3052    -2.1720 H       
  31 H31            3.7758     3.2303    -1.6779 H       
  32 H32            4.5200     3.9140    -0.2092 H       
  33 H33           -0.7577     4.2450     0.4154 H       
  34 H34            3.6116     6.8233     0.4144 H       
  35 H35            3.8998     6.1946    -1.2257 H       
  36 H36            2.6253     7.4057    -0.9480 H       
@<TRIPOS>BOND
   1    1    2 ar
   2    1    3 ar
   3    1   19 1
   4    2    6 ar
   5    2   20 1
   6    3    4 ar
   7    3   11 1
   8    4    5 ar
   9    4   14 1
  10    5    6 ar
  11    5   21 1
  12    6    7 1
  13    7    8 1
  14    7    9 1
  15    7   10 1
  16    8   22 1
  17    8   23 1
  18    8   24 1
  19    9   25 1
  20    9   26 1
  21    9   27 1
  22   10   28 1
  23   10   29 1
  24   10   30 1
  25   11   12 1
  26   11   15 1
  27   12   13 1
  28   12   17 2
  29   13   14 1
  30   13   31 1
  31   13   32 1
  32   15   16 2
  33   15   33 1
  34   16   17 1
  35   17   18 1
  36   18   34 1
  37   18   35 1
  38   18   36 1

#	End of record

