#	Name: ASD04660003
#	Creating user name:	WinNT
#	Creation time:	15. 06. 2019 20:52

#	Modifying user name:	WinNT
#	Modification time:	15. 06. 2019 20:52

#	Program:	/corina/corina34_cracker 3.40 0067  02.08.2006

@<TRIPOS>MOLECULE
ASD04660003
  52   56    0    0    0
SMALL
NO_CHARGES


@<TRIPOS>ATOM
   1 C1             5.0806     5.9404     1.5733 C.ar    
   2 C2             3.8690     6.5688     1.8059 C.ar    
   3 C3             2.6847     5.9266     1.4864 C.ar    
   4 C4             2.7131     4.6594     0.9358 C.ar    
   5 C5             3.9235     4.0329     0.7040 C.ar    
   6 C6             5.1066     4.6732     1.0226 C.ar    
   7 C7             3.6095     4.2310    -3.3115 C.ar    
   8 C8             3.2098     3.2755    -2.3811 C.ar    
   9 C9             1.8574     2.9985    -2.2004 C.ar    
  10 C10            0.9113     3.6685    -2.9417 C.ar    
  11 C11            1.3094     4.6286    -3.8769 C.ar    
  12 C12            2.6684     4.9048    -4.0556 C.ar    
  13 C13           -0.4045     9.9761    -9.3482 C.ar    
  14 C14           -1.4766     9.3057    -8.7567 C.ar    
  15 C15           -2.7829     9.6044    -9.1486 C.ar    
  16 C16           -3.0107    10.5623   -10.1207 C.ar    
  17 C17           -1.9373    11.2293   -10.7044 C.ar    
  18 C18           -0.6384    10.9309   -10.3152 C.ar    
  19 C19           -0.2662     6.9492    -6.3226 C.2     
  20 N20           -1.5655     6.7877    -6.2547 N.2     
  21 N21           -2.1402     7.5825    -7.0873 N.2     
  22 C22           -1.2296     8.2831    -7.7197 C.2     
  23 O23           -0.0243     7.8964    -7.2485 O.3     
  24 O24           -4.2896    10.8369   -10.4982 O.3     
  25 C25           -4.5029    12.0634   -11.2050 C.3     
  26 C26           -3.4269    12.1852   -12.2924 C.3     
  27 O27           -2.1443    12.1799   -11.6564 O.3     
  28 S28            3.9582     2.4170     0.0024 S.o2    
  29 N29            4.1633     2.5961    -1.6310 N.am    
  30 O30            5.1388     1.7936     0.4891 O.2     
  31 O31            2.6590     1.8717     0.1863 O.2     
  32 C32            0.2983     5.3481    -4.6734 C.2     
  33 N33            0.6836     6.2734    -5.5745 N.am    
  34 O34           -0.8833     5.1067    -4.5172 O.2     
  35 F35            3.8423     7.8075     2.3447 F       
  36 H36            6.0052     6.4422     1.8180 H       
  37 H37            1.7390     6.4157     1.6678 H       
  38 H38            1.7895     4.1581     0.6869 H       
  39 H39            6.0516     4.1828     0.8410 H       
  40 H40            4.6591     4.4467    -3.4461 H       
  41 H41            1.5505     2.2568    -1.4779 H       
  42 H42           -0.1376     3.4526    -2.8016 H       
  43 H43            2.9791     5.6461    -4.7769 H       
  44 H44            0.6073     9.7502    -9.0454 H       
  45 H45           -3.6150     9.0878    -8.6934 H       
  46 H46            0.1922    11.4489   -10.7715 H       
  47 H47           -5.4911    12.0555   -11.6650 H       
  48 H48           -4.4249    12.9036   -10.5150 H       
  49 H49           -3.5006    11.3414   -12.9785 H       
  50 H50           -3.5617    13.1179   -12.8401 H       
  51 H51            4.9486     2.2270    -2.0646 H       
  52 H52            1.6261     6.4660    -5.6991 H       
@<TRIPOS>BOND
   1    1    2 ar
   2    1    6 ar
   3    1   36 1
   4    2    3 ar
   5    2   35 1
   6    3    4 ar
   7    3   37 1
   8    4    5 ar
   9    4   38 1
  10    5    6 ar
  11    5   28 1
  12    6   39 1
  13    7    8 ar
  14    7   12 ar
  15    7   40 1
  16    8    9 ar
  17    8   29 1
  18    9   10 ar
  19    9   41 1
  20   10   11 ar
  21   10   42 1
  22   11   12 ar
  23   11   32 1
  24   12   43 1
  25   13   14 ar
  26   13   18 ar
  27   13   44 1
  28   14   15 ar
  29   14   22 1
  30   15   16 ar
  31   15   45 1
  32   16   17 ar
  33   16   24 1
  34   17   18 ar
  35   17   27 1
  36   18   46 1
  37   19   20 2
  38   19   23 1
  39   19   33 1
  40   20   21 1
  41   21   22 2
  42   22   23 1
  43   24   25 1
  44   25   26 1
  45   25   47 1
  46   25   48 1
  47   26   27 1
  48   26   49 1
  49   26   50 1
  50   28   29 am
  51   28   30 2
  52   28   31 2
  53   29   51 1
  54   32   33 am
  55   32   34 2
  56   33   52 1

#	End of record

