#	Name: ASD08150526
#	Creating user name:	WinNT
#	Creation time:	15. 06. 2019 21:16

#	Modifying user name:	WinNT
#	Modification time:	15. 06. 2019 21:16

#	Program:	/corina/corina34_cracker 3.40 0067  02.08.2006

@<TRIPOS>MOLECULE
ASD08150526
  31   32    0    0    0
SMALL
NO_CHARGES


@<TRIPOS>ATOM
   1 C1             0.1639     1.6113     0.0283 C.2     
   2 C2            -0.1290     0.1666     0.0391 C.ar    
   3 C3             0.9126    -0.7663    -0.0867 C.ar    
   4 C4             0.6234    -2.1249    -0.0745 C.ar    
   5 C5            -0.6816    -2.5528     0.0607 C.ar    
   6 C6            -1.7119    -1.6345     0.1851 C.ar    
   7 C7            -1.4442    -0.2829     0.1806 C.ar    
   8 O8             1.3167     1.9978     0.0031 O.2     
   9 N9            -0.8460     2.5037     0.0406 N.am    
  10 C10            1.7358    -3.1325    -0.2096 C.3     
  11 F11            1.2017    -4.4249    -0.1699 F       
  12 F12            2.3959    -2.9380    -1.4276 F       
  13 F13            2.6425    -2.9701     0.8434 F       
  14 C14           -0.5698     3.8711     0.1473 C.ar    
  15 C15           -1.4800     4.8053    -0.3338 C.ar    
  16 C16           -1.2037     6.1549    -0.2267 C.ar    
  17 C17           -0.0233     6.5761     0.3583 C.ar    
  18 C18            0.8836     5.6492     0.8375 C.ar    
  19 C19            0.6112     4.2983     0.7389 C.ar    
  20 Cl20          -2.9615     4.2769    -1.0686 Cl      
  21 N21            2.2251    -0.3331    -0.2231 N.pl3   
  22 H22           -0.9014    -3.6102     0.0693 H       
  23 H23           -2.7297    -1.9802     0.2901 H       
  24 H24           -2.2506     0.4283     0.2820 H       
  25 H25           -1.7642     2.1980    -0.0245 H       
  26 H26           -1.9100     6.8815    -0.6004 H       
  27 H27            0.1906     7.6315     0.4405 H       
  28 H28            1.8043     5.9817     1.2937 H       
  29 H29            1.3183     3.5752     1.1176 H       
  30 H30            2.4168     0.6139    -0.3085 H       
  31 H31            2.9499    -0.9776    -0.2331 H       
@<TRIPOS>BOND
   1    1    2 1
   2    1    8 2
   3    1    9 am
   4    2    3 ar
   5    2    7 ar
   6    3    4 ar
   7    3   21 1
   8    4    5 ar
   9    4   10 1
  10    5    6 ar
  11    5   22 1
  12    6    7 ar
  13    6   23 1
  14    7   24 1
  15    9   14 1
  16    9   25 1
  17   10   11 1
  18   10   12 1
  19   10   13 1
  20   14   15 ar
  21   14   19 ar
  22   15   16 ar
  23   15   20 1
  24   16   17 ar
  25   16   26 1
  26   17   18 ar
  27   17   27 1
  28   18   19 ar
  29   18   28 1
  30   19   29 1
  31   21   30 1
  32   21   31 1

#	End of record

