#	Name: ASD03330206
#	Creating user name:	WinNT
#	Creation time:	15. 06. 2019 20:36

#	Modifying user name:	WinNT
#	Modification time:	15. 06. 2019 20:36

#	Program:	/corina/corina34_cracker 3.40 0067  02.08.2006

@<TRIPOS>MOLECULE
ASD03330206
  51   53    0    0    0
SMALL
NO_CHARGES


@<TRIPOS>ATOM
   1 C1             0.1968     1.5369     0.3913 C.2     
   2 C2             0.1650     0.0673     0.2879 C.2     
   3 N3            -0.9582    -0.7048     0.2539 N.pl3   
   4 C4            -0.5609    -1.9978     0.1562 C.2     
   5 C5             0.7980    -2.0028     0.1303 C.2     
   6 N6             1.2154    -0.7203     0.2071 N.2     
   7 C7             1.6611    -3.1933     0.0301 C.2     
   8 N8             3.0016    -3.0544     0.0146 N.am    
   9 N9             1.2744     2.2701     0.4233 N.2     
  10 O10            1.1637    -4.3010    -0.0386 O.2     
  11 C11            3.8596    -4.2377    -0.0849 C.3     
  12 C12            4.0293    -4.6223    -1.5561 C.3     
  13 C13            5.2085    -3.9320     0.5133 C.2     
  14 C14            4.5570    -3.4190    -2.3401 C.3     
  15 N15            5.9530    -4.9246     1.0395 N.am    
  16 C16            5.0230    -5.7802    -1.6691 C.3     
  17 C17           -2.3557    -0.2683     0.3084 C.3     
  18 C18           -3.2487    -1.4105    -0.1886 C.3     
  19 C19           -2.8880    -2.7033     0.5489 C.3     
  20 C20           -1.5005    -3.1748     0.0928 C.3     
  21 C21            2.6778    -5.0521    -2.1301 C.3     
  22 C22            1.1104     3.5675     0.5182 C.2     
  23 C23           -0.1579     3.9934     0.5716 C.2     
  24 S24           -1.2155     2.5861     0.4838 S.3     
  25 O25            5.6242    -2.7927     0.5211 O.2     
  26 C26            7.2152    -4.6142     1.7152 C.3     
  27 H27            3.3984    -2.1709     0.0694 H       
  28 H28            3.4012    -5.0654     0.4564 H       
  29 H29            5.5199    -3.1128    -1.9311 H       
  30 H30            4.6780    -3.6930    -3.3881 H       
  31 H31            3.8491    -2.5941    -2.2595 H       
  32 H32            5.6530    -5.8445     0.9708 H       
  33 H33            4.6993    -6.6006    -1.0286 H       
  34 H34            5.0664    -6.1220    -2.7032 H       
  35 H35            6.0111    -5.4429    -1.3562 H       
  36 H36           -2.6206    -0.0178     1.3356 H       
  37 H37           -2.4909     0.6052    -0.3295 H       
  38 H38           -4.2932    -1.1636     0.0016 H       
  39 H39           -3.0982    -1.5493    -1.2592 H       
  40 H40           -2.8748    -2.5182     1.6230 H       
  41 H41           -3.6269    -3.4713     0.3201 H       
  42 H42           -1.5561    -3.5468    -0.9303 H       
  43 H43           -1.1449    -3.9655     0.7536 H       
  44 H44            1.9699    -4.2272    -2.0495 H       
  45 H45            2.7988    -5.3260    -3.1782 H       
  46 H46            2.3019    -5.9093    -1.5716 H       
  47 H47            1.9465     4.2503     0.5515 H       
  48 H48           -0.4777     5.0219     0.6503 H       
  49 H49            7.8903    -4.1213     1.0156 H       
  50 H50            7.0220    -3.9536     2.5604 H       
  51 H51            7.6725    -5.5369     2.0725 H       
@<TRIPOS>BOND
   1    1    2 1
   2    1    9 2
   3    1   24 1
   4    2    3 1
   5    2    6 2
   6    3    4 1
   7    3   17 1
   8    4    5 2
   9    4   20 1
  10    5    6 1
  11    5    7 1
  12    7    8 am
  13    7   10 2
  14    8   11 1
  15    8   27 1
  16    9   22 1
  17   11   12 1
  18   11   13 1
  19   11   28 1
  20   12   14 1
  21   12   16 1
  22   12   21 1
  23   13   15 am
  24   13   25 2
  25   14   29 1
  26   14   30 1
  27   14   31 1
  28   15   26 1
  29   15   32 1
  30   16   33 1
  31   16   34 1
  32   16   35 1
  33   17   18 1
  34   17   36 1
  35   17   37 1
  36   18   19 1
  37   18   38 1
  38   18   39 1
  39   19   20 1
  40   19   40 1
  41   19   41 1
  42   20   42 1
  43   20   43 1
  44   21   44 1
  45   21   45 1
  46   21   46 1
  47   22   23 2
  48   22   47 1
  49   23   24 1
  50   23   48 1
  51   26   49 1
  52   26   50 1
  53   26   51 1

#	End of record

