#	Name: ASD01940623
#	Creating user name:	WinNT
#	Creation time:	15. 06. 2019 20:12

#	Modifying user name:	WinNT
#	Modification time:	15. 06. 2019 20:12

#	Program:	/corina/corina34_cracker 3.40 0067  02.08.2006

@<TRIPOS>MOLECULE
ASD01940623
  50   52    0    0    0
SMALL
NO_CHARGES


@<TRIPOS>ATOM
   1 C1            -0.6283     1.5092     0.5037 C.ar    
   2 C2            -0.6580     0.1069     0.5518 C.ar    
   3 C3             0.5003    -0.5965     0.8349 C.ar    
   4 C4             1.6873     0.0787     1.0706 C.ar    
   5 C5             1.7290     1.4619     1.0263 C.ar    
   6 C6             0.5802     2.1856     0.7440 C.ar    
   7 N7             0.6235     3.5734     0.6990 N.pl3   
   8 C8             1.6193     4.2652     1.3969 C.ar    
   9 C9             2.2690     3.6602     2.4640 C.ar    
  10 C10            3.2521     4.3457     3.1517 C.ar    
  11 C11            3.5897     5.6339     2.7788 C.ar    
  12 C12            2.9449     6.2413     1.7157 C.ar    
  13 C13            1.9647     5.5590     1.0194 C.ar    
  14 F14            1.3390     6.1497    -0.0220 F       
  15 I15            5.0802     6.6685     3.8262 I       
  16 F16            2.8118    -0.6178     1.3460 F       
  17 C17           -1.8516     2.2653     0.1979 C.2     
  18 O18           -2.5895     2.6183     1.0984 O.2     
  19 N19           -2.1554     2.5674    -1.0799 N.am    
  20 O20           -1.8182    -0.5573     0.3221 O.3     
  21 C21           -1.7935    -1.9155     0.3571 C.ar    
  22 C22           -1.7936    -2.5775     1.5752 C.ar    
  23 C23           -1.7688    -3.9655     1.6106 C.ar    
  24 C24           -1.7439    -4.6891     0.4260 C.ar    
  25 C25           -1.7438    -4.0254    -0.7915 C.ar    
  26 C26           -1.7740    -2.6395    -0.8262 C.ar    
  27 N27           -1.7684    -4.6332     2.8373 N.am    
  28 S28           -3.1551    -4.7088     3.7393 S.o2    
  29 N29           -4.2744    -5.5432     2.8486 N.am    
  30 O30           -2.8559    -5.5187     4.8680 O.2     
  31 O31           -3.6383    -3.3767     3.8447 O.2     
  32 O32           -1.7195    -4.7336    -1.9511 O.3     
  33 C33           -1.7210    -3.9852    -3.1685 C.3     
  34 H34            0.4786    -1.6756     0.8726 H       
  35 H35            2.6589     1.9788     1.2118 H       
  36 H36           -0.0366     4.0629     0.1837 H       
  37 H37            2.0059     2.6545     2.7569 H       
  38 H38            3.7575     3.8748     3.9819 H       
  39 H39            3.2105     7.2476     1.4271 H       
  40 H40           -1.5670     2.2859    -1.7979 H       
  41 H41           -2.9625     3.0662    -1.2816 H       
  42 H42           -1.8126    -2.0139     2.4963 H       
  43 H43           -1.7242    -5.7686     0.4527 H       
  44 H44           -1.7784    -2.1234    -1.7749 H       
  45 H45           -0.9558    -5.0527     3.1609 H       
  46 H46           -4.0212    -5.9401     2.0005 H       
  47 H47           -5.1832    -5.6350     3.1749 H       
  48 H48           -2.6218    -3.3734    -3.2178 H       
  49 H49           -0.8422    -3.3411    -3.2001 H       
  50 H50           -1.7001    -4.6702    -4.0161 H       
@<TRIPOS>BOND
   1    1    2 ar
   2    1    6 ar
   3    1   17 1
   4    2    3 ar
   5    2   20 1
   6    3    4 ar
   7    3   34 1
   8    4    5 ar
   9    4   16 1
  10    5    6 ar
  11    5   35 1
  12    6    7 1
  13    7    8 1
  14    7   36 1
  15    8    9 ar
  16    8   13 ar
  17    9   10 ar
  18    9   37 1
  19   10   11 ar
  20   10   38 1
  21   11   12 ar
  22   11   15 1
  23   12   13 ar
  24   12   39 1
  25   13   14 1
  26   17   18 2
  27   17   19 am
  28   19   40 1
  29   19   41 1
  30   20   21 1
  31   21   22 ar
  32   21   26 ar
  33   22   23 ar
  34   22   42 1
  35   23   27 1
  36   23   24 ar
  37   24   25 ar
  38   24   43 1
  39   25   26 ar
  40   25   32 1
  41   26   44 1
  42   27   28 am
  43   27   45 1
  44   28   29 am
  45   28   30 2
  46   28   31 2
  47   29   46 1
  48   29   47 1
  49   32   33 1
  50   33   48 1
  51   33   49 1
  52   33   50 1

#	End of record

