#	Name: ASD01351009
#	Creating user name:	WinNT
#	Creation time:	15. 06. 2019 19:16

#	Modifying user name:	WinNT
#	Modification time:	15. 06. 2019 19:16

#	Program:	/corina/corina34_cracker 3.40 0067  02.08.2006

@<TRIPOS>MOLECULE
ASD01351009
  58   61    0    0    0
SMALL
NO_CHARGES


@<TRIPOS>ATOM
   1 N1            -0.0179     1.4682     0.0101 N.am    
   2 C2             0.0021    -0.0041     0.0020 C.3     
   3 C3            -1.3303     2.1231     0.0324 C.3     
   4 C4            -0.8223    -0.5265    -1.1763 C.3     
   5 C5             1.4442    -0.5016    -0.1144 C.3     
   6 C6            -0.6076    -0.4891     1.3163 C.3     
   7 C7            -2.2236     1.4357     1.0343 C.ar    
   8 C8            -1.8962     0.2335     1.6086 C.ar    
   9 C9            -3.4215     2.0540     1.3648 C.ar    
  10 C10           -2.7738    -0.3544     2.5113 C.ar    
  11 C11           -4.2854     1.4697     2.2685 C.ar    
  12 C12           -3.9673     0.2591     2.8308 C.ar    
  13 C13            1.1234     2.1850     0.0031 C.2     
  14 O14            2.1955     1.6180    -0.0102 O.2     
  15 O15            1.4562    -1.9535    -0.1218 O.3     
  16 C16            2.6535    -2.5526    -0.2192 C.2     
  17 C17            2.7445    -4.0567    -0.2331 C.3     
  18 O18            3.6582    -1.8858    -0.2958 O.2     
  19 C19            1.0675     3.6909     0.0117 C.3     
  20 C20            2.4686     4.2457     0.0013 C.ar    
  21 C21            3.0998     4.5066    -1.2006 C.ar    
  22 C22            4.3851     5.0154    -1.2101 C.ar    
  23 C23            5.0390     5.2638    -0.0178 C.ar    
  24 C24            4.4074     5.0038     1.1841 C.ar    
  25 C25            3.1206     4.4990     1.1936 C.ar    
  26 C26            4.1886    -4.4715    -0.3493 C.ar    
  27 C27            4.9455    -4.6671     0.7908 C.ar    
  28 C28            6.2702    -5.0475     0.6842 C.ar    
  29 C29            6.8379    -5.2329    -0.5625 C.ar    
  30 C30            6.0808    -5.0382    -1.7026 C.ar    
  31 C31            4.7549    -4.6620    -1.5959 C.ar    
  32 H32           -1.2088     3.1695     0.3125 H       
  33 H33           -1.7823     2.0634    -0.9577 H       
  34 H34           -0.3985    -0.1550    -2.1093 H       
  35 H35           -0.8042    -1.6163    -1.1775 H       
  36 H36           -1.8515    -0.1803    -1.0814 H       
  37 H37            1.8832    -0.1299    -1.0403 H       
  38 H38            2.0237    -0.1378     0.7341 H       
  39 H39           -0.8043    -1.5590     1.2470 H       
  40 H40            0.0975    -0.3068     2.1274 H       
  41 H41           -3.6793     2.9997     0.9114 H       
  42 H42           -2.5194    -1.3001     2.9665 H       
  43 H43           -5.2158     1.9562     2.5218 H       
  44 H44           -4.6438    -0.2053     3.5330 H       
  45 H45            2.3254    -4.4546     0.6911 H       
  46 H46            2.1849    -4.4468    -1.0833 H       
  47 H47            0.5321     4.0397    -0.8714 H       
  48 H48            0.5491     4.0301     0.9085 H       
  49 H49            2.5889     4.3125    -2.1321 H       
  50 H50            4.8785     5.2186    -2.1491 H       
  51 H51            6.0434     5.6607    -0.0252 H       
  52 H52            4.9184     5.1976     2.1156 H       
  53 H53            2.6272     4.2959     2.1326 H       
  54 H54            4.5019    -4.5223     1.7648 H       
  55 H55            6.8617    -5.1996     1.5750 H       
  56 H56            7.8730    -5.5294    -0.6457 H       
  57 H57            6.5244    -5.1827    -2.6766 H       
  58 H58            4.1634    -4.5099    -2.4866 H       
@<TRIPOS>BOND
   1    1    2 1
   2    1   13 am
   3    1    3 1
   4    2    5 1
   5    2    6 1
   6    2    4 1
   7    3    7 1
   8    3   32 1
   9    3   33 1
  10    4   34 1
  11    4   35 1
  12    4   36 1
  13    5   15 1
  14    5   37 1
  15    5   38 1
  16    6    8 1
  17    6   39 1
  18    6   40 1
  19    7    8 ar
  20    7    9 ar
  21    8   10 ar
  22    9   11 ar
  23    9   41 1
  24   10   12 ar
  25   10   42 1
  26   11   12 ar
  27   11   43 1
  28   12   44 1
  29   13   14 2
  30   13   19 1
  31   15   16 1
  32   16   17 1
  33   16   18 2
  34   17   26 1
  35   17   45 1
  36   17   46 1
  37   19   20 1
  38   19   47 1
  39   19   48 1
  40   20   21 ar
  41   20   25 ar
  42   21   22 ar
  43   21   49 1
  44   22   23 ar
  45   22   50 1
  46   23   24 ar
  47   23   51 1
  48   24   25 ar
  49   24   52 1
  50   25   53 1
  51   26   27 ar
  52   26   31 ar
  53   27   28 ar
  54   27   54 1
  55   28   29 ar
  56   28   55 1
  57   29   30 ar
  58   29   56 1
  59   30   31 ar
  60   30   57 1
  61   31   58 1

#	End of record

