#	Name: ASD01940093
#	Creating user name:	WinNT
#	Creation time:	15. 06. 2019 20:11

#	Modifying user name:	WinNT
#	Modification time:	15. 06. 2019 20:11

#	Program:	/corina/corina34_cracker 3.40 0067  02.08.2006

@<TRIPOS>MOLECULE
ASD01940093
  46   48    0    0    0
SMALL
NO_CHARGES


@<TRIPOS>ATOM
   1 C1             1.7949     1.4180    -1.0563 C.ar    
   2 C2             1.5990     0.0442    -1.1493 C.ar    
   3 C3             1.7793    -0.5987    -2.3667 C.ar    
   4 C4             2.1524     0.1269    -3.4813 C.ar    
   5 C5             2.3467     1.4933    -3.3868 C.ar    
   6 C6             2.1627     2.1392    -2.1774 C.ar    
   7 I7             2.9125     2.5882    -5.0809 I       
   8 F8             1.6206     2.0478     0.1262 F       
   9 N9             1.2216    -0.6885    -0.0186 N.pl3   
  10 C10            1.1513    -2.0656    -0.0803 C.2     
  11 C11            2.3513    -2.8725    -0.2928 C.2     
  12 C12            2.2373    -4.2689    -0.3493 C.2     
  13 N13            1.0108    -4.8542    -0.2047 N.am    
  14 C14           -0.0981    -4.1217    -0.0082 C.2     
  15 C15           -0.0587    -2.7265     0.0630 C.2     
  16 O16           -1.1703    -4.6912     0.1152 O.2     
  17 C17            3.6310    -2.2830    -0.4443 C.2     
  18 N18            4.6879    -3.1047    -0.6376 N.am    
  19 C19            4.5114    -4.4460    -0.6828 C.2     
  20 N20            3.3400    -5.0047    -0.5447 N.2     
  21 O21            3.7747    -1.0739    -0.4021 O.2     
  22 C22            0.9028    -6.3140    -0.2659 C.3     
  23 C23           -1.3271    -1.9437     0.2852 C.3     
  24 C24            6.0301    -2.5403    -0.7993 C.3     
  25 C25            6.7005    -2.4181     0.5706 C.3     
  26 O26            6.9023    -3.7216     1.1201 O.3     
  27 C27            8.0505    -1.7148     0.4168 C.3     
  28 O28            8.6236    -1.4964     1.7075 O.3     
  29 H29            1.6283    -1.6654    -2.4420 H       
  30 H30            2.2929    -0.3734    -4.4281 H       
  31 H31            2.3152     3.2061    -2.1067 H       
  32 H32            1.0093    -0.2286     0.8087 H       
  33 H33            5.3731    -5.0781    -0.8388 H       
  34 H34            1.0212    -6.7294     0.7348 H       
  35 H35           -0.0752    -6.5897    -0.6604 H       
  36 H36            1.6820    -6.7090    -0.9178 H       
  37 H37           -2.1796    -2.6228     0.2756 H       
  38 H38           -1.2771    -1.4369     1.2490 H       
  39 H39           -1.4420    -1.2051    -0.5081 H       
  40 H40            6.6246    -3.1938    -1.4377 H       
  41 H41            5.9567    -1.5538    -1.2572 H       
  42 H42            6.0623    -1.8377     1.2369 H       
  43 H43            7.4623    -4.2944     0.5785 H       
  44 H44            8.7193    -2.3380    -0.1769 H       
  45 H45            7.9065    -0.7572    -0.0835 H       
  46 H46            9.4828    -1.0533     1.6865 H       
@<TRIPOS>BOND
   1    1    2 ar
   2    1    8 1
   3    1    6 ar
   4    2    3 ar
   5    2    9 1
   6    3    4 ar
   7    3   29 1
   8    4    5 ar
   9    4   30 1
  10    5    6 ar
  11    5    7 1
  12    6   31 1
  13    9   10 1
  14    9   32 1
  15   10   11 1
  16   10   15 2
  17   11   12 2
  18   11   17 1
  19   12   13 1
  20   12   20 1
  21   13   14 am
  22   13   22 1
  23   14   15 1
  24   14   16 2
  25   15   23 1
  26   17   18 am
  27   17   21 2
  28   18   19 1
  29   18   24 1
  30   19   20 2
  31   19   33 1
  32   22   34 1
  33   22   35 1
  34   22   36 1
  35   23   37 1
  36   23   38 1
  37   23   39 1
  38   24   25 1
  39   24   40 1
  40   24   41 1
  41   25   26 1
  42   25   27 1
  43   25   42 1
  44   26   43 1
  45   27   28 1
  46   27   44 1
  47   27   45 1
  48   28   46 1

#	End of record

