#	Name: ASD08830015
#	Creating user name:	WinNT
#	Creation time:	15. 06. 2019 21:19

#	Modifying user name:	WinNT
#	Modification time:	15. 06. 2019 21:19

#	Program:	/corina/corina34_cracker 3.40 0067  02.08.2006

@<TRIPOS>MOLECULE
ASD08830015
  46   48    0    0    0
SMALL
NO_CHARGES


@<TRIPOS>ATOM
   1 C1            -0.0187     1.5252     0.0104 C.3     
   2 C2             0.0021    -0.0041     0.0020 C.3     
   3 C3             1.3863     2.0531    -0.0002 C.2     
   4 C4             2.3259     1.4139     0.6879 C.2     
   5 C5             1.9913     0.1794     1.4312 C.2     
   6 C6             0.8644    -0.5029     1.1261 C.2     
   7 C7             2.8807    -0.3039     2.4980 C.2     
   8 C8             4.1358     0.4587     2.8358 C.3     
   9 C9             4.8743    -0.2522     3.9717 C.3     
  10 N10            6.0978     0.4912     4.3010 N.3     
  11 C11            5.7773     1.8097     4.8637 C.3     
  12 O12            2.6040    -1.3162     3.1059 O.2     
  13 C13            8.5015     1.3498     6.3157 C.ar    
  14 C14            8.2936     0.3955     5.3374 C.ar    
  15 C15            6.9512    -0.2784     5.2161 C.3     
  16 O16           -0.7769     1.9805    -1.1423 O.3     
  17 C17            9.7320     1.9688     6.4277 C.ar    
  18 C18           10.7569     1.6329     5.5594 C.ar    
  19 N19           -1.3722    -0.5037     0.0988 N.3     
  20 C20           -2.1472    -0.0682    -1.0783 C.3     
  21 C21           -2.0108     1.4287    -1.2383 C.2     
  22 O22           -2.9809     2.1182    -1.4469 O.2     
  23 C23           10.5475     0.6770     4.5798 C.ar    
  24 C24            9.3162     0.0593     4.4699 C.ar    
  25 F25           11.9601     2.2377     5.6676 F       
  26 H26           -0.5209     1.8688     0.9148 H       
  27 H27            0.4355    -0.3450    -0.9382 H       
  28 H28            1.6309     2.9428    -0.5614 H       
  29 H29            3.3359     1.7959     0.7042 H       
  30 H30            0.5904    -1.3891     1.6791 H       
  31 H31            4.7796     0.5061     1.9575 H       
  32 H32            3.8738     1.4692     3.1492 H       
  33 H33            4.2305    -0.2996     4.8500 H       
  34 H34            5.1364    -1.2627     3.6583 H       
  35 H35            5.1896     1.6836     5.7730 H       
  36 H36            6.7009     2.3388     5.0986 H       
  37 H37            5.2036     2.3852     4.1372 H       
  38 H38            7.7006     1.6149     6.9900 H       
  39 H39            6.4796    -0.3280     6.1975 H       
  40 H40            7.0851    -1.2874     4.8259 H       
  41 H41            9.8941     2.7146     7.1919 H       
  42 H42           -1.3861    -1.5085     0.1894 H       
  43 H43           -1.7657    -0.5658    -1.9698 H       
  44 H44           -3.1972    -0.3251    -0.9382 H       
  45 H45           11.3463     0.4139     3.9023 H       
  46 H46            9.1528    -0.6866     3.7061 H       
@<TRIPOS>BOND
   1    1    2 1
   2    1    3 1
   3    1   16 1
   4    1   26 1
   5    2   19 1
   6    2    6 1
   7    2   27 1
   8    3    4 2
   9    3   28 1
  10    4    5 1
  11    4   29 1
  12    5    6 2
  13    5    7 1
  14    6   30 1
  15    7    8 1
  16    7   12 2
  17    8    9 1
  18    8   31 1
  19    8   32 1
  20    9   10 1
  21    9   33 1
  22    9   34 1
  23   10   11 1
  24   10   15 1
  25   11   35 1
  26   11   36 1
  27   11   37 1
  28   13   14 ar
  29   13   17 ar
  30   13   38 1
  31   14   15 1
  32   14   24 ar
  33   15   39 1
  34   15   40 1
  35   16   21 1
  36   17   18 ar
  37   17   41 1
  38   18   23 ar
  39   18   25 1
  40   19   20 1
  41   19   42 1
  42   20   21 1
  43   20   43 1
  44   20   44 1
  45   21   22 2
  46   23   24 ar
  47   23   45 1
  48   24   46 1

#	End of record

