#	Name: ASD09080119
#	Creating user name:	WinNT
#	Creation time:	15. 06. 2019 21:20

#	Modifying user name:	WinNT
#	Modification time:	15. 06. 2019 21:20

#	Program:	/corina/corina34_cracker 3.40 0067  02.08.2006

@<TRIPOS>MOLECULE
ASD09080119
  56   57    0    0    0
SMALL
NO_CHARGES


@<TRIPOS>ATOM
   1 C1            -0.1506     0.8749     0.6070 C.ar    
   2 C2            -0.0608    -0.5051     0.5487 C.ar    
   3 C3             1.1738    -1.1153     0.4397 C.ar    
   4 C4             2.3297    -0.3391     0.3884 C.ar    
   5 C5             2.2341     1.0496     0.4475 C.ar    
   6 C6             0.9949     1.6503     0.5565 C.ar    
   7 Cl7            0.8740     3.3805     0.6296 Cl      
   8 Cl8           -1.5020    -1.4708     0.6132 Cl      
   9 C9             3.6584    -0.9895     0.2718 C.ar    
  10 C10            4.8146    -0.2136     0.2206 C.ar    
  11 C11            3.7548    -2.3785     0.2190 C.ar    
  12 C12            4.9932    -2.9781     0.1105 C.ar    
  13 C13            6.1373    -2.2028     0.0547 C.ar    
  14 C14            6.0479    -0.8237     0.1121 C.ar    
  15 C15            7.4868    -2.8633    -0.0627 C.3     
  16 C16            7.8414    -3.0397    -1.5406 C.3     
  17 C17            9.1514    -3.8209    -1.6610 C.3     
  18 N18            7.9982    -1.7240    -2.1655 N.am    
  19 C19            7.2776    -1.4075    -3.2597 C.2     
  20 O20            6.4327    -2.1737    -3.6719 O.2     
  21 C21            7.5218    -0.1015    -3.9709 C.3     
  22 O22            6.6412     0.0026    -5.0915 O.3     
  23 C23            6.7918     1.2113    -5.8388 C.3     
  24 C24            9.5126    -3.9862    -3.1386 C.3     
  25 O25            8.4698    -4.6989    -3.8070 O.3     
  26 O26           10.1942    -3.1081    -0.9927 O.3     
  27 C27           10.8029    -4.7557    -3.2572 C.2     
  28 O28           10.8096    -5.8480    -3.7736 O.2     
  29 O29           11.9447    -4.2275    -2.7893 O.3     
  30 C30           14.3397    -4.2642    -2.3501 C.3     
  31 C31           13.1492    -5.0248    -2.9375 C.3     
  32 H32           -1.1179     1.3483     0.6877 H       
  33 H33            1.2429    -2.1921     0.3946 H       
  34 H34            3.1273     1.6554     0.4085 H       
  35 H35            4.7459     0.8633     0.2653 H       
  36 H36            2.8622    -2.9848     0.2632 H       
  37 H37            5.0691    -4.0547     0.0694 H       
  38 H38            6.9443    -0.2231     0.0678 H       
  39 H39            8.2396    -2.2400     0.4197 H       
  40 H40            7.4573    -3.8388     0.4227 H       
  41 H41            7.0441    -3.5877    -2.0427 H       
  42 H42            9.0320    -4.8032    -1.2041 H       
  43 H43            8.6206    -1.0806    -1.7919 H       
  44 H44            7.3369     0.7256    -3.2854 H       
  45 H45            8.5550    -0.0633    -4.3159 H       
  46 H46            6.0887     1.2135    -6.6717 H       
  47 H47            6.5918     2.0656    -5.1921 H       
  48 H48            7.8099     1.2766    -6.2226 H       
  49 H49            9.6320    -3.0039    -3.5956 H       
  50 H50            8.3081    -5.5838    -3.4520 H       
  51 H51           10.4083    -2.2554    -1.3952 H       
  52 H52           14.4628    -3.3184    -2.8778 H       
  53 H53           14.1606    -4.0696    -1.2927 H       
  54 H54           15.2439    -4.8627    -2.4613 H       
  55 H55           13.0261    -5.9705    -2.4097 H       
  56 H56           13.3283    -5.2194    -3.9949 H       
@<TRIPOS>BOND
   1    1    2 ar
   2    1    6 ar
   3    1   32 1
   4    2    3 ar
   5    2    8 1
   6    3    4 ar
   7    3   33 1
   8    4    5 ar
   9    4    9 1
  10    5    6 ar
  11    5   34 1
  12    6    7 1
  13    9   10 ar
  14    9   11 ar
  15   10   14 ar
  16   10   35 1
  17   11   12 ar
  18   11   36 1
  19   12   13 ar
  20   12   37 1
  21   13   14 ar
  22   13   15 1
  23   14   38 1
  24   15   16 1
  25   15   39 1
  26   15   40 1
  27   16   17 1
  28   16   18 1
  29   16   41 1
  30   17   24 1
  31   17   26 1
  32   17   42 1
  33   18   19 am
  34   18   43 1
  35   19   20 2
  36   19   21 1
  37   21   22 1
  38   21   44 1
  39   21   45 1
  40   22   23 1
  41   23   46 1
  42   23   47 1
  43   23   48 1
  44   24   25 1
  45   24   27 1
  46   24   49 1
  47   25   50 1
  48   26   51 1
  49   27   28 2
  50   27   29 1
  51   29   31 1
  52   30   31 1
  53   30   52 1
  54   30   53 1
  55   30   54 1
  56   31   55 1
  57   31   56 1

#	End of record

