#	Name: ASD00431285
#	Creating user name:	WinNT
#	Creation time:	15. 06. 2019 18:35

#	Modifying user name:	WinNT
#	Modification time:	15. 06. 2019 18:35

#	Program:	/corina/corina34_cracker 3.40 0067  02.08.2006

@<TRIPOS>MOLECULE
ASD00431285
  27   28    0    0    0
SMALL
NO_CHARGES


@<TRIPOS>ATOM
   1 S1            -0.0157     1.7026    -0.0243 S.3     
   2 C2            -0.0487     0.0126    -0.2789 C.2     
   3 N3             1.0767    -0.3898    -0.7871 N.2     
   4 C4             1.9956     0.5217    -1.0056 C.2     
   5 C5             1.6255     1.7781    -0.6605 C.2     
   6 C6             2.4447     2.9862    -0.7935 C.2     
   7 O7            -1.0986    -0.7921     0.0087 O.3     
   8 C8            -0.9229    -2.1357    -0.1049 C.ar    
   9 C9            -2.0126    -2.9899     0.0013 C.ar    
  10 C10           -1.8334    -4.3552    -0.1141 C.ar    
  11 C11           -0.5652    -4.8719    -0.3361 C.ar    
  12 C12            0.5228    -4.0184    -0.4422 C.ar    
  13 C13            0.3434    -2.6528    -0.3325 C.ar    
  14 O14           -0.3888    -6.2153    -0.4493 O.3     
  15 C15            0.9440    -6.6777    -0.6774 C.3     
  16 Cl16          -3.5992    -2.3428     0.2797 Cl      
  17 N17            1.9698     4.1363    -0.4241 N.2     
  18 O18            2.7612     5.3034    -0.5526 O.3     
  19 H19            2.9637     0.2897    -1.4243 H       
  20 H20            3.4435     2.9194    -1.1989 H       
  21 H21           -2.6805    -5.0200    -0.0312 H       
  22 H22            1.5099    -4.4210    -0.6146 H       
  23 H23            1.1902    -1.9883    -0.4199 H       
  24 H24            1.3216    -6.2533    -1.6077 H       
  25 H25            1.5828    -6.3670     0.1494 H       
  26 H26            0.9442    -7.7654    -0.7478 H       
  27 H27            2.3227     6.1111    -0.2517 H       
@<TRIPOS>BOND
   1    1    2 1
   2    1    5 1
   3    2    3 2
   4    2    7 1
   5    3    4 1
   6    4    5 2
   7    4   19 1
   8    5    6 1
   9    6   17 2
  10    6   20 1
  11    7    8 1
  12    8    9 ar
  13    8   13 ar
  14    9   10 ar
  15    9   16 1
  16   10   11 ar
  17   10   21 1
  18   11   12 ar
  19   11   14 1
  20   12   13 ar
  21   12   22 1
  22   13   23 1
  23   14   15 1
  24   15   24 1
  25   15   25 1
  26   15   26 1
  27   17   18 1
  28   18   27 1

#	End of record

