#	Name: ASD01418006
#	Creating user name:	WinNT
#	Creation time:	15. 06. 2019 19:20

#	Modifying user name:	WinNT
#	Modification time:	15. 06. 2019 19:20

#	Program:	/corina/corina34_cracker 3.40 0067  02.08.2006

@<TRIPOS>MOLECULE
ASD01418006
  80   86    0    0    0
SMALL
NO_CHARGES


@<TRIPOS>ATOM
   1 C1            -0.3751     1.4427    -0.0676 C.3     
   2 N2            -0.1503    -0.0082    -0.0375 N.pl3   
   3 C3             0.2133    -0.7477    -1.1380 C.2     
   4 C4             0.5970    -0.2343    -2.4675 C.ar    
   5 C5             1.2511     0.9636    -2.6941 C.ar    
   6 C6             1.7183     1.8907    -1.6060 C.3     
   7 C7             0.9563     2.1461    -0.3431 C.3     
   8 C8             0.2599    -1.0521    -3.5638 C.ar    
   9 C9             0.5551    -0.6640    -4.8475 C.ar    
  10 C10            1.1909     0.5505    -5.0717 C.ar    
  11 C11            1.5338     1.3534    -3.9977 C.ar    
  12 C12           -0.2730    -0.8399     1.0405 C.ar    
  13 C13           -0.1428    -2.1722     0.5613 C.ar    
  14 C14            0.1838    -2.0745    -0.7993 C.2     
  15 C15           -0.4562    -0.5985     2.3911 C.ar    
  16 C16           -0.5389    -1.7179     3.2433 C.ar    
  17 C17           -0.5254    -3.0174     2.7505 C.ar    
  18 C18           -0.3251    -3.2720     1.4157 C.ar    
  19 C19            0.4555    -3.2298    -1.7280 C.3     
  20 C20            1.5140    -4.1443    -1.1083 C.3     
  21 C21           -0.8354    -4.0207    -1.9493 C.3     
  22 C22           -0.5596    -5.1936    -2.8922 C.3     
  23 C23            0.4989    -6.1081    -2.2725 C.3     
  24 C24            1.7898    -5.3173    -2.0512 C.3     
  25 O25            1.4753     0.9482    -6.3391 O.3     
  26 C26            1.0920     0.0672    -7.3969 C.3     
  27 C27           -0.5710    -1.4153     4.6947 C.2     
  28 N28           -0.4466    -0.0641     4.9684 N.am    
  29 O29           -0.6939    -2.2658     5.5550 O.2     
  30 S30           -0.3465     0.3549     6.5818 S.o2    
  31 O31           -1.5470    -0.0929     7.1963 O.2     
  32 O32            0.9493    -0.0256     7.0239 O.2     
  33 N33           -0.3914     2.0322     6.5984 N.am    
  34 N34            0.9078     3.3409     1.7798 N.am    
  35 C35            1.1262     3.4408     0.4269 C.2     
  36 O36            1.4317     4.4845    -0.1099 O.2     
  37 C37           -1.4842     2.7838     7.2205 C.3     
  38 C38            2.2042     1.2386    -0.3128 C.3     
  39 C39            0.7614     2.7000     5.9348 C.3     
  40 C40            0.3015     3.2687     4.5917 C.3     
  41 C41            1.3827     4.1895     4.0238 C.3     
  42 C42            1.0460     4.5716     2.5800 C.3     
  43 H43           -1.0875     1.6862    -0.8558 H       
  44 H44           -0.7706     1.7716     0.8934 H       
  45 H45            2.3470     2.7065    -1.9668 H       
  46 H46           -0.2363    -1.9959    -3.3926 H       
  47 H47            0.2935    -1.3006    -5.6798 H       
  48 H48            2.0285     2.2968    -4.1754 H       
  49 H49           -0.5323     0.4075     2.7765 H       
  50 H50           -0.6750    -3.8430     3.4305 H       
  51 H51           -0.3088    -4.2830     1.0361 H       
  52 H52            0.8175    -2.8504    -2.6836 H       
  53 H53            2.4337    -3.5809    -0.9507 H       
  54 H54            1.1520    -4.5237    -0.1527 H       
  55 H55           -1.1974    -4.4000    -0.9937 H       
  56 H56           -1.5895    -3.3691    -2.3908 H       
  57 H57           -1.4793    -5.7571    -3.0499 H       
  58 H58           -0.1976    -4.8143    -3.8478 H       
  59 H59            0.1369    -6.4875    -1.3169 H       
  60 H60            0.6954    -6.9438    -2.9443 H       
  61 H61            2.1518    -4.9379    -3.0068 H       
  62 H62            2.5439    -5.9688    -1.6097 H       
  63 H63            1.3764     0.5036    -8.3544 H       
  64 H64            1.5945    -0.8918    -7.2711 H       
  65 H65            0.0126    -0.0823    -7.3721 H       
  66 H66           -0.4189     0.6014     4.2632 H       
  67 H67            0.6720     2.4950     2.1917 H       
  68 H68           -2.2107     2.0881     7.6405 H       
  69 H69           -1.0851     3.4155     8.0141 H       
  70 H70           -1.9700     3.4071     6.4697 H       
  71 H71            2.0476     0.1662    -0.1966 H       
  72 H72            3.1089     1.6371     0.1463 H       
  73 H73            1.1279     3.5087     6.5671 H       
  74 H74            1.5579     1.9743     5.7701 H       
  75 H75            0.1193     2.4506     3.8948 H       
  76 H76           -0.6190     3.8349     4.7338 H       
  77 H77            1.4440     5.0923     4.6315 H       
  78 H78            2.3436     3.6753     4.0467 H       
  79 H79            1.8468     5.1863     2.1689 H       
  80 H80            0.1089     5.1280     2.5588 H       
@<TRIPOS>BOND
   1    1    2 1
   2    1    7 1
   3    1   43 1
   4    1   44 1
   5    2    3 1
   6    2   12 1
   7    3    4 1
   8    3   14 2
   9    4    5 ar
  10    4    8 ar
  11    5    6 1
  12    5   11 ar
  13    6    7 1
  14    6   38 1
  15    6   45 1
  16    7   38 1
  17    7   35 1
  18    8    9 ar
  19    8   46 1
  20    9   10 ar
  21    9   47 1
  22   10   11 ar
  23   10   25 1
  24   11   48 1
  25   12   13 ar
  26   12   15 ar
  27   13   14 1
  28   13   18 ar
  29   14   19 1
  30   15   16 ar
  31   15   49 1
  32   16   17 ar
  33   16   27 1
  34   17   18 ar
  35   17   50 1
  36   18   51 1
  37   19   20 1
  38   19   21 1
  39   19   52 1
  40   20   24 1
  41   20   53 1
  42   20   54 1
  43   21   22 1
  44   21   55 1
  45   21   56 1
  46   22   23 1
  47   22   57 1
  48   22   58 1
  49   23   24 1
  50   23   59 1
  51   23   60 1
  52   24   61 1
  53   24   62 1
  54   25   26 1
  55   26   63 1
  56   26   64 1
  57   26   65 1
  58   27   28 am
  59   27   29 2
  60   28   30 am
  61   28   66 1
  62   30   31 2
  63   30   32 2
  64   30   33 am
  65   33   37 1
  66   33   39 1
  67   34   35 am
  68   34   42 1
  69   34   67 1
  70   35   36 2
  71   37   68 1
  72   37   69 1
  73   37   70 1
  74   38   71 1
  75   38   72 1
  76   39   40 1
  77   39   73 1
  78   39   74 1
  79   40   41 1
  80   40   75 1
  81   40   76 1
  82   41   42 1
  83   41   77 1
  84   41   78 1
  85   42   79 1
  86   42   80 1

#	End of record

