#	Name: ASD01912990
#	Creating user name:	WinNT
#	Creation time:	15. 06. 2019 20:00

#	Modifying user name:	WinNT
#	Modification time:	15. 06. 2019 20:00

#	Program:	/corina/corina34_cracker 3.40 0067  02.08.2006

@<TRIPOS>MOLECULE
ASD01912990
  42   45    0    0    0
SMALL
NO_CHARGES


@<TRIPOS>ATOM
   1 C1             0.0275     1.4258     0.0153 C.2     
   2 C2             0.0613    -0.0058     0.0080 C.1     
   3 C3             0.0891    -1.1794     0.0021 C.1     
   4 C4             0.1229    -2.6110    -0.0052 C.ar    
   5 C5            -1.0685    -3.3420     0.0178 C.ar    
   6 C6             1.3474    -3.2846    -0.0410 C.ar    
   7 C7             1.3719    -4.6634    -0.0483 C.ar    
   8 C8             0.1883    -5.3801    -0.0206 C.ar    
   9 C9            -1.0278    -4.7204     0.0101 C.ar    
  10 N10            1.0683     2.2065    -0.0041 N.2     
  11 C11            0.8643     3.5126     0.0078 C.2     
  12 C12           -0.4379     3.8671     0.0336 C.2     
  13 S13           -1.4295     2.4142     0.0442 S.3     
  14 C14            1.9953     4.5329     0.0010 C.3     
  15 C15            1.4483     5.8864    -0.4566 C.3     
  16 N16            0.2052     6.1749     0.2743 N.am    
  17 C17           -0.9492     5.2906     0.0412 C.3     
  18 C18            0.1251     7.2137     1.1292 C.2     
  19 C19           -1.1706     7.5613     1.7510 C.ar    
  20 O20            1.1180     7.8649     1.3890 O.2     
  21 C21           -1.2107     8.0480     3.0595 C.ar    
  22 C22           -2.4198     8.3731     3.6421 C.ar    
  23 C23           -3.5966     8.2193     2.9369 C.ar    
  24 C24           -3.5711     7.7333     1.6268 C.ar    
  25 C25           -2.3537     7.4093     1.0310 C.ar    
  26 C26           -4.7925     7.5738     0.8966 C.1     
  27 N27           -5.7615     7.4473     0.3173 N.1     
  28 H28           -2.0183    -2.8285     0.0417 H       
  29 H29            2.2718    -2.7266    -0.0634 H       
  30 H30            2.3171    -5.1852    -0.0760 H       
  31 H31            0.2139    -6.4598    -0.0271 H       
  32 H32           -1.9473    -5.2865     0.0316 H       
  33 H33            2.4067     4.6272     1.0060 H       
  34 H34            2.7771     4.2055    -0.6843 H       
  35 H35            2.1822     6.6651    -0.2490 H       
  36 H36            1.2428     5.8536    -1.5265 H       
  37 H37           -1.4066     5.5246    -0.9200 H       
  38 H38           -1.6797     5.4172     0.8403 H       
  39 H39           -0.2939     8.1701     3.6171 H       
  40 H40           -2.4450     8.7491     4.6542 H       
  41 H41           -4.5388     8.4748     3.3986 H       
  42 H42           -2.3281     7.0336     0.0187 H       
@<TRIPOS>BOND
   1    1    2 1
   2    1   10 2
   3    1   13 1
   4    2    3 3
   5    3    4 1
   6    4    5 ar
   7    4    6 ar
   8    5    9 ar
   9    5   28 1
  10    6    7 ar
  11    6   29 1
  12    7    8 ar
  13    7   30 1
  14    8    9 ar
  15    8   31 1
  16    9   32 1
  17   10   11 1
  18   11   12 2
  19   11   14 1
  20   12   13 1
  21   12   17 1
  22   14   15 1
  23   14   33 1
  24   14   34 1
  25   15   16 1
  26   15   35 1
  27   15   36 1
  28   16   17 1
  29   16   18 am
  30   17   37 1
  31   17   38 1
  32   18   19 1
  33   18   20 2
  34   19   21 ar
  35   19   25 ar
  36   21   22 ar
  37   21   39 1
  38   22   23 ar
  39   22   40 1
  40   23   24 ar
  41   23   41 1
  42   24   25 ar
  43   24   26 1
  44   25   42 1
  45   26   27 3

#	End of record

