#	Name: ASD01328025
#	Creating user name:	WinNT
#	Creation time:	15. 06. 2019 19:16

#	Modifying user name:	WinNT
#	Modification time:	15. 06. 2019 19:16

#	Program:	/corina/corina34_cracker 3.40 0067  02.08.2006

@<TRIPOS>MOLECULE
ASD01328025
  52   53    0    0    0
SMALL
NO_CHARGES


@<TRIPOS>ATOM
   1 C1            -0.0190     1.4773    -0.8486 C.2     
   2 C2             0.0078    -0.0101    -0.6075 C.3     
   3 C3             1.4526    -0.5100    -0.6645 C.3     
   4 C4             1.4798    -2.0201    -0.4198 C.3     
   5 C5             2.9247    -2.5201    -0.4768 C.3     
   6 C6             2.9519    -4.0301    -0.2321 C.3     
   7 C7             4.3968    -4.5301    -0.2891 C.3     
   8 O8             1.0118     2.0760    -1.0457 O.2     
   9 O9            -1.1885     2.1360    -0.8497 O.3     
  10 O10            4.4222    -5.9404    -0.0605 O.3     
  11 C11            5.6395    -6.5471    -0.0782 C.ar    
  12 C12            6.3739    -6.6631     1.0937 C.ar    
  13 C13            7.6111    -7.2790     1.0759 C.ar    
  14 C14            8.1189    -7.7821    -0.1142 C.ar    
  15 C15            7.3838    -7.6664    -1.2862 C.ar    
  16 C16            6.1444    -7.0549    -1.2669 C.ar    
  17 N17            9.3734    -8.4062    -0.1326 N.am    
  18 C18            9.7707    -9.1515     0.9177 C.2     
  19 O19            9.0788    -9.2138     1.9152 O.2     
  20 N20           10.9351    -9.8279     0.8620 N.am    
  21 C21           11.3324   -10.5732     1.9123 C.2     
  22 C22           12.6085   -11.3143     1.8513 C.ar    
  23 C23           13.0237   -12.0883     2.9386 C.ar    
  24 C24           14.2182   -12.7783     2.8738 C.ar    
  25 C25           15.0023   -12.7040     1.7367 C.ar    
  26 C26           14.5966   -11.9394     0.6570 C.ar    
  27 C27           13.4030   -11.2498     0.7050 C.ar    
  28 O28           10.6407   -10.6354     2.9095 O.2     
  29 Cl29          12.0410   -12.1814     4.3666 Cl      
  30 Cl30           5.2222    -6.9159    -2.7311 Cl      
  31 Cl31           5.7389    -6.0339     2.5818 Cl      
  32 H32           -0.4132    -0.2267     0.3743 H       
  33 H33           -0.5813    -0.5131    -1.3744 H       
  34 H34            1.8736    -0.2935    -1.6464 H       
  35 H35            2.0417    -0.0070     0.1023 H       
  36 H36            1.0589    -2.2367     0.5621 H       
  37 H37            0.8908    -2.5231    -1.1866 H       
  38 H38            3.3457    -2.3035    -1.4586 H       
  39 H39            3.5138    -2.0170     0.2901 H       
  40 H40            2.5310    -4.2467     0.7498 H       
  41 H41            2.3628    -4.5331    -0.9989 H       
  42 H42            4.8177    -4.3135    -1.2709 H       
  43 H43            4.9858    -4.0270     0.4778 H       
  44 H44           -1.1553     3.0893    -1.0088 H       
  45 H45            8.1829    -7.3686     1.9878 H       
  46 H46            7.7787    -8.0573    -2.2123 H       
  47 H47            9.9558    -8.3019    -0.9012 H       
  48 H48           11.4872    -9.7782     0.0660 H       
  49 H49           14.5410   -13.3769     3.7128 H       
  50 H50           15.9359   -13.2450     1.6915 H       
  51 H51           15.2142   -11.8859    -0.2274 H       
  52 H52           13.0860   -10.6573    -0.1405 H       
@<TRIPOS>BOND
   1    1    2 1
   2    1    8 2
   3    1    9 1
   4    2    3 1
   5    2   32 1
   6    2   33 1
   7    3    4 1
   8    3   34 1
   9    3   35 1
  10    4    5 1
  11    4   36 1
  12    4   37 1
  13    5    6 1
  14    5   38 1
  15    5   39 1
  16    6    7 1
  17    6   40 1
  18    6   41 1
  19    7   10 1
  20    7   42 1
  21    7   43 1
  22    9   44 1
  23   10   11 1
  24   11   12 ar
  25   11   16 ar
  26   12   13 ar
  27   12   31 1
  28   13   14 ar
  29   13   45 1
  30   14   15 ar
  31   14   17 1
  32   15   16 ar
  33   15   46 1
  34   16   30 1
  35   17   18 am
  36   17   47 1
  37   18   19 2
  38   18   20 am
  39   20   21 am
  40   20   48 1
  41   21   22 1
  42   21   28 2
  43   22   23 ar
  44   22   27 ar
  45   23   24 ar
  46   23   29 1
  47   24   25 ar
  48   24   49 1
  49   25   26 ar
  50   25   50 1
  51   26   27 ar
  52   26   51 1
  53   27   52 1

#	End of record

