#	Name: ASD05250020
#	Creating user name:	WinNT
#	Creation time:	15. 06. 2019 20:58

#	Modifying user name:	WinNT
#	Modification time:	15. 06. 2019 20:58

#	Program:	/corina/corina34_cracker 3.40 0067  02.08.2006

@<TRIPOS>MOLECULE
ASD05250020
  46   49    0    0    0
SMALL
NO_CHARGES


@<TRIPOS>ATOM
   1 C1            -0.0184     1.5028     0.0103 C.3     
   2 C2             0.0021    -0.0041     0.0020 C.ar    
   3 N3             0.0219    -0.6609     1.1458 N.ar    
   4 C4             0.0398    -1.9792     1.1950 C.ar    
   5 C5             0.0386    -2.7312     0.0384 C.ar    
   6 C6             0.0180    -2.0760    -1.1965 C.ar    
   7 C7            -0.0059    -0.6784    -1.2020 C.ar    
   8 C8             0.0159    -2.8429    -2.4660 C.ar    
   9 C9            -0.0709    -4.2311    -2.4288 C.ar    
  10 C10           -0.0680    -4.9434    -3.6194 C.ar    
  11 C11            0.0220    -4.2346    -4.8066 C.ar    
  12 C12            0.0972    -2.8421    -4.7734 C.ar    
  13 N13            0.0913    -2.1945    -3.6236 N.ar    
  14 N14            0.1607    -2.1426    -5.9847 N.am    
  15 C15           -1.0006    -2.2032    -6.8816 C.3     
  16 C16           -0.9705    -3.4788    -7.7026 C.3     
  17 C17           -1.0914    -4.7288    -6.8418 C.3     
  18 O18            0.0519    -4.8886    -6.0040 O.3     
  19 C19            1.2569    -1.4328    -6.3179 C.2     
  20 O20            1.2940    -0.8316    -7.3740 O.2     
  21 N21            2.3120    -1.3896    -5.4805 N.am    
  22 C22            3.4425    -0.6577    -5.8242 C.2     
  23 S23            3.6301     0.2326    -7.2717 S.3     
  24 C24            5.2440     0.7293    -6.7695 C.2     
  25 C25            5.4909     0.1876    -5.5756 C.2     
  26 N26            4.5060    -0.5462    -5.0915 N.2     
  27 C27            6.7873     0.4002    -4.8371 C.3     
  28 H28            1.0042     1.8801     0.0026 H       
  29 H29           -0.5455     1.8639    -0.8728 H       
  30 H30           -0.5286     1.8543     0.9071 H       
  31 H31            0.0561    -2.4763     2.1537 H       
  32 H32            0.0538    -3.8100     0.0862 H       
  33 H33           -0.0227    -0.1343    -2.1348 H       
  34 H34           -0.1393    -4.7486    -1.4833 H       
  35 H35           -0.1339    -6.0214    -3.6208 H       
  36 H36           -1.9152    -2.1774    -6.2892 H       
  37 H37           -0.9841    -1.3432    -7.5511 H       
  38 H38           -1.7959    -3.4596    -8.4143 H       
  39 H39           -0.0319    -3.5205    -8.2551 H       
  40 H40           -1.9825    -4.6494    -6.2192 H       
  41 H41           -1.1850    -5.6009    -7.4890 H       
  42 H42            2.2824    -1.8693    -4.6379 H       
  43 H43            5.9163     1.3616    -7.3305 H       
  44 H44            6.7026     1.2810    -4.2006 H       
  45 H45            7.0024    -0.4734    -4.2218 H       
  46 H46            7.5944     0.5468    -5.5548 H       
@<TRIPOS>BOND
   1    1    2 1
   2    1   28 1
   3    1   29 1
   4    1   30 1
   5    2    3 ar
   6    2    7 ar
   7    3    4 ar
   8    4    5 ar
   9    4   31 1
  10    5    6 ar
  11    5   32 1
  12    6    7 ar
  13    6    8 1
  14    7   33 1
  15    8    9 ar
  16    8   13 ar
  17    9   10 ar
  18    9   34 1
  19   10   11 ar
  20   10   35 1
  21   11   12 ar
  22   11   18 1
  23   12   13 ar
  24   12   14 1
  25   14   15 1
  26   14   19 am
  27   15   16 1
  28   15   36 1
  29   15   37 1
  30   16   17 1
  31   16   38 1
  32   16   39 1
  33   17   18 1
  34   17   40 1
  35   17   41 1
  36   19   20 2
  37   19   21 am
  38   21   22 1
  39   21   42 1
  40   22   23 1
  41   22   26 2
  42   23   24 1
  43   24   25 2
  44   24   43 1
  45   25   26 1
  46   25   27 1
  47   27   44 1
  48   27   45 1
  49   27   46 1

#	End of record

