#	Name: ASD01900984
#	Creating user name:	WinNT
#	Creation time:	15. 06. 2019 19:52

#	Modifying user name:	WinNT
#	Modification time:	15. 06. 2019 19:52

#	Program:	/corina/corina34_cracker 3.40 0067  02.08.2006

@<TRIPOS>MOLECULE
ASD01900984
  56   60    0    0    0
SMALL
NO_CHARGES


@<TRIPOS>ATOM
   1 C1             0.0892     1.4916    -1.2678 C.ar    
   2 C2             0.0333     0.1140    -1.2592 C.ar    
   3 C3             1.0235    -0.6267    -0.6330 C.ar    
   4 C4             2.0776     0.0051    -0.0020 C.ar    
   5 C5             2.1468     1.3885     0.0014 C.ar    
   6 C6             1.1517     2.1436    -0.6423 C.ar    
   7 N7             3.1841     2.0599     0.6433 N.pl3   
   8 C8             3.5336     3.4036     0.1767 C.3     
   9 N9             2.3686     4.2094    -0.1813 N.am    
  10 C10            1.2462     3.6140    -0.6385 C.2     
  11 C11            2.4160     5.6028    -0.0497 C.ar    
  12 C12            1.9710     6.2057     1.1194 C.ar    
  13 C13            2.0180     7.5797     1.2485 C.ar    
  14 C14            2.5096     8.3578     0.2106 C.ar    
  15 C15            2.9544     7.7562    -0.9577 C.ar    
  16 C16            2.9133     6.3820    -1.0860 C.ar    
  17 O17            0.3185     4.2875    -1.0447 O.2     
  18 O18            2.5552     9.7107     0.3382 O.3     
  19 C19            4.5249     4.1302     1.0962 C.3     
  20 C20            3.0733    10.4498    -0.7697 C.3     
  21 N21            5.1946     4.5736    -0.1472 N.3     
  22 C22            4.6420     3.4145    -0.8844 C.3     
  23 C23            6.6548     4.4715    -0.0239 C.3     
  24 C24            7.2896     4.6922    -1.3727 C.ar    
  25 C25            7.6439     5.9701    -1.7682 C.ar    
  26 C26            8.2275     6.1817    -3.0045 C.ar    
  27 C27            8.4601     5.1183    -3.8521 C.ar    
  28 C28            8.1052     3.8263    -3.4596 C.ar    
  29 C29            7.5213     3.6193    -2.2080 C.ar    
  30 F30            2.2881    10.2052    -1.9015 F       
  31 F31            3.0483    11.8163    -0.4712 F       
  32 F32            4.3906    10.0513    -1.0210 F       
  33 C33            0.9493    -2.1318    -0.6401 C.3     
  34 F34           -0.1962    -2.5390    -1.3323 F       
  35 F35            2.0848    -2.6517    -1.2707 F       
  36 F36            0.8906    -2.6020     0.6762 F       
  37 C37            8.3437     2.7178    -4.3342 C.1     
  38 N38            8.5329     1.8384    -5.0280 N.1     
  39 H39           -0.6837     2.0629    -1.7603 H       
  40 H40           -0.7886    -0.3919    -1.7439 H       
  41 H41            2.8445    -0.5774     0.4869 H       
  42 H42            3.6625     1.6487     1.3802 H       
  43 H43            1.5879     5.6001     1.9274 H       
  44 H44            1.6716     8.0487     2.1576 H       
  45 H45            3.3370     8.3627    -1.7653 H       
  46 H46            3.2637     5.9135    -1.9938 H       
  47 H47            4.0784     4.9430     1.6690 H       
  48 H48            5.1303     3.4602     1.7067 H       
  49 H49            5.2821     2.5326    -0.8604 H       
  50 H50            4.2889     3.6585    -1.8863 H       
  51 H51            7.0142     5.2270     0.6748 H       
  52 H52            6.9199     3.4805     0.3446 H       
  53 H53            7.4637     6.8062    -1.1087 H       
  54 H54            8.5012     7.1817    -3.3070 H       
  55 H55            8.9155     5.2849    -4.8171 H       
  56 H56            7.2480     2.6220    -1.8965 H       
@<TRIPOS>BOND
   1    1    2 ar
   2    1    6 ar
   3    1   39 1
   4    2    3 ar
   5    2   40 1
   6    3    4 ar
   7    3   33 1
   8    4    5 ar
   9    4   41 1
  10    5    7 1
  11    5    6 ar
  12    6   10 1
  13    7    8 1
  14    7   42 1
  15    8    9 1
  16    8   19 1
  17    8   22 1
  18    9   10 am
  19    9   11 1
  20   10   17 2
  21   11   12 ar
  22   11   16 ar
  23   12   13 ar
  24   12   43 1
  25   13   14 ar
  26   13   44 1
  27   14   15 ar
  28   14   18 1
  29   15   16 ar
  30   15   45 1
  31   16   46 1
  32   18   20 1
  33   19   21 1
  34   19   47 1
  35   19   48 1
  36   20   30 1
  37   20   31 1
  38   20   32 1
  39   21   23 1
  40   21   22 1
  41   22   49 1
  42   22   50 1
  43   23   24 1
  44   23   51 1
  45   23   52 1
  46   24   25 ar
  47   24   29 ar
  48   25   26 ar
  49   25   53 1
  50   26   27 ar
  51   26   54 1
  52   27   28 ar
  53   27   55 1
  54   28   29 ar
  55   28   37 1
  56   29   56 1
  57   33   34 1
  58   33   35 1
  59   33   36 1
  60   37   38 3

#	End of record

