#	Name: ASD01150741
#	Creating user name:	WinNT
#	Creation time:	15. 06. 2019 19:04

#	Modifying user name:	WinNT
#	Modification time:	15. 06. 2019 19:04

#	Program:	/corina/corina34_cracker 3.40 0067  02.08.2006

@<TRIPOS>MOLECULE
ASD01150741
  46   49    0    0    0
SMALL
NO_CHARGES


@<TRIPOS>ATOM
   1 C1            -0.0536     1.1747     0.2634 C.2     
   2 O2             0.6310     0.9493    -0.7160 O.2     
   3 C3             0.3942     0.7237     1.5977 C.ar    
   4 C4             1.5410    -0.0635     1.7238 C.ar    
   5 C5             1.9535    -0.4805     2.9721 C.ar    
   6 C6             1.2339    -0.1207     4.0981 C.ar    
   7 C7             0.0965     0.6587     3.9804 C.ar    
   8 C8            -0.3241     1.0875     2.7388 C.ar    
   9 N9            -2.4611     3.9794     0.0019 N.ar    
  10 C10           -1.3462     3.3078     0.1270 C.ar    
  11 C11           -1.3265     1.9027     0.1208 C.ar    
  12 C12           -2.5344     1.2002    -0.0234 C.ar    
  13 C13           -3.7248     1.9571    -0.1568 C.ar    
  14 C14           -4.9688     1.3303    -0.3053 C.ar    
  15 C15           -6.1050     2.0991    -0.4327 C.ar    
  16 C16           -6.0234     3.4938    -0.4147 C.ar    
  17 C17           -4.8254     4.1238    -0.2720 C.ar    
  18 C18           -3.6467     3.3714    -0.1392 C.ar    
  19 O19           -7.3143     1.4962    -0.5775 O.3     
  20 C20           -8.4535     2.3495    -0.7047 C.3     
  21 F21           -8.3023     3.1643    -1.8319 F       
  22 F22           -9.6068     1.5700    -0.8441 F       
  23 F23           -8.5666     3.1497     0.4373 F       
  24 C24           -0.0494     4.0598     0.2812 C.3     
  25 C25           -2.5626    -0.2774    -0.0361 C.ar    
  26 C26           -3.2086    -0.9753     0.9865 C.ar    
  27 C27           -3.2314    -2.3553     0.9680 C.ar    
  28 C28           -2.6153    -3.0471    -0.0618 C.ar    
  29 C29           -1.9738    -2.3609    -1.0774 C.ar    
  30 C30           -1.9483    -0.9816    -1.0737 C.ar    
  31 Cl31          -4.0332    -3.2256     2.2382 Cl      
  32 H32            2.1032    -0.3453     0.8458 H       
  33 H33            2.8398    -1.0896     3.0710 H       
  34 H34            1.5614    -0.4500     5.0732 H       
  35 H35           -0.4605     0.9356     4.8633 H       
  36 H36           -1.2092     1.6998     2.6488 H       
  37 H37           -5.0367     0.2525    -0.3202 H       
  38 H38           -6.9244     4.0806    -0.5158 H       
  39 H39           -4.7811     5.2029    -0.2606 H       
  40 H40            0.1534     4.2209     1.3400 H       
  41 H41            0.7614     3.4800    -0.1599 H       
  42 H42           -0.1250     5.0222    -0.2248 H       
  43 H43           -3.6889    -0.4366     1.7900 H       
  44 H44           -2.6355    -4.1268    -0.0717 H       
  45 H45           -1.4951    -2.9064    -1.8772 H       
  46 H46           -1.4506    -0.4475    -1.8696 H       
@<TRIPOS>BOND
   1    1    2 2
   2    1    3 1
   3    1   11 1
   4    3    4 ar
   5    3    8 ar
   6    4    5 ar
   7    4   32 1
   8    5    6 ar
   9    5   33 1
  10    6    7 ar
  11    6   34 1
  12    7    8 ar
  13    7   35 1
  14    8   36 1
  15    9   10 ar
  16    9   18 ar
  17   10   11 ar
  18   10   24 1
  19   11   12 ar
  20   12   13 ar
  21   12   25 1
  22   13   14 ar
  23   13   18 ar
  24   14   15 ar
  25   14   37 1
  26   15   16 ar
  27   15   19 1
  28   16   17 ar
  29   16   38 1
  30   17   18 ar
  31   17   39 1
  32   19   20 1
  33   20   21 1
  34   20   22 1
  35   20   23 1
  36   24   40 1
  37   24   41 1
  38   24   42 1
  39   25   26 ar
  40   25   30 ar
  41   26   27 ar
  42   26   43 1
  43   27   28 ar
  44   27   31 1
  45   28   29 ar
  46   28   44 1
  47   29   30 ar
  48   29   45 1
  49   30   46 1

#	End of record

