#	Name: ASD01900018
#	Creating user name:	WinNT
#	Creation time:	15. 06. 2019 19:51

#	Modifying user name:	WinNT
#	Modification time:	15. 06. 2019 19:51

#	Program:	/corina/corina34_cracker 3.40 0067  02.08.2006

@<TRIPOS>MOLECULE
ASD01900018
  41   42    0    0    0
SMALL
NO_CHARGES


@<TRIPOS>ATOM
   1 C1             0.4723     1.9064    -0.1586 C.3     
   2 C2             0.2784     0.3964    -0.0059 C.3     
   3 C3             0.8230    -0.3157    -1.2457 C.3     
   4 C4             2.3135    -0.0058    -1.3984 C.3     
   5 C5             2.5074     1.5042    -1.5511 C.3     
   6 C6             1.9628     2.2163    -0.3112 C.3     
   7 C7             3.9755     1.8094    -1.7015 C.2     
   8 C8             3.0541    -0.4864    -0.1772 C.2     
   9 O9             4.3852     3.0789    -1.8505 O.3     
  10 N10            3.0256    -1.7915     0.1581 N.am    
  11 O11            4.7837     0.9114    -1.6879 O.2     
  12 O12            3.6759     0.3012     0.5040 O.2     
  13 C13            3.7910    -2.2544     1.2341 C.ar    
  14 C14            4.3749    -3.5133     1.1821 C.ar    
  15 C15            5.1302    -3.9670     2.2456 C.ar    
  16 C16            5.3049    -3.1694     3.3616 C.ar    
  17 C17            4.7248    -1.9154     3.4165 C.ar    
  18 C18            3.9731    -1.4535     2.3539 C.ar    
  19 H19            1.9717     1.8518    -2.4344 H       
  20 H20            2.7014    -0.5131    -2.2817 H       
  21 C21            4.9179    -1.0494     4.6347 C.3     
  22 F22            6.0590    -0.2574     4.4678 F       
  23 F23            3.7994    -0.2261     4.8035 F       
  24 F24            5.0744    -1.8608     5.7635 F       
  25 C25            5.7642    -5.3331     2.1900 C.3     
  26 F26            5.4477    -5.9449     0.9724 F       
  27 F27            7.1531    -5.2075     2.3017 F       
  28 F28            5.2804    -6.1150     3.2444 F       
  29 H29           -0.0634     2.2540    -1.0419 H       
  30 H30            0.0844     2.4137     0.7247 H       
  31 H31            0.8141     0.0488     0.8774 H       
  32 H32           -0.7835     0.1756     0.1029 H       
  33 H33            0.6848    -1.3914    -1.1370 H       
  34 H34            0.2872     0.0320    -2.1291 H       
  35 H35            2.1010     3.2920    -0.4200 H       
  36 H36            2.4986     1.8686     0.5721 H       
  37 H37            5.3366     3.2252    -1.9433 H       
  38 H38            2.4744    -2.4100    -0.3466 H       
  39 H39            4.2382    -4.1370     0.3110 H       
  40 H40            5.8954    -3.5268     4.1923 H       
  41 H41            3.5203    -0.4740     2.3973 H       
@<TRIPOS>BOND
   1    1    2 1
   2    1    6 1
   3    1   29 1
   4    1   30 1
   5    2    3 1
   6    2   31 1
   7    2   32 1
   8    3    4 1
   9    3   33 1
  10    3   34 1
  11    4    5 1
  12    4    8 1
  13    4   20 1
  14    5    6 1
  15    5    7 1
  16    5   19 1
  17    6   35 1
  18    6   36 1
  19    7    9 1
  20    7   11 2
  21    8   10 am
  22    8   12 2
  23    9   37 1
  24   10   13 1
  25   10   38 1
  26   13   14 ar
  27   13   18 ar
  28   14   15 ar
  29   14   39 1
  30   15   16 ar
  31   15   25 1
  32   16   17 ar
  33   16   40 1
  34   17   18 ar
  35   17   21 1
  36   18   41 1
  37   21   22 1
  38   21   23 1
  39   21   24 1
  40   25   26 1
  41   25   27 1
  42   25   28 1

#	End of record

