#	Name: ASD01812702
#	Creating user name:	WinNT
#	Creation time:	15. 06. 2019 19:29

#	Modifying user name:	WinNT
#	Modification time:	15. 06. 2019 19:29

#	Program:	/corina/corina34_cracker 3.40 0067  02.08.2006

@<TRIPOS>MOLECULE
ASD01812702
  60   64    0    0    0
SMALL
NO_CHARGES


@<TRIPOS>ATOM
   1 C1            -0.0167     1.3764     0.0213 C.ar    
   2 C2             0.0020    -0.0040     0.0150 C.ar    
   3 C3             1.2086    -0.6873    -0.0090 C.ar    
   4 C4             2.3938     0.0074    -0.0271 C.ar    
   5 C5             2.3938     1.4056    -0.0214 C.ar    
   6 C6             1.1719     2.0915     0.0033 C.ar    
   7 C7             3.8408    -0.4178    -0.0547 C.3     
   8 N8             4.6308     0.8188    -0.0639 N.am    
   9 C9             3.7911     1.8682    -0.0446 C.2     
  10 C10            6.0935     0.8966    -0.0894 C.3     
  11 C11            6.5700     0.9288    -1.5187 C.ar    
  12 C12            6.7242     2.1412    -2.1665 C.ar    
  13 C13            7.1603     2.1765    -3.4754 C.ar    
  14 C14            7.4454     0.9879    -4.1445 C.ar    
  15 C15            7.2882    -0.2307    -3.4870 C.ar    
  16 C16            6.8569    -0.2539    -2.1761 C.ar    
  17 O17            1.1515     3.4479     0.0091 O.3     
  18 C18           -0.1276     4.0779    -0.0868 C.3     
  19 C19            0.0375     5.4800    -0.6765 C.3     
  20 C20           -1.3320     6.1545    -0.7791 C.3     
  21 C21           -1.9555     6.2575     0.6143 C.3     
  22 C22           -2.1206     4.8553     1.2040 C.3     
  23 C23           -0.7511     4.1808     1.3066 C.3     
  24 O24            0.6198     5.3839    -1.9779 O.3     
  25 O25            4.1367     3.0340    -0.0457 O.2     
  26 C26            7.9141     1.0195    -5.5518 C.ar    
  27 C27            8.0770     2.2325    -6.2272 C.ar    
  28 C28            8.5149     2.2166    -7.5353 C.ar    
  29 N29            8.7784     1.0779    -8.1475 N.ar    
  30 C30            8.6378    -0.0878    -7.5464 C.ar    
  31 C31            8.2102    -0.1623    -6.2365 C.ar    
  32 C32            8.9546    -1.3549    -8.2982 C.3     
  33 H33           -0.9603     1.9016     0.0359 H       
  34 H34           -0.9272    -0.5543     0.0291 H       
  35 H35            1.2166    -1.7672    -0.0132 H       
  36 H36            4.0755    -1.0059     0.8325 H       
  37 H37            4.0435    -0.9987    -0.9545 H       
  38 H38            6.4181     1.8027     0.4223 H       
  39 H39            6.5125     0.0252     0.4138 H       
  40 H40            6.5026     3.0618    -1.6471 H       
  41 H41            7.2800     3.1237    -3.9804 H       
  42 H42            7.5077    -1.1549    -4.0008 H       
  43 H43            6.7393    -1.1975    -1.6640 H       
  44 H44           -0.7765     3.4862    -0.7324 H       
  45 H45            0.6864     6.0716    -0.0308 H       
  46 H46           -1.2144     7.1534    -1.1992 H       
  47 H47           -1.9809     5.5629    -1.4248 H       
  48 H48           -1.3065     6.8491     1.2600 H       
  49 H49           -2.9311     6.7380     0.5412 H       
  50 H50           -2.5648     4.9287     2.1967 H       
  51 H51           -2.7695     4.2637     0.5583 H       
  52 H52           -0.8687     3.1819     1.7267 H       
  53 H53           -0.1021     4.7724     1.9523 H       
  54 H54            0.7539     6.2371    -2.4128 H       
  55 H55            7.8629     3.1682    -5.7323 H       
  56 H56            8.6435     3.1487    -8.0655 H       
  57 H57            8.1020    -1.1198    -5.7489 H       
  58 H58           10.0045    -1.6100    -8.1542 H       
  59 H59            8.3291    -2.1654    -7.9241 H       
  60 H60            8.7593    -1.2058    -9.3602 H       
@<TRIPOS>BOND
   1    1    2 ar
   2    1    6 ar
   3    1   33 1
   4    2    3 ar
   5    2   34 1
   6    3    4 ar
   7    3   35 1
   8    4    7 1
   9    4    5 ar
  10    5    6 ar
  11    5    9 1
  12    6   17 1
  13    7    8 1
  14    7   36 1
  15    7   37 1
  16    8    9 am
  17    8   10 1
  18    9   25 2
  19   10   11 1
  20   10   38 1
  21   10   39 1
  22   11   12 ar
  23   11   16 ar
  24   12   13 ar
  25   12   40 1
  26   13   14 ar
  27   13   41 1
  28   14   15 ar
  29   14   26 1
  30   15   16 ar
  31   15   42 1
  32   16   43 1
  33   17   18 1
  34   18   19 1
  35   18   23 1
  36   18   44 1
  37   19   20 1
  38   19   24 1
  39   19   45 1
  40   20   21 1
  41   20   46 1
  42   20   47 1
  43   21   22 1
  44   21   48 1
  45   21   49 1
  46   22   23 1
  47   22   50 1
  48   22   51 1
  49   23   52 1
  50   23   53 1
  51   24   54 1
  52   26   27 ar
  53   26   31 ar
  54   27   28 ar
  55   27   55 1
  56   28   29 ar
  57   28   56 1
  58   29   30 ar
  59   30   31 ar
  60   30   32 1
  61   31   57 1
  62   32   58 1
  63   32   59 1
  64   32   60 1

#	End of record

