#	Name: ASD01148661
#	Creating user name:	WinNT
#	Creation time:	15. 06. 2019 19:02

#	Modifying user name:	WinNT
#	Modification time:	15. 06. 2019 19:02

#	Program:	/corina/corina34_cracker 3.40 0067  02.08.2006

@<TRIPOS>MOLECULE
ASD01148661
  52   55    0    0    0
SMALL
NO_CHARGES


@<TRIPOS>ATOM
   1 N1             0.5561     1.6098     0.3870 N.2     
   2 N2             1.2691     0.4719     0.7847 N.pl3   
   3 C3             0.8635    -0.5709    -0.0061 C.2     
   4 C4            -0.0860    -0.0729    -0.8756 C.2     
   5 C5            -0.2457     1.2834    -0.5966 C.2     
   6 C6             1.3482    -1.9576     0.0587 C.2     
   7 O7             2.2733    -2.2448     0.7946 O.2     
   8 N8             0.7676    -2.9105    -0.6972 N.am    
   9 C9             1.2773    -4.2060    -0.6968 C.ar    
  10 C10            0.4381    -5.2935    -0.4105 C.ar    
  11 C11            0.9613    -6.5884    -0.4137 C.ar    
  12 C12            2.2960    -6.7902    -0.6974 C.ar    
  13 C13            3.1219    -5.7133    -0.9797 C.ar    
  14 C14            2.6170    -4.4285    -0.9853 C.ar    
  15 C15            3.5223    -3.2654    -1.2997 C.3     
  16 C16           -0.9881    -5.0704    -0.1075 C.2     
  17 N17           -1.7671    -6.1042     0.2679 N.am    
  18 O18           -1.4611    -3.9538    -0.1963 O.2     
  19 C19           -3.1836    -5.8826     0.5688 C.3     
  20 C20           -3.9944    -5.9330    -0.7277 C.3     
  21 C21           -3.6788    -6.9717     1.5226 C.3     
  22 C22           -5.1440    -6.9152     1.9596 C.3     
  23 C23           -4.6806    -7.9895     0.9736 C.3     
  24 Cl24           2.9447    -8.4005    -0.7003 Cl      
  25 C25            2.2229     0.4113     1.8037 C.ar    
  26 C26            2.6494     1.5835     2.4190 C.ar    
  27 C27            3.5952     1.5084     3.4283 C.ar    
  28 C28            4.0821     0.2594     3.7871 C.ar    
  29 C29            3.6130    -0.8630     3.1325 C.ar    
  30 N30            2.7082    -0.7612     2.1784 N.ar    
  31 Cl31           2.0057     3.1194     1.9286 Cl      
  32 Br32          -1.4258     2.4595    -1.4910 Br      
  33 H33           -0.6104    -0.6332    -1.6355 H       
  34 H34           -0.0054    -2.6936    -1.2415 H       
  35 H35            0.3218    -7.4305    -0.1939 H       
  36 H36            4.1658    -5.8807    -1.2004 H       
  37 H37            4.0685    -2.9770    -0.4016 H       
  38 H38            4.2290    -3.5550    -2.0774 H       
  39 H39            2.9242    -2.4231    -1.6475 H       
  40 H40           -1.3898    -6.9950     0.3388 H       
  41 H41           -3.3071    -4.9060     1.0369 H       
  42 H42           -3.6416    -5.1571    -1.4072 H       
  43 H43           -3.8709    -6.9096    -1.1958 H       
  44 H44           -5.0483    -5.7681    -0.5038 H       
  45 H45           -2.9495    -7.3255     2.2514 H       
  46 H46           -5.3787    -7.2323     2.9757 H       
  47 H47           -5.7551    -6.1022     1.5676 H       
  48 H48           -4.9869    -7.8832    -0.0671 H       
  49 H49           -4.6104    -9.0133     1.3411 H       
  50 H50            3.9459     2.4014     3.9243 H       
  51 H51            4.8205     0.1658     4.5698 H       
  52 H52            3.9892    -1.8370     3.4084 H       
@<TRIPOS>BOND
   1    1    2 1
   2    1    5 2
   3    2    3 1
   4    2   25 1
   5    3    4 2
   6    3    6 1
   7    4    5 1
   8    4   33 1
   9    5   32 1
  10    6    7 2
  11    6    8 am
  12    8    9 1
  13    8   34 1
  14    9   10 ar
  15    9   14 ar
  16   10   11 ar
  17   10   16 1
  18   11   12 ar
  19   11   35 1
  20   12   13 ar
  21   12   24 1
  22   13   14 ar
  23   13   36 1
  24   14   15 1
  25   15   37 1
  26   15   38 1
  27   15   39 1
  28   16   17 am
  29   16   18 2
  30   17   19 1
  31   17   40 1
  32   19   20 1
  33   19   21 1
  34   19   41 1
  35   20   42 1
  36   20   43 1
  37   20   44 1
  38   21   22 1
  39   21   23 1
  40   21   45 1
  41   22   23 1
  42   22   46 1
  43   22   47 1
  44   23   48 1
  45   23   49 1
  46   25   26 ar
  47   25   30 ar
  48   26   27 ar
  49   26   31 1
  50   27   28 ar
  51   27   50 1
  52   28   29 ar
  53   28   51 1
  54   29   30 ar
  55   29   52 1

#	End of record

