#	Name: ASD01816855
#	Creating user name:	WinNT
#	Creation time:	15. 06. 2019 19:36

#	Modifying user name:	WinNT
#	Modification time:	15. 06. 2019 19:36

#	Program:	/corina/corina34_cracker 3.40 0067  02.08.2006

@<TRIPOS>MOLECULE
ASD01816855
  48   51    0    0    0
SMALL
NO_CHARGES


@<TRIPOS>ATOM
   1 C1            -0.0168     1.3889     0.0097 C.ar    
   2 C2             0.0021    -0.0041     0.0020 C.ar    
   3 C3             1.1794    -0.6886    -0.0124 C.ar    
   4 C4             2.3934     0.0157    -0.0201 C.ar    
   5 C5             2.3803     1.4351    -0.0129 C.ar    
   6 C6             1.1408     2.1077     0.0025 C.ar    
   7 C7             3.6293    -0.6585    -0.0345 C.ar    
   8 C8             4.7719     0.0878    -0.0410 C.ar    
   9 C9             4.6903     1.4886    -0.0333 C.ar    
  10 N10            3.5280     2.1114    -0.0194 N.ar    
  11 C11            5.9395     2.2867    -0.0401 C.2     
  12 N12            5.8790     3.6331    -0.0329 N.am    
  13 O13            7.0180     1.7271    -0.0521 O.2     
  14 C14            7.1135     4.4219    -0.0395 C.3     
  15 C15            6.8456     5.7970     0.5798 C.3     
  16 C16            3.6889    -2.1643    -0.0420 C.3     
  17 C17            3.5722    -2.6646    -1.4587 C.ar    
  18 C18            4.7034    -2.8493    -2.2307 C.ar    
  19 C19            2.3287    -2.9507    -2.0017 C.ar    
  20 C20            2.2688    -3.4089    -3.3085 C.ar    
  21 C21            3.4434    -3.5645    -4.0227 C.ar    
  22 N22            4.6099    -3.2871    -3.4711 N.ar    
  23 C23            8.1221     6.6397     0.4965 C.3     
  24 C24            8.5654     6.7373    -0.9655 C.3     
  25 O25            8.7674     5.4232    -1.4894 O.3     
  26 C26            7.5957     4.6052    -1.4809 C.3     
  27 Cl27           3.3829    -4.1376    -5.6603 Cl      
  28 F28            1.1014     3.4581     0.0097 F       
  29 O29            6.4654     5.6392     1.9482 O.3     
  30 H30           -0.9642     1.9075     0.0169 H       
  31 H31           -0.9303    -0.5490     0.0080 H       
  32 H32            1.1789    -1.7686    -0.0175 H       
  33 H33            5.7362    -0.3984    -0.0517 H       
  34 H34            5.0180     4.0798    -0.0233 H       
  35 H35            7.8792     3.9048     0.5388 H       
  36 H36            6.0445     6.2937     0.0324 H       
  37 H37            4.6379    -2.4925     0.3822 H       
  38 H38            2.8676    -2.5634     0.5531 H       
  39 H39            5.6755    -2.6321    -1.8133 H       
  40 H40            1.4282    -2.8199    -1.4200 H       
  41 H41            1.3173    -3.6419    -3.7633 H       
  42 H42            7.9249     7.6389     0.8849 H       
  43 H43            8.9090     6.1679     1.0850 H       
  44 H44            7.7952     7.2455    -1.5457 H       
  45 H45            9.4969     7.3000    -1.0262 H       
  46 H46            7.8287     3.6319    -1.9128 H       
  47 H47            6.8128     5.0854    -2.0679 H       
  48 H48            6.2803     6.4719     2.4035 H       
@<TRIPOS>BOND
   1    1    2 ar
   2    1    6 ar
   3    1   30 1
   4    2    3 ar
   5    2   31 1
   6    3    4 ar
   7    3   32 1
   8    4    5 ar
   9    4    7 ar
  10    5    6 ar
  11    5   10 ar
  12    6   28 1
  13    7    8 ar
  14    7   16 1
  15    8    9 ar
  16    8   33 1
  17    9   10 ar
  18    9   11 1
  19   11   12 am
  20   11   13 2
  21   12   14 1
  22   12   34 1
  23   14   15 1
  24   14   26 1
  25   14   35 1
  26   15   23 1
  27   15   29 1
  28   15   36 1
  29   16   17 1
  30   16   37 1
  31   16   38 1
  32   17   18 ar
  33   17   19 ar
  34   18   22 ar
  35   18   39 1
  36   19   20 ar
  37   19   40 1
  38   20   21 ar
  39   20   41 1
  40   21   22 ar
  41   21   27 1
  42   23   24 1
  43   23   42 1
  44   23   43 1
  45   24   25 1
  46   24   44 1
  47   24   45 1
  48   25   26 1
  49   26   46 1
  50   26   47 1
  51   29   48 1

#	End of record

