#	Name: ASD01814635
#	Creating user name:	WinNT
#	Creation time:	15. 06. 2019 19:32

#	Modifying user name:	WinNT
#	Modification time:	15. 06. 2019 19:32

#	Program:	/corina/corina34_cracker 3.40 0067  02.08.2006

@<TRIPOS>MOLECULE
ASD01814635
  43   46    0    0    0
SMALL
NO_CHARGES


@<TRIPOS>ATOM
   1 C1            -0.0169     1.3972     0.0097 C.2     
   2 C2             0.0021    -0.0041     0.0020 C.2     
   3 C3             1.1986    -0.6593    -0.0129 C.2     
   4 C4             2.3918     0.0821    -0.0204 C.2     
   5 N5             2.3437     1.4497    -0.0122 N.am    
   6 C6             1.1421     2.0937     0.0024 C.2     
   7 C7             3.6227    -0.5889    -0.0356 C.2     
   8 C8             4.7877     0.1218    -0.0425 C.2     
   9 C9             4.7345     1.5280    -0.0346 C.2     
  10 C10            3.4812     2.1736    -0.0189 C.2     
  11 O11            3.4258     3.3917    -0.0123 O.2     
  12 C12            5.9703     2.3140    -0.0413 C.2     
  13 O13            5.9124     3.6618    -0.0337 O.3     
  14 O14            7.0487     1.7516    -0.0537 O.2     
  15 C15            3.6593    -2.0954    -0.0439 C.3     
  16 N16            3.7787    -2.5747    -1.4274 N.3     
  17 C17            4.0556    -4.0209    -1.4629 C.3     
  18 C18            4.0592    -4.4660    -2.9038 C.2     
  19 C19            3.5316    -3.7280    -3.9166 C.2     
  20 C20            2.8803    -2.3835    -3.7054 C.3     
  21 C21            2.5799    -2.2369    -2.2070 C.3     
  22 C22            4.5684    -5.6400    -3.4489 C.2     
  23 N23            4.3583    -5.6121    -4.7431 N.2     
  24 N24            3.7048    -4.4101    -5.0574 N.pl3   
  25 C25            5.2437    -6.7502    -2.6856 C.3     
  26 H26           -0.9605     1.9226     0.0170 H       
  27 H27           -0.9233    -0.5609     0.0082 H       
  28 H28            1.2282    -1.7389    -0.0187 H       
  29 H29            1.1156     3.1733     0.0087 H       
  30 H30            5.7393    -0.3889    -0.0536 H       
  31 H31            6.7544     4.1373    -0.0385 H       
  32 H32            4.5153    -2.4412     0.5356 H       
  33 H33            2.7412    -2.4836     0.3971 H       
  34 H34            5.0289    -4.2199    -1.0144 H       
  35 H35            3.2810    -4.5570    -0.9146 H       
  36 H36            3.5571    -1.5913    -4.0254 H       
  37 H37            1.9524    -2.3295    -4.2748 H       
  38 H38            1.7672    -2.9092    -1.9324 H       
  39 H39            2.2869    -1.2087    -1.9947 H       
  40 H40            3.4284    -4.1241    -5.9421 H       
  41 H41            4.4971    -7.4763    -2.3638 H       
  42 H42            5.9744    -7.2410    -3.3285 H       
  43 H43            5.7480    -6.3363    -1.8124 H       
@<TRIPOS>BOND
   1    1    2 1
   2    1    6 2
   3    1   26 1
   4    2    3 2
   5    2   27 1
   6    3    4 1
   7    3   28 1
   8    4    5 1
   9    4    7 2
  10    5    6 1
  11    5   10 am
  12    6   29 1
  13    7    8 1
  14    7   15 1
  15    8    9 2
  16    8   30 1
  17    9   10 1
  18    9   12 1
  19   10   11 2
  20   12   13 1
  21   12   14 2
  22   13   31 1
  23   15   16 1
  24   15   32 1
  25   15   33 1
  26   16   17 1
  27   16   21 1
  28   17   18 1
  29   17   34 1
  30   17   35 1
  31   18   19 2
  32   18   22 1
  33   19   20 1
  34   19   24 1
  35   20   21 1
  36   20   36 1
  37   20   37 1
  38   21   38 1
  39   21   39 1
  40   22   23 2
  41   22   25 1
  42   23   24 1
  43   24   40 1
  44   25   41 1
  45   25   42 1
  46   25   43 1

#	End of record

