#	Name: ASD03430278
#	Creating user name:	WinNT
#	Creation time:	15. 06. 2019 20:40

#	Modifying user name:	WinNT
#	Modification time:	15. 06. 2019 20:40

#	Program:	/corina/corina34_cracker 3.40 0067  02.08.2006

@<TRIPOS>MOLECULE
ASD03430278
  49   54    0    0    0
SMALL
NO_CHARGES


@<TRIPOS>ATOM
   1 C1            -0.0166     1.3731     0.0096 C.ar    
   2 C2             0.0021    -0.0041     0.0020 C.ar    
   3 C3             1.2042    -0.6801    -0.0037 C.ar    
   4 C4             2.4064     0.0226     0.0069 C.ar    
   5 C5             2.3789     1.4121     0.0039 C.ar    
   6 C6             1.1699     2.0972     0.0022 C.ar    
   7 O7             3.4725    -0.8269     0.0325 O.3     
   8 C8             1.5601    -2.1417    -0.0330 C.3     
   9 C9             3.0504    -2.1336    -0.4017 C.3     
  10 C10            0.4369    -3.8650     1.0109 C.ar    
  11 C11            1.3140    -2.8180     1.2832 C.ar    
  12 C12            0.7430    -2.9080    -1.0329 C.2     
  13 N13            0.1236    -3.8915    -0.3499 N.am    
  14 O14            0.6571    -2.6857    -2.2222 O.2     
  15 C15            1.7632    -2.5964     2.5654 C.ar    
  16 C16            1.3449    -3.4168     3.5984 C.ar    
  17 C17            0.4739    -4.4591     3.3397 C.ar    
  18 C18            0.0205    -4.6852     2.0566 C.ar    
  19 C19           -0.7732    -4.8739    -0.9637 C.3     
  20 C20           -2.2076    -4.3423    -0.9361 C.3     
  21 C21           -2.3379    -3.1082    -1.8480 C.3     
  22 N22           -3.3048    -3.4551    -2.9120 N.3     
  23 C23           -4.1719    -4.5171    -2.3406 C.3     
  24 C24           -3.1789    -5.3879    -1.5305 C.3     
  25 C25           -1.1514     2.3780     0.0353 C.3     
  26 C26           -0.4169     3.6802     0.4334 C.3     
  27 O27            0.9269     3.4375    -0.0164 O.3     
  28 H28           -0.9264    -0.5557     0.0009 H       
  29 H29            3.3066     1.9651     0.0036 H       
  30 H30            3.1836    -2.2456    -1.4777 H       
  31 H31            3.5871    -2.9132     0.1390 H       
  32 H32            2.4432    -1.7815     2.7654 H       
  33 H33            1.6983    -3.2437     4.6042 H       
  34 H34            0.1473    -5.0993     4.1458 H       
  35 H35           -0.6595    -5.5014     1.8622 H       
  36 H36           -0.4699    -5.0476    -1.9962 H       
  37 H37           -0.7219    -5.8100    -0.4076 H       
  38 H38           -2.4977    -4.0912     0.0841 H       
  39 H39           -2.7072    -2.2590    -1.2730 H       
  40 H40           -1.3704    -2.8687    -2.2892 H       
  41 H41           -3.8496    -2.6499    -3.1820 H       
  42 H42           -4.9281    -4.0851    -1.6851 H       
  43 H43           -4.6376    -5.1018    -3.1339 H       
  44 H44           -2.6482    -6.0786    -2.1858 H       
  45 H45           -3.6970    -5.9276    -0.7378 H       
  46 H46           -1.6088     2.4743    -0.9494 H       
  47 H47           -1.8955     2.1061     0.7839 H       
  48 H48           -0.8473     4.5392    -0.0813 H       
  49 H49           -0.4426     3.8232     1.5137 H       
@<TRIPOS>BOND
   1    1    2 ar
   2    1    6 ar
   3    1   25 1
   4    2    3 ar
   5    2   28 1
   6    3    4 ar
   7    3    8 1
   8    4    5 ar
   9    4    7 1
  10    5    6 ar
  11    5   29 1
  12    6   27 1
  13    7    9 1
  14    8    9 1
  15    8   11 1
  16    8   12 1
  17    9   30 1
  18    9   31 1
  19   10   11 ar
  20   10   13 1
  21   10   18 ar
  22   11   15 ar
  23   12   13 am
  24   12   14 2
  25   13   19 1
  26   15   16 ar
  27   15   32 1
  28   16   17 ar
  29   16   33 1
  30   17   18 ar
  31   17   34 1
  32   18   35 1
  33   19   20 1
  34   19   36 1
  35   19   37 1
  36   20   21 1
  37   20   24 1
  38   20   38 1
  39   21   22 1
  40   21   39 1
  41   21   40 1
  42   22   23 1
  43   22   41 1
  44   23   24 1
  45   23   42 1
  46   23   43 1
  47   24   44 1
  48   24   45 1
  49   25   26 1
  50   25   46 1
  51   25   47 1
  52   26   27 1
  53   26   48 1
  54   26   49 1

#	End of record

