#	Name: ASD05850003
#	Creating user name:	WinNT
#	Creation time:	15. 06. 2019 21:04

#	Modifying user name:	WinNT
#	Modification time:	15. 06. 2019 21:04

#	Program:	/corina/corina34_cracker 3.40 0067  02.08.2006

@<TRIPOS>MOLECULE
ASD05850003
  23   24    0    0    0
SMALL
NO_CHARGES


@<TRIPOS>ATOM
   1 C1            -0.0167     1.3790     0.0096 C.ar    
   2 C2             0.0021    -0.0041     0.0020 C.ar    
   3 C3             1.2050    -0.6804    -0.0126 C.ar    
   4 C4             2.4023     0.0328    -0.0202 C.ar    
   5 C5             2.3774     1.4262    -0.0129 C.ar    
   6 C6             1.1686     2.0921     0.0021 C.ar    
   7 C7             3.6984    -0.6884    -0.0354 C.ar    
   8 C8             3.9415    -1.7093     0.8801 C.ar    
   9 C9             5.1491    -2.3779     0.8615 C.ar    
  10 C10            6.1198    -2.0377    -0.0637 C.ar    
  11 C11            5.8890    -1.0257    -0.9765 C.ar    
  12 C12            4.6793    -0.3503    -0.9729 C.ar    
  13 O13            4.4511     0.6441    -1.8698 O.3     
  14 H14           -0.9604     1.9042     0.0169 H       
  15 H15           -0.9264    -0.5557     0.0079 H       
  16 H16            1.2185    -1.7603    -0.0178 H       
  17 H17            3.3022     1.9839    -0.0184 H       
  18 H18            1.1481     3.1719     0.0078 H       
  19 H19            3.1863    -1.9774     1.6040 H       
  20 H20            5.3370    -3.1692     1.5721 H       
  21 H21            7.0623    -2.5649    -0.0725 H       
  22 H22            6.6508    -0.7641    -1.6960 H       
  23 H23            4.0544     0.3428    -2.6986 H       
@<TRIPOS>BOND
   1    1    2 ar
   2    1    6 ar
   3    1   14 1
   4    2    3 ar
   5    2   15 1
   6    3    4 ar
   7    3   16 1
   8    4    5 ar
   9    4    7 1
  10    5    6 ar
  11    5   17 1
  12    6   18 1
  13    7    8 ar
  14    7   12 ar
  15    8    9 ar
  16    8   19 1
  17    9   10 ar
  18    9   20 1
  19   10   11 ar
  20   10   21 1
  21   11   12 ar
  22   11   22 1
  23   12   13 1
  24   13   23 1

#	End of record

