#	Name: ASD01813637
#	Creating user name:	WinNT
#	Creation time:	15. 06. 2019 19:30

#	Modifying user name:	WinNT
#	Modification time:	15. 06. 2019 19:30

#	Program:	/corina/corina34_cracker 3.40 0067  02.08.2006

@<TRIPOS>MOLECULE
ASD01813637
  55   59    0    0    0
SMALL
NO_CHARGES


@<TRIPOS>ATOM
   1 C1            -0.0178     1.4608     0.0101 C.3     
   2 N2             0.0021    -0.0041     0.0020 N.pl3   
   3 C3             0.0078    -0.7880    -1.0996 C.2     
   4 C4             0.0281    -2.0753    -0.6465 C.2     
   5 N5             0.0336    -2.0001     0.6964 N.2     
   6 N6             0.0227    -0.7613     1.0419 N.2     
   7 C7             0.0415    -3.3102    -1.4702 C.ar    
   8 C8             0.0393    -3.2231    -2.8606 C.ar    
   9 C9             0.0517    -4.3745    -3.6217 C.ar    
  10 C10            0.0664    -5.6131    -3.0063 C.ar    
  11 C11            0.0805    -6.8668    -3.8426 C.3     
  12 C12            1.5059    -7.2682    -4.1221 C.ar    
  13 C13            2.1303    -6.8762    -5.2870 C.ar    
  14 C14            3.4536    -7.2661    -5.5139 C.ar    
  15 N15            4.1081    -7.9994    -4.6343 N.ar    
  16 C16            3.5464    -8.4063    -3.4866 C.ar    
  17 C17            4.1223    -9.2096    -2.4208 C.2     
  18 C18            3.3151    -9.4484    -1.4055 C.2     
  19 S19            1.7445    -8.7078    -1.6462 S.3     
  20 C20            2.2226    -8.0411    -3.2013 C.ar    
  21 C21            4.1313    -6.8493    -6.7623 C.2     
  22 O22            3.5375    -6.1739    -7.5797 O.2     
  23 N23            5.4068    -7.2189    -6.9923 N.am    
  24 C24            6.0775    -6.8065    -8.2277 C.3     
  25 H25            5.7374    -5.8109    -8.5124 H       
  26 C26            5.7477    -7.7999    -9.3460 C.3     
  27 C27            6.5148    -7.4057   -10.6109 C.3     
  28 O28            7.9152    -7.3781   -10.3279 O.3     
  29 C29            8.2890    -6.4332    -9.3231 C.3     
  30 C30            7.5930    -6.7863    -8.0058 C.3     
  31 H31            7.9254    -7.7692    -7.6717 H       
  32 O32            7.9176    -5.8089    -7.0152 O.3     
  33 C33            0.0687    -5.7053    -1.6262 C.ar    
  34 C34            0.0622    -4.5603    -0.8556 C.ar    
  35 H35            1.0048     1.8381     0.0023 H       
  36 H36           -0.5450     1.8219    -0.8730 H       
  37 H37           -0.5280     1.8123     0.9069 H       
  38 H38           -0.0019    -0.4618    -2.1291 H       
  39 H39            0.0274    -2.2564    -3.3421 H       
  40 H40            0.0496    -4.3081    -4.6997 H       
  41 H41           -0.4238    -7.6688    -3.3035 H       
  42 H42           -0.4361    -6.6811    -4.7843 H       
  43 H43            1.6042    -6.2762    -6.0148 H       
  44 H44            5.1350    -9.5830    -2.4576 H       
  45 H45            3.5873   -10.0278    -0.5357 H       
  46 H46            5.8808    -7.7580    -6.3398 H       
  47 H47            6.0416    -8.8039    -9.0398 H       
  48 H48            4.6768    -7.7786    -9.5480 H       
  49 H49            6.3172    -8.1337   -11.3976 H       
  50 H50            6.1909    -6.4181   -10.9395 H       
  51 H51            9.3695    -6.4608    -9.1821 H       
  52 H52            7.9883    -5.4330    -9.6348 H       
  53 H53            8.8631    -5.7417    -6.8240 H       
  54 H54            0.0799    -6.6750    -1.1508 H       
  55 H55            0.0688    -4.6333     0.2219 H       
@<TRIPOS>BOND
   1    1    2 1
   2    1   35 1
   3    1   36 1
   4    1   37 1
   5    2    6 1
   6    2    3 1
   7    3    4 2
   8    3   38 1
   9    4    5 1
  10    4    7 1
  11    5    6 2
  12    7   34 ar
  13    7    8 ar
  14    8    9 ar
  15    8   39 1
  16    9   10 ar
  17    9   40 1
  18   10   11 1
  19   10   33 ar
  20   11   12 1
  21   11   41 1
  22   11   42 1
  23   12   20 ar
  24   12   13 ar
  25   13   14 ar
  26   13   43 1
  27   14   15 ar
  28   14   21 1
  29   15   16 ar
  30   16   20 ar
  31   16   17 1
  32   17   18 2
  33   17   44 1
  34   18   19 1
  35   18   45 1
  36   19   20 1
  37   21   22 2
  38   21   23 am
  39   23   24 1
  40   23   46 1
  41   24   25 1
  42   24   30 1
  43   24   26 1
  44   26   27 1
  45   26   47 1
  46   26   48 1
  47   27   28 1
  48   27   49 1
  49   27   50 1
  50   28   29 1
  51   29   30 1
  52   29   51 1
  53   29   52 1
  54   30   31 1
  55   30   32 1
  56   32   53 1
  57   33   34 ar
  58   33   54 1
  59   34   55 1

#	End of record

