#	Name: ASD01150431
#	Creating user name:	WinNT
#	Creation time:	15. 06. 2019 19:04

#	Modifying user name:	WinNT
#	Modification time:	15. 06. 2019 19:04

#	Program:	/corina/corina34_cracker 3.40 0067  02.08.2006

@<TRIPOS>MOLECULE
ASD01150431
  44   46    0    0    0
SMALL
NO_CHARGES


@<TRIPOS>ATOM
   1 C1             1.9997     1.1585     0.9722 C.ar    
   2 N2             2.0152    -0.1374     0.7339 N.ar    
   3 C3             1.2496    -0.6847    -0.1892 C.ar    
   4 C4             0.3890     0.0932    -0.9531 C.ar    
   5 C5             0.3424     1.4663    -0.7327 C.ar    
   6 C6             1.1664     2.0050     0.2509 C.ar    
   7 N7             1.1556     3.3801     0.5104 N.am    
   8 C8            -0.0186     4.0140     0.6761 C.2     
   9 N9            -0.0659     5.3356     0.9275 N.am    
  10 C10            1.0766     6.0477     1.0171 C.2     
  11 C11            2.3642     5.3602     0.8369 C.2     
  12 N12            2.3676     4.0749     0.5995 N.2     
  13 O13            1.0421     7.2429     1.2437 O.2     
  14 C14           -1.3590     6.0013     1.1033 C.3     
  15 O15           -1.0552     3.3829     0.5972 O.2     
  16 C16           -1.7482     5.9661     2.5588 C.ar    
  17 C17           -1.3657     6.9932     3.4009 C.ar    
  18 C18           -1.7218     6.9628     4.7365 C.ar    
  19 C19           -2.4614     5.9043     5.2312 C.ar    
  20 C20           -2.8456     4.8744     4.3871 C.ar    
  21 C21           -2.4925     4.9095     3.0494 C.ar    
  22 N22           -0.4200    -0.4959    -1.9314 N.am    
  23 C23           -0.6929     0.1701    -3.0709 C.2     
  24 O24           -0.3098     1.3122    -3.2124 O.2     
  25 O25            3.5319     6.0493     0.9207 O.3     
  26 C26            4.7383     5.3068     0.7333 C.3     
  27 Cl27          -2.9078     5.8652     6.9084 Cl      
  28 C28           -1.4740    -0.5042    -4.1692 C.3     
  29 F29           -3.5681     3.8394     4.8687 F       
  30 H30            2.6392     1.5673     1.7406 H       
  31 H31            1.2923    -1.7512    -0.3539 H       
  32 H32           -0.3163     2.0979    -1.3103 H       
  33 H33           -1.2823     7.0371     0.7726 H       
  34 H34           -2.1162     5.4862     0.5122 H       
  35 H35           -0.7878     7.8201     3.0154 H       
  36 H36           -1.4221     7.7658     5.3936 H       
  37 H37           -2.7913     4.1075     2.3906 H       
  38 H38           -0.7843    -1.3836    -1.7894 H       
  39 H39            4.8048     4.5247     1.4896 H       
  40 H40            4.7360     4.8541    -0.2583 H       
  41 H41            5.5944     5.9752     0.8255 H       
  42 H42           -1.7295    -1.5187    -3.8632 H       
  43 H43           -2.3875     0.0578    -4.3631 H       
  44 H44           -0.8698    -0.5395    -5.0758 H       
@<TRIPOS>BOND
   1    1    2 ar
   2    1    6 ar
   3    1   30 1
   4    2    3 ar
   5    3    4 ar
   6    3   31 1
   7    4    5 ar
   8    4   22 1
   9    5    6 ar
  10    5   32 1
  11    6    7 1
  12    7    8 am
  13    7   12 1
  14    8    9 am
  15    8   15 2
  16    9   10 am
  17    9   14 1
  18   10   11 1
  19   10   13 2
  20   11   12 2
  21   11   25 1
  22   14   16 1
  23   14   33 1
  24   14   34 1
  25   16   17 ar
  26   16   21 ar
  27   17   18 ar
  28   17   35 1
  29   18   19 ar
  30   18   36 1
  31   19   20 ar
  32   19   27 1
  33   20   21 ar
  34   20   29 1
  35   21   37 1
  36   22   23 am
  37   22   38 1
  38   23   24 2
  39   23   28 1
  40   25   26 1
  41   26   39 1
  42   26   40 1
  43   26   41 1
  44   28   42 1
  45   28   43 1
  46   28   44 1

#	End of record

