#	Name: ASD01882517
#	Creating user name:	WinNT
#	Creation time:	15. 06. 2019 19:44

#	Modifying user name:	WinNT
#	Modification time:	15. 06. 2019 19:44

#	Program:	/corina/corina34_cracker 3.40 0067  02.08.2006

@<TRIPOS>MOLECULE
ASD01882517
  50   55    0    0    0
SMALL
NO_CHARGES


@<TRIPOS>ATOM
   1 C1            -0.0340     1.5774    -0.1155 C.3     
   2 C2            -0.0479     0.0392    -0.2462 C.3     
   3 N3            -0.0429    -0.4556     1.1546 N.3     
   4 C4             0.8853     0.4631     1.8628 C.3     
   5 C5             0.5799     1.8562     1.2719 C.3     
   6 C6             1.3205     2.2792     0.0017 C.3     
   7 C7             2.5464     1.4914    -0.3824 C.ar    
   8 C8             2.5820     0.8110    -1.5852 C.ar    
   9 C9             3.7065     0.0883    -1.9375 C.ar    
  10 C10            4.7956     0.0464    -1.0872 C.ar    
  11 C11            4.7604     0.7275     0.1152 C.ar    
  12 C12            3.6375     1.4537     0.4655 C.ar    
  13 C13            0.4365    -1.8426     1.2212 C.3     
  14 C14           -0.0823    -3.2267     4.7002 C.2     
  15 C15           -0.3139    -2.8750     3.3554 C.2     
  16 C16            0.6615    -2.2277     2.6607 C.2     
  17 C17            1.8793    -1.9202     3.2912 C.2     
  18 C18            2.0865    -2.2635     4.5797 C.2     
  19 N19            1.1182    -2.9130     5.2882 N.pl3   
  20 N20           -0.1397    -3.9219     6.7139 N.2     
  21 N21           -0.8112    -3.8384     5.6194 N.2     
  22 C22            1.0389    -3.3739     6.5657 C.2     
  23 C23            2.1122    -3.2706     7.6185 C.3     
  24 C24            1.9370    -1.9665     8.3993 C.3     
  25 C25            2.8618    -1.7291     9.5948 C.3     
  26 C26            3.0588    -0.9304     8.3047 C.3     
  27 Cl27          -1.8247    -3.2632     2.5935 Cl      
  28 H28           -0.8908     2.1253    -0.5078 H       
  29 H29           -0.9495    -0.2903    -0.7625 H       
  30 H30            0.8412    -0.3055    -0.7743 H       
  31 H31            0.6863     0.4527     2.9344 H       
  32 H32            1.9204     0.1847     1.6648 H       
  33 H33            0.1656     2.6094     1.9422 H       
  34 H34            1.3561     3.3441    -0.2281 H       
  35 H35            1.7311     0.8437    -2.2495 H       
  36 H36            3.7340    -0.4438    -2.8769 H       
  37 H37            5.6739    -0.5188    -1.3622 H       
  38 H38            5.6111     0.6945     0.7796 H       
  39 H39            3.6114     1.9889     1.4032 H       
  40 H40           -0.3075    -2.5057     0.7798 H       
  41 H41            1.3733    -1.9301     0.6710 H       
  42 H42            2.6540    -1.4066     2.7412 H       
  43 H43            3.0264    -2.0224     5.0538 H       
  44 H44            2.0337    -4.1164     8.3016 H       
  45 H45            3.0918    -3.2792     7.1407 H       
  46 H46            0.9144    -1.5963     8.4727 H       
  47 H47            2.4478    -1.2024    10.4546 H       
  48 H48            3.5951    -2.5020     9.8251 H       
  49 H49            3.9217    -1.1778     7.6864 H       
  50 H50            2.7744     0.1218     8.3159 H       
@<TRIPOS>BOND
   1    1    2 1
   2    1    6 1
   3    1    5 1
   4    1   28 1
   5    2    3 1
   6    2   29 1
   7    2   30 1
   8    3    4 1
   9    3   13 1
  10    4    5 1
  11    4   31 1
  12    4   32 1
  13    5    6 1
  14    5   33 1
  15    6    7 1
  16    6   34 1
  17    7    8 ar
  18    7   12 ar
  19    8    9 ar
  20    8   35 1
  21    9   10 ar
  22    9   36 1
  23   10   11 ar
  24   10   37 1
  25   11   12 ar
  26   11   38 1
  27   12   39 1
  28   13   16 1
  29   13   40 1
  30   13   41 1
  31   14   15 1
  32   14   19 1
  33   14   21 2
  34   15   16 2
  35   15   27 1
  36   16   17 1
  37   17   18 2
  38   17   42 1
  39   18   19 1
  40   18   43 1
  41   19   22 1
  42   20   21 1
  43   20   22 2
  44   22   23 1
  45   23   24 1
  46   23   44 1
  47   23   45 1
  48   24   25 1
  49   24   26 1
  50   24   46 1
  51   25   26 1
  52   25   47 1
  53   25   48 1
  54   26   49 1
  55   26   50 1

#	End of record

