#	Name: ASD01912381
#	Creating user name:	WinNT
#	Creation time:	15. 06. 2019 19:59

#	Modifying user name:	WinNT
#	Modification time:	15. 06. 2019 19:59

#	Program:	/corina/corina34_cracker 3.40 0067  02.08.2006

@<TRIPOS>MOLECULE
ASD01912381
  43   45    0    0    0
SMALL
NO_CHARGES


@<TRIPOS>ATOM
   1 C1             0.7477     1.3895    -1.4633 C.ar    
   2 C2             0.7092    -0.0059    -1.3430 C.ar    
   3 C3             1.8991    -0.7295    -1.4928 C.ar    
   4 C4             3.0643    -0.0296    -1.7540 C.ar    
   5 C5             3.0193     1.3483    -1.8581 C.ar    
   6 N6             1.8851     2.0078    -1.7129 N.ar    
   7 C7            -0.5246    -0.6802    -1.0714 C.1     
   8 C8            -1.5361    -1.2330    -0.8488 C.1     
   9 C9            -2.7699    -1.9073    -0.5772 C.2     
  10 N10           -2.9961    -5.9485    -1.1363 N.3     
  11 C11           -4.2106    -5.1247    -1.1825 C.3     
  12 C12           -4.0834    -3.9733    -0.1784 C.3     
  13 C13           -2.7930    -3.2346    -0.4652 C.2     
  14 C14           -1.5297    -4.0550    -0.6210 C.3     
  15 C15           -1.8192    -5.2012    -1.5969 C.3     
  16 C16           -3.1603    -7.1194    -1.8672 C.ar    
  17 C17           -2.5781    -8.3003    -1.4175 C.ar    
  18 C18           -2.7499    -9.4580    -2.1543 C.ar    
  19 C19           -3.5010    -9.3958    -3.3209 C.ar    
  20 C20           -4.0499    -8.1901    -3.7081 C.ar    
  21 N21           -3.8738    -7.1020    -2.9824 N.ar    
  22 N22           -1.8523    -8.3159    -0.2733 N.pl3   
  23 O23           -1.2600    -9.3272     0.0585 O.2     
  24 O24           -1.7923    -7.3187     0.4234 O.2     
  25 C25            4.2878     2.1110    -2.1420 C.3     
  26 F26           -0.3896     2.1061    -1.3280 F       
  27 H27            1.9073    -1.8060    -1.4063 H       
  28 H28            4.0001    -0.5550    -1.8749 H       
  29 H29           -3.6817    -1.3398    -0.4631 H       
  30 H30           -4.3369    -4.7193    -2.1864 H       
  31 H31           -5.0752    -5.7369    -0.9260 H       
  32 H32           -4.9284    -3.2938    -0.2894 H       
  33 H33           -4.0616    -4.3711     0.8362 H       
  34 H34           -0.7307    -3.4282    -1.0168 H       
  35 H35           -1.2338    -4.4616     0.3461 H       
  36 H36           -0.9585    -5.8687    -1.6394 H       
  37 H37           -2.0128    -4.7937    -2.5892 H       
  38 H38           -2.3095   -10.3893    -1.8301 H       
  39 H39           -3.6536   -10.2819    -3.9192 H       
  40 H40           -4.6344    -8.1373    -4.6147 H       
  41 H41            4.4171     2.2128    -3.2195 H       
  42 H42            4.2262     3.1002    -1.6883 H       
  43 H43            5.1374     1.5715    -1.7234 H       
@<TRIPOS>BOND
   1    1    2 ar
   2    1    6 ar
   3    1   26 1
   4    2    3 ar
   5    2    7 1
   6    3    4 ar
   7    3   27 1
   8    4    5 ar
   9    4   28 1
  10    5    6 ar
  11    5   25 1
  12    7    8 3
  13    8    9 1
  14    9   13 2
  15    9   29 1
  16   10   11 1
  17   10   15 1
  18   10   16 1
  19   11   12 1
  20   11   30 1
  21   11   31 1
  22   12   13 1
  23   12   32 1
  24   12   33 1
  25   13   14 1
  26   14   15 1
  27   14   34 1
  28   14   35 1
  29   15   36 1
  30   15   37 1
  31   16   17 ar
  32   16   21 ar
  33   17   18 ar
  34   17   22 1
  35   18   19 ar
  36   18   38 1
  37   19   20 ar
  38   19   39 1
  39   20   21 ar
  40   20   40 1
  41   22   23 2
  42   22   24 2
  43   25   41 1
  44   25   42 1
  45   25   43 1

#	End of record

