#	Name: ASD03370006
#	Creating user name:	WinNT
#	Creation time:	15. 06. 2019 20:40

#	Modifying user name:	WinNT
#	Modification time:	15. 06. 2019 20:40

#	Program:	/corina/corina34_cracker 3.40 0067  02.08.2006

@<TRIPOS>MOLECULE
ASD03370006
  36   38    0    0    0
SMALL
NO_CHARGES


@<TRIPOS>ATOM
   1 O1            -0.0164     1.3555     0.0095 O.3     
   2 O2            -0.5261    -2.1009    -3.5284 O.3     
   3 O3             0.0636    -4.2153     0.0142 O.3     
   4 O4             0.0923    -4.1884     2.4671 O.3     
   5 O5             0.0423    -0.0650     4.8042 O.3     
   6 O6             0.4398    -3.9402    -2.6706 O.2     
   7 C7             0.0233    -0.7221     1.2151 C.ar    
   8 C8             0.0451    -2.1404     1.2177 C.ar    
   9 C9             0.0006    -0.6941    -1.1930 C.ar    
  10 C10            0.0178    -2.1655    -1.1907 C.ar    
  11 C11            0.0021    -0.0041     0.0020 C.ar    
  12 C12            0.0422    -2.8597     0.0070 C.ar    
  13 C13            0.0688    -2.8312     2.4495 C.ar    
  14 C14            0.0221    -0.0314     2.4408 C.ar    
  15 C15           -0.0136    -0.0354    -2.5069 C.2     
  16 C16            0.0019    -2.8166    -2.5065 C.2     
  17 C17            0.0439    -0.7357     3.6229 C.ar    
  18 C18            0.0677    -2.1328     3.6219 C.ar    
  19 C19           -0.2655    -0.7803    -3.5934 C.2     
  20 C20           -0.2580    -0.1119    -4.9441 C.3     
  21 C21            1.2479     2.0216     0.0010 C.3     
  22 C22            0.0656    -0.8518     5.9969 C.3     
  23 H23            0.0044     1.0484     2.4540 H       
  24 H24            0.1743     1.0245    -2.5954 H       
  25 H25            0.0850    -2.6665     4.5606 H       
  26 H26           -0.4797    -0.8493    -5.7156 H       
  27 H27           -1.0130     0.6739    -4.9648 H       
  28 H28            0.7243     0.3230    -5.1288 H       
  29 H29           -0.8134    -4.6224     0.0266 H       
  30 H30            0.9824    -4.5664     2.4637 H       
  31 H31            1.0905     3.1001     0.0083 H       
  32 H32            1.8173     1.7315     0.8840 H       
  33 H33            1.8003     1.7411    -0.8958 H       
  34 H34           -0.8133    -1.4958     6.0246 H       
  35 H35            0.9663    -1.4655     6.0098 H       
  36 H36            0.0616    -0.1941     6.8661 H       
@<TRIPOS>BOND
   1    1   11 1
   2    1   21 1
   3    2   16 1
   4    2   19 1
   5    3   12 1
   6    3   29 1
   7    4   13 1
   8    4   30 1
   9    5   17 1
  10    5   22 1
  11    6   16 2
  12    7    8 ar
  13    7   11 ar
  14    7   14 ar
  15    8   12 ar
  16    8   13 ar
  17    9   10 ar
  18    9   11 ar
  19    9   15 1
  20   10   12 ar
  21   10   16 1
  22   13   18 ar
  23   14   17 ar
  24   14   23 1
  25   15   19 2
  26   15   24 1
  27   17   18 ar
  28   18   25 1
  29   19   20 1
  30   20   26 1
  31   20   27 1
  32   20   28 1
  33   21   31 1
  34   21   32 1
  35   21   33 1
  36   22   34 1
  37   22   35 1
  38   22   36 1

#	End of record

