#	Name: ASD02500787
#	Creating user name:	WinNT
#	Creation time:	15. 06. 2019 20:23

#	Modifying user name:	WinNT
#	Modification time:	15. 06. 2019 20:23

#	Program:	/corina/corina34_cracker 3.40 0067  02.08.2006

@<TRIPOS>MOLECULE
ASD02500787
  48   51    0    0    0
SMALL
NO_CHARGES


@<TRIPOS>ATOM
   1 N1            -0.0179     1.4654     0.0101 N.am    
   2 C2             0.0021    -0.0041     0.0020 C.3     
   3 C3             0.8261    -0.4764    -1.2022 C.3     
   4 N4             2.1040     0.2493    -1.2105 N.am    
   5 C5             2.0841     1.7188    -1.2024 C.3     
   6 C6             1.2601     2.1912     0.0018 C.3     
   7 S7             3.5407    -0.5740    -1.2281 S.o2    
   8 O8             4.5153     0.3081    -0.6883 O.2     
   9 O9             3.2726    -1.8605    -0.6876 O.2     
  10 O10            4.9957    -1.4369    -6.8736 O.3     
  11 C11            4.6648    -1.2239    -5.5707 C.ar    
  12 C12            5.0892    -0.0786    -4.9069 C.ar    
  13 O13            5.8413     0.8586    -5.5461 O.3     
  14 C14            6.4799     0.4515    -6.7612 C.3     
  15 C15            5.4505    -0.3003    -7.6161 C.3     
  16 C16            4.7441     0.1162    -3.5782 C.ar    
  17 C17            3.9775    -0.8248    -2.9166 C.ar    
  18 C18            3.5534    -1.9623    -3.5772 C.ar    
  19 C19            3.8954    -2.1635    -4.9014 C.ar    
  20 S20           -1.4546     2.2888     0.0214 S.o2    
  21 O21           -1.1840     3.5755    -0.5173 O.2     
  22 O22           -2.4267     1.4070    -0.5232 O.2     
  23 C23           -1.8991     2.5390     1.7080 C.ar    
  24 C24           -1.4781     3.6759     2.3721 C.ar    
  25 C25           -1.8265     3.8727     3.6951 C.ar    
  26 C26           -2.5967     2.9316     4.3547 C.ar    
  27 C27           -3.0178     1.7939     3.6894 C.ar    
  28 C28           -2.6735     1.6009     2.3648 C.ar    
  29 Cl29          -3.0342     3.1778     6.0165 Cl      
  30 H30            0.4576    -0.3688     0.9227 H       
  31 H31           -1.0165    -0.3833    -0.0803 H       
  32 H32            1.0139    -1.5469    -1.1197 H       
  33 H33            0.2810    -0.2679    -2.1228 H       
  34 H34            3.1027     2.0980    -1.1201 H       
  35 H35            1.6286     2.0836    -2.1231 H       
  36 H36            1.0723     3.2617    -0.0807 H       
  37 H37            1.8051     1.9827     0.9224 H       
  38 H38            6.8358     1.3289    -7.3013 H       
  39 H39            7.3190    -0.2058    -6.5331 H       
  40 H40            5.9150    -0.6301    -8.5453 H       
  41 H41            4.6081     0.3549    -7.8380 H       
  42 H42            5.0744     1.0041    -3.0596 H       
  43 H43            2.9541    -2.6955    -3.0579 H       
  44 H44            3.5627    -3.0532    -5.4154 H       
  45 H45           -0.8765     4.4104     1.8572 H       
  46 H46           -1.4972     4.7608     4.2139 H       
  47 H47           -3.6191     1.0589     4.2038 H       
  48 H48           -3.0059     0.7150     1.8441 H       
@<TRIPOS>BOND
   1    1    2 1
   2    1    6 1
   3    1   20 am
   4    2    3 1
   5    2   30 1
   6    2   31 1
   7    3    4 1
   8    3   32 1
   9    3   33 1
  10    4    5 1
  11    4    7 am
  12    5    6 1
  13    5   34 1
  14    5   35 1
  15    6   36 1
  16    6   37 1
  17    7    8 2
  18    7    9 2
  19    7   17 1
  20   10   11 1
  21   10   15 1
  22   11   12 ar
  23   11   19 ar
  24   12   13 1
  25   12   16 ar
  26   13   14 1
  27   14   15 1
  28   14   38 1
  29   14   39 1
  30   15   40 1
  31   15   41 1
  32   16   17 ar
  33   16   42 1
  34   17   18 ar
  35   18   19 ar
  36   18   43 1
  37   19   44 1
  38   20   21 2
  39   20   22 2
  40   20   23 1
  41   23   24 ar
  42   23   28 ar
  43   24   25 ar
  44   24   45 1
  45   25   26 ar
  46   25   46 1
  47   26   27 ar
  48   26   29 1
  49   27   28 ar
  50   27   47 1
  51   28   48 1

#	End of record

