#	Name: ASD01903251
#	Creating user name:	WinNT
#	Creation time:	15. 06. 2019 19:54

#	Modifying user name:	WinNT
#	Modification time:	15. 06. 2019 19:54

#	Program:	/corina/corina34_cracker 3.40 0067  02.08.2006

@<TRIPOS>MOLECULE
ASD01903251
  40   42    0    0    0
SMALL
NO_CHARGES


@<TRIPOS>ATOM
   1 S1            -0.3592     1.3975    -0.1821 S.3     
   2 C2            -0.2304    -0.3034    -0.0759 C.2     
   3 N3             1.0136    -0.6639    -0.0951 N.2     
   4 C4             1.9172     0.3036    -0.1890 C.2     
   5 C5             1.3950     1.5412    -0.2517 C.2     
   6 N6            -1.3063    -1.1749     0.0182 N.pl3   
   7 C7            -2.6006    -0.6792     0.0303 C.ar    
   8 C8             3.3787     0.0420    -0.2221 C.2     
   9 C9             4.0066    -1.2136    -0.0584 C.2     
  10 N10            5.3017    -1.0338    -0.1523 N.2     
  11 N11            5.5457     0.3265    -0.3766 N.pl3   
  12 C12            4.3588     0.9682    -0.4218 C.2     
  13 N13           -3.6162    -1.5252     0.1206 N.ar    
  14 C14           -4.8635    -1.0853     0.1347 C.ar    
  15 C15           -5.1005     0.2780     0.0536 C.ar    
  16 C16           -4.0149     1.1349    -0.0398 C.ar    
  17 N17           -2.7926     0.6296    -0.0434 N.ar    
  18 N18            3.3598    -2.4336     0.1653 N.3     
  19 C19            3.5609    -3.3509    -0.9643 C.3     
  20 C20            3.8071    -3.0434     1.4247 C.3     
  21 C21            3.1606    -2.3124     2.6031 C.3     
  22 O22            1.7466    -2.5168     2.5726 O.3     
  23 C23            1.0431    -1.8724     3.6365 C.3     
  24 H24            1.9535     2.4622    -0.3311 H       
  25 H25           -1.1525    -2.1309     0.0755 H       
  26 H26            6.4179     0.7369    -0.4849 H       
  27 H27            4.2123     2.0264    -0.5807 H       
  28 H28           -5.6872    -1.7799     0.2081 H       
  29 H29           -6.1091     0.6642     0.0627 H       
  30 H30           -4.1652     2.2024    -0.1045 H       
  31 H31            4.6284    -3.4719    -1.1486 H       
  32 H32            3.1208    -4.3198    -0.7284 H       
  33 H33            3.0827    -2.9417    -1.8543 H       
  34 H34            3.5148    -4.0933     1.4439 H       
  35 H35            4.8917    -2.9667     1.5004 H       
  36 H36            3.5640    -2.7019     3.5378 H       
  37 H37            3.3752    -1.2461     2.5311 H       
  38 H38            1.4026    -2.2528     4.5927 H       
  39 H39            1.2138    -0.7970     3.5860 H       
  40 H40           -0.0236    -2.0758     3.5424 H       
@<TRIPOS>BOND
   1    1    2 1
   2    1    5 1
   3    2    3 2
   4    2    6 1
   5    3    4 1
   6    4    5 2
   7    4    8 1
   8    5   24 1
   9    6    7 1
  10    6   25 1
  11    7   13 ar
  12    7   17 ar
  13    8    9 1
  14    8   12 2
  15    9   10 2
  16    9   18 1
  17   10   11 1
  18   11   12 1
  19   11   26 1
  20   12   27 1
  21   13   14 ar
  22   14   15 ar
  23   14   28 1
  24   15   16 ar
  25   15   29 1
  26   16   17 ar
  27   16   30 1
  28   18   19 1
  29   18   20 1
  30   19   31 1
  31   19   32 1
  32   19   33 1
  33   20   21 1
  34   20   34 1
  35   20   35 1
  36   21   22 1
  37   21   36 1
  38   21   37 1
  39   22   23 1
  40   23   38 1
  41   23   39 1
  42   23   40 1

#	End of record

