#	Name: ASD03320176
#	Creating user name:	WinNT
#	Creation time:	15. 06. 2019 20:36

#	Modifying user name:	WinNT
#	Modification time:	15. 06. 2019 20:36

#	Program:	/corina/corina34_cracker 3.40 0067  02.08.2006

@<TRIPOS>MOLECULE
ASD03320176
  43   45    0    0    0
SMALL
NO_CHARGES


@<TRIPOS>ATOM
   1 C1            -0.0078     1.3448    -0.1947 C.ar    
   2 C2             0.0216    -0.0349     0.0279 C.ar    
   3 C3            -1.1508    -0.7585     0.0445 C.ar    
   4 C4            -2.3672    -0.1223    -0.1599 C.ar    
   5 C5            -2.4073     1.2597    -0.3837 C.ar    
   6 C6            -1.2278     1.9923    -0.3948 C.ar    
   7 C7             1.2499     2.1172    -0.2120 C.2     
   8 O8             1.2236     3.3174    -0.4056 O.2     
   9 N9             2.4273     1.4923    -0.0131 N.am    
  10 C10            3.6268     2.2061    -0.1264 C.ar    
  11 C11           -3.7073     1.9401    -0.6028 C.ar    
  12 C12            3.6887     3.5305     0.2864 C.ar    
  13 C13            4.8719     4.2335     0.1748 C.ar    
  14 C14            5.9985     3.6172    -0.3500 C.ar    
  15 C15            5.9373     2.2943    -0.7631 C.ar    
  16 C16            4.7564     1.5881    -0.6464 C.ar    
  17 O17            7.1631     4.3103    -0.4600 O.3     
  18 C18            8.2833     3.6134    -1.0092 C.3     
  19 F19            7.9766     3.1856    -2.3054 F       
  20 F20            9.3900     4.4683    -1.0499 F       
  21 F21            8.5800     2.5042    -0.2100 F       
  22 O22           -3.5185    -0.8399    -0.1434 O.3     
  23 C23           -4.6157     1.4457    -1.5350 C.ar    
  24 N24           -5.7713     2.0483    -1.7315 N.ar    
  25 C25           -6.1136     3.1332    -1.0609 C.ar    
  26 C26           -5.2628     3.6858    -0.1159 C.ar    
  27 C27           -4.0416     3.0846     0.1280 C.ar    
  28 C28           -3.4039    -2.2450     0.0900 C.3     
  29 F29           -7.3101     3.7134    -1.2995 F       
  30 H30            0.9656    -0.5349     0.1868 H       
  31 H31           -1.1231    -1.8243     0.2169 H       
  32 H32           -1.2537     3.0581    -0.5670 H       
  33 H33            2.4439     0.5481     0.2085 H       
  34 H34            2.8115     4.0106     0.6944 H       
  35 H35            4.9202     5.2636     0.4958 H       
  36 H36            6.8146     1.8154    -1.1722 H       
  37 H37            4.7090     0.5581    -0.9677 H       
  38 H38           -4.3709     0.5601    -2.1027 H       
  39 H39           -5.5523     4.5738     0.4265 H       
  40 H40           -3.3595     3.4934     0.8588 H       
  41 H41           -4.3956    -2.6974     0.0778 H       
  42 H42           -2.7901    -2.6941    -0.6908 H       
  43 H43           -2.9387    -2.4154     1.0609 H       
@<TRIPOS>BOND
   1    1    2 ar
   2    1    7 1
   3    1    6 ar
   4    2    3 ar
   5    2   30 1
   6    3    4 ar
   7    3   31 1
   8    4    5 ar
   9    4   22 1
  10    5    6 ar
  11    5   11 1
  12    6   32 1
  13    7    8 2
  14    7    9 am
  15    9   10 1
  16    9   33 1
  17   10   12 ar
  18   10   16 ar
  19   11   23 ar
  20   11   27 ar
  21   12   13 ar
  22   12   34 1
  23   13   14 ar
  24   13   35 1
  25   14   15 ar
  26   14   17 1
  27   15   16 ar
  28   15   36 1
  29   16   37 1
  30   17   18 1
  31   18   19 1
  32   18   20 1
  33   18   21 1
  34   22   28 1
  35   23   24 ar
  36   23   38 1
  37   24   25 ar
  38   25   26 ar
  39   25   29 1
  40   26   27 ar
  41   26   39 1
  42   27   40 1
  43   28   41 1
  44   28   42 1
  45   28   43 1

#	End of record

