#	Name: ASD01816328
#	Creating user name:	WinNT
#	Creation time:	15. 06. 2019 19:35

#	Modifying user name:	WinNT
#	Modification time:	15. 06. 2019 19:35

#	Program:	/corina/corina34_cracker 3.40 0067  02.08.2006

@<TRIPOS>MOLECULE
ASD01816328
  51   56    0    0    0
SMALL
NO_CHARGES


@<TRIPOS>ATOM
   1 C1            -0.0167     1.3813     0.0096 C.ar    
   2 C2             0.0021    -0.0041     0.0020 C.ar    
   3 C3             1.1984    -0.6909    -0.0127 C.ar    
   4 C4             2.4015     0.0059    -0.0200 C.ar    
   5 C5             2.3790     1.4106    -0.0127 C.ar    
   6 C6             1.1663     2.0916     0.0022 C.ar    
   7 N7             3.6053    -0.6772    -0.0338 N.pl3   
   8 C8             4.7971    -0.0586    -0.0409 C.2     
   9 C9             4.9000     1.3103    -0.0349 C.2     
  10 C10            3.6670     2.1302    -0.0207 C.2     
  11 C11            5.9971     2.2729    -0.0395 C.2     
  12 N12            5.4246     3.4960    -0.0289 N.am    
  13 N13            4.0323     3.3799    -0.0178 N.2     
  14 O14            7.1914     2.0229    -0.0504 O.2     
  15 C15            3.5779    -2.1419    -0.0404 C.3     
  16 C16            3.5560    -2.6375    -1.4634 C.ar    
  17 C17            4.7441    -2.8868    -2.1256 C.ar    
  18 C18            4.7272    -3.3406    -3.4300 C.ar    
  19 C19            3.5158    -3.5469    -4.0761 C.ar    
  20 C20            2.3246    -3.2962    -3.4085 C.ar    
  21 C21            2.3478    -2.8474    -2.1024 C.ar    
  22 N22            3.4954    -4.0071    -5.4001 N.pl3   
  23 C23            2.3909    -4.2483    -6.1420 C.2     
  24 C24            2.7979    -4.6777    -7.3589 C.2     
  25 C25            4.1970    -4.7000    -7.3621 C.2     
  26 N26            4.6159    -4.2926    -6.1910 N.2     
  27 C27            6.1259     4.7073    -0.0282 C.ar    
  28 C28            5.4341     5.9114    -0.0168 C.ar    
  29 C29            6.1293     7.1074    -0.0156 C.ar    
  30 C30            7.5140     7.1046    -0.0264 C.ar    
  31 C31            8.2058     5.9050    -0.0378 C.ar    
  32 C32            7.5146     4.7067    -0.0332 C.ar    
  33 F33            9.5568     5.9050    -0.0487 F       
  34 F34            5.4567     8.2791    -0.0045 F       
  35 H35           -0.9602     1.9068     0.0170 H       
  36 H36           -0.9289    -0.5516     0.0080 H       
  37 H37            1.2004    -1.7709    -0.0181 H       
  38 H38            1.1506     3.1715     0.0074 H       
  39 H39            5.6983    -0.6536    -0.0513 H       
  40 H40            4.4654    -2.5242     0.4639 H       
  41 H41            2.6859    -2.4910     0.4797 H       
  42 H42            5.6861    -2.7261    -1.6225 H       
  43 H43            5.6555    -3.5345    -3.9469 H       
  44 H44            1.3807    -3.4554    -3.9086 H       
  45 H45            1.4215    -2.6522    -1.5825 H       
  46 H46            1.3676    -4.1216    -5.8206 H       
  47 H47            2.1562    -4.9543    -8.1824 H       
  48 H48            4.8234    -4.9978    -8.1900 H       
  49 H49            4.3541     5.9141    -0.0091 H       
  50 H50            8.0552     8.0392    -0.0262 H       
  51 H51            8.0546     3.7714    -0.0422 H       
@<TRIPOS>BOND
   1    1    2 ar
   2    1    6 ar
   3    1   35 1
   4    2    3 ar
   5    2   36 1
   6    3    4 ar
   7    3   37 1
   8    4    5 ar
   9    4    7 1
  10    5    6 ar
  11    5   10 1
  12    6   38 1
  13    7    8 1
  14    7   15 1
  15    8    9 2
  16    8   39 1
  17    9   10 1
  18    9   11 1
  19   10   13 2
  20   11   12 am
  21   11   14 2
  22   12   13 1
  23   12   27 1
  24   15   16 1
  25   15   40 1
  26   15   41 1
  27   16   17 ar
  28   16   21 ar
  29   17   18 ar
  30   17   42 1
  31   18   19 ar
  32   18   43 1
  33   19   20 ar
  34   19   22 1
  35   20   21 ar
  36   20   44 1
  37   21   45 1
  38   22   23 1
  39   22   26 1
  40   23   24 2
  41   23   46 1
  42   24   25 1
  43   24   47 1
  44   25   26 2
  45   25   48 1
  46   27   28 ar
  47   27   32 ar
  48   28   29 ar
  49   28   49 1
  50   29   30 ar
  51   29   34 1
  52   30   31 ar
  53   30   50 1
  54   31   32 ar
  55   31   33 1
  56   32   51 1

#	End of record

