#	Name: ASD01180170
#	Creating user name:	WinNT
#	Creation time:	15. 06. 2019 19:06

#	Modifying user name:	WinNT
#	Modification time:	15. 06. 2019 19:06

#	Program:	/corina/corina34_cracker 3.40 0067  02.08.2006

@<TRIPOS>MOLECULE
ASD01180170
  64   66    0    0    0
SMALL
NO_CHARGES


@<TRIPOS>ATOM
   1 C1            -1.0796     0.9835    -0.2802 C.2     
   2 C2            -0.9119    -0.5132    -0.2254 C.3     
   3 C3             0.5755    -0.8630    -0.3040 C.3     
   4 O4            -0.1090     1.6971    -0.3728 O.2     
   5 O5            -2.3075     1.5235    -0.2319 O.3     
   6 C6             1.9710    -2.8604    -0.3048 C.2     
   7 C7             2.1351    -4.3257    -0.2511 C.ar    
   8 C8             3.4140    -4.9012    -0.3067 C.ar    
   9 C9             3.5192    -6.2647    -0.2537 C.ar    
  10 C10            2.3630    -7.0362    -0.1470 C.ar    
  11 N11            1.1664    -6.4671    -0.0967 N.ar    
  12 C12            1.0213    -5.1590    -0.1384 C.ar    
  13 O13            2.9478    -2.1423    -0.3979 O.2     
  14 N14            0.7384    -2.3179    -0.2507 N.am    
  15 N15            2.4656    -8.4159    -0.0932 N.pl3   
  16 C16            3.7765    -9.0583    -0.2154 C.3     
  17 C17            4.1369    -9.2042    -1.6952 C.3     
  18 C18            5.5466    -9.7852    -1.8219 C.3     
  19 C19            5.8553   -10.0580    -3.2954 C.3     
  20 C20            3.6453   -12.9236     1.6070 C.ar    
  21 C21            4.7688   -12.1144     1.7638 C.ar    
  22 C22            4.8056   -10.8674     1.1735 C.ar    
  23 C23            3.7302   -10.4207     0.4271 C.ar    
  24 C24            2.6123   -11.2196     0.2685 C.ar    
  25 C25            2.5647   -12.4684     0.8543 C.ar    
  26 C26            3.6024   -14.2678     2.2341 C.ar    
  27 C27            2.4790   -15.0770     2.0773 C.ar    
  28 C28            2.4445   -16.3264     2.6628 C.ar    
  29 C29            3.5222   -16.7754     3.4046 C.ar    
  30 C30            4.6397   -15.9760     3.5639 C.ar    
  31 C31            4.6877   -14.7277     2.9772 C.ar    
  32 C32            3.4784   -18.1403     4.0420 C.3     
  33 F33            3.9948   -19.0876     3.1514 F       
  34 F34            4.2453   -18.1334     5.2120 F       
  35 F35            2.1544   -18.4669     4.3542 F       
  36 C36            6.5622    -8.7856    -1.2646 C.3     
  37 H37           -1.3251    -0.8910     0.7099 H       
  38 H38           -1.4372    -0.9686    -1.0649 H       
  39 H39            0.9886    -0.4852    -1.2392 H       
  40 H40            1.1007    -0.4075     0.5355 H       
  41 H41           -2.3647     2.4880    -0.2702 H       
  42 H42            4.2950    -4.2822    -0.3897 H       
  43 H43            4.4888    -6.7386    -0.2946 H       
  44 H44            0.0323    -4.7278    -0.0899 H       
  45 H45           -0.0408    -2.8908    -0.1764 H       
  46 H46            1.6694    -8.9571     0.0255 H       
  47 H47            4.5287    -8.4468     0.2831 H       
  48 H48            3.4239    -9.8721    -2.1786 H       
  49 H49            4.1024    -8.2265    -2.1757 H       
  50 H50            5.6076   -10.7168    -1.2594 H       
  51 H51            5.7944    -9.1263    -3.8579 H       
  52 H52            6.8596   -10.4719    -3.3856 H       
  53 H53            5.1318   -10.7701    -3.6924 H       
  54 H54            5.6090   -12.4623     2.3464 H       
  55 H55            5.6759   -10.2393     1.2944 H       
  56 H56            1.7753   -10.8658    -0.3151 H       
  57 H57            1.6916   -13.0917     0.7293 H       
  58 H58            1.6367   -14.7271     1.4989 H       
  59 H59            1.5742   -16.9544     2.5420 H       
  60 H60            5.4783   -16.3314     4.1444 H       
  61 H61            5.5629   -14.1064     3.0979 H       
  62 H62            7.5719    -9.1518    -1.4504 H       
  63 H63            6.4294    -7.8213    -1.7550 H       
  64 H64            6.4087    -8.6718    -0.1915 H       
@<TRIPOS>BOND
   1    1    2 1
   2    1    4 2
   3    1    5 1
   4    2    3 1
   5    2   37 1
   6    2   38 1
   7    3   14 1
   8    3   39 1
   9    3   40 1
  10    5   41 1
  11    6    7 1
  12    6   13 2
  13    6   14 am
  14    7    8 ar
  15    7   12 ar
  16    8    9 ar
  17    8   42 1
  18    9   10 ar
  19    9   43 1
  20   10   11 ar
  21   10   15 1
  22   11   12 ar
  23   12   44 1
  24   14   45 1
  25   15   16 1
  26   15   46 1
  27   16   17 1
  28   16   23 1
  29   16   47 1
  30   17   18 1
  31   17   48 1
  32   17   49 1
  33   18   19 1
  34   18   36 1
  35   18   50 1
  36   19   51 1
  37   19   52 1
  38   19   53 1
  39   20   21 ar
  40   20   25 ar
  41   20   26 1
  42   21   22 ar
  43   21   54 1
  44   22   23 ar
  45   22   55 1
  46   23   24 ar
  47   24   25 ar
  48   24   56 1
  49   25   57 1
  50   26   27 ar
  51   26   31 ar
  52   27   28 ar
  53   27   58 1
  54   28   29 ar
  55   28   59 1
  56   29   30 ar
  57   29   32 1
  58   30   31 ar
  59   30   60 1
  60   31   61 1
  61   32   33 1
  62   32   34 1
  63   32   35 1
  64   36   62 1
  65   36   63 1
  66   36   64 1

#	End of record

