#	Name: ASD03331452
#	Creating user name:	WinNT
#	Creation time:	15. 06. 2019 20:39

#	Modifying user name:	WinNT
#	Modification time:	15. 06. 2019 20:39

#	Program:	/corina/corina34_cracker 3.40 0067  02.08.2006

@<TRIPOS>MOLECULE
ASD03331452
  71   75    0    0    0
SMALL
NO_CHARGES


@<TRIPOS>ATOM
   1 N1            -0.5849     1.8546    -1.1431 N.am    
   2 C2            -0.3487     0.4251    -1.3868 C.3     
   3 C3            -0.7943     0.0878    -2.8131 C.3     
   4 C4            -0.0846     1.0190    -3.7987 C.3     
   5 C5            -0.4720     2.4695    -3.5019 C.3     
   6 C6            -0.0227     2.8338    -2.0833 C.3     
   7 C7             1.4070     0.8585    -3.6559 C.2     
   8 O8             2.1055     1.8304    -3.4598 O.2     
   9 N9             1.9648    -0.3651    -3.7460 N.am    
  10 C10           -0.4947     0.6677    -5.2056 C.ar    
  11 C11           -0.0495     1.4341    -6.2665 C.ar    
  12 C12           -0.4246     1.1126    -7.5572 C.ar    
  13 C13           -1.2465     0.0224    -7.7875 C.ar    
  14 C14           -1.6917    -0.7445    -6.7241 C.ar    
  15 C15           -1.3110    -0.4242    -5.4348 C.ar    
  16 F16           -1.6141    -0.2926    -9.0488 F       
  17 C17           -1.3081     2.2598    -0.0805 C.2     
  18 O18           -1.8524     1.4391     0.6333 O.2     
  19 N19           -2.2970     5.6696     0.7404 N.pl3   
  20 C20           -2.6011     4.3632     0.5424 C.2     
  21 C21           -1.4395     3.6965     0.2164 C.2     
  22 C22           -0.3939     4.6563     0.2213 C.2     
  23 C23           -0.9482     5.8525     0.5448 C.2     
  24 C24           -3.9713     3.7469     0.6588 C.3     
  25 C25           -4.6739     3.8056    -0.6991 C.3     
  26 C26           -6.0651     3.1799    -0.5810 C.3     
  27 O27           -6.7213     3.2348    -1.8493 O.3     
  28 C28           -3.2120     6.6741     1.0836 C.ar    
  29 C29           -3.1579     7.2646     2.3390 C.ar    
  30 C30           -4.0605     8.2546     2.6747 C.ar    
  31 C31           -5.0185     8.6578     1.7611 C.ar    
  32 C32           -5.0747     8.0705     0.5093 C.ar    
  33 C33           -4.1705     7.0844     0.1667 C.ar    
  34 Cl34          -6.1519     9.9021     2.1862 Cl      
  35 C35           -0.2236     7.1360     0.6661 C.ar    
  36 C36            0.9380     7.2150     1.4377 C.ar    
  37 C37            1.6099     8.4158     1.5471 C.ar    
  38 C38            1.1336     9.5408     0.8932 C.ar    
  39 C39           -0.0186     9.4674     0.1270 C.ar    
  40 C40           -0.6947     8.2710     0.0056 C.ar    
  41 F41            1.7948    10.7138     1.0035 F       
  42 Cl42           1.5351     5.8062     2.2577 Cl      
  43 H43            0.7130     0.2058    -1.2742 H       
  44 H44           -0.9238    -0.1668    -0.6747 H       
  45 H45           -0.5363    -0.9466    -3.0399 H       
  46 H46           -1.8727     0.2214    -2.8986 H       
  47 H47            0.0154     3.1303    -4.2188 H       
  48 H48           -1.5534     2.5807    -3.5808 H       
  49 H49           -0.3827     3.8312    -1.8308 H       
  50 H50            1.0656     2.8109    -2.0275 H       
  51 H51            1.4165    -1.1326    -3.9727 H       
  52 H52            2.9145    -0.4784    -3.5843 H       
  53 H53            0.5913     2.2847    -6.0866 H       
  54 H54           -0.0770     1.7117    -8.3859 H       
  55 H55           -2.3328    -1.5951    -6.9026 H       
  56 H56           -1.6548    -1.0246    -4.6055 H       
  57 H57            0.6481     4.4698     0.0074 H       
  58 H58           -3.8768     2.7078     0.9743 H       
  59 H59           -4.5565     4.2983     1.3947 H       
  60 H60           -4.7684     4.8446    -1.0147 H       
  61 H61           -4.0888     3.2542    -1.4351 H       
  62 H62           -5.9706     2.1409    -0.2655 H       
  63 H63           -6.6502     3.7313     0.1549 H       
  64 H64           -7.6105     2.8547    -1.8488 H       
  65 H65           -2.4109     6.9497     3.0527 H       
  66 H66           -4.0188     8.7142     3.6511 H       
  67 H67           -5.8237     8.3864    -0.2018 H       
  68 H68           -4.2119     6.6295    -0.8120 H       
  69 H69            2.5080     8.4787     2.1436 H       
  70 H70           -0.3854    10.3476    -0.3801 H       
  71 H71           -1.5899     8.2142    -0.5959 H       
@<TRIPOS>BOND
   1    1    2 1
   2    1    6 1
   3    1   17 am
   4    2    3 1
   5    2   43 1
   6    2   44 1
   7    3    4 1
   8    3   45 1
   9    3   46 1
  10    4    5 1
  11    4    7 1
  12    4   10 1
  13    5    6 1
  14    5   47 1
  15    5   48 1
  16    6   49 1
  17    6   50 1
  18    7    8 2
  19    7    9 am
  20    9   51 1
  21    9   52 1
  22   10   11 ar
  23   10   15 ar
  24   11   12 ar
  25   11   53 1
  26   12   13 ar
  27   12   54 1
  28   13   14 ar
  29   13   16 1
  30   14   15 ar
  31   14   55 1
  32   15   56 1
  33   17   18 2
  34   17   21 1
  35   19   20 1
  36   19   23 1
  37   19   28 1
  38   20   21 2
  39   20   24 1
  40   21   22 1
  41   22   23 2
  42   22   57 1
  43   23   35 1
  44   24   25 1
  45   24   58 1
  46   24   59 1
  47   25   26 1
  48   25   60 1
  49   25   61 1
  50   26   27 1
  51   26   62 1
  52   26   63 1
  53   27   64 1
  54   28   29 ar
  55   28   33 ar
  56   29   30 ar
  57   29   65 1
  58   30   31 ar
  59   30   66 1
  60   31   32 ar
  61   31   34 1
  62   32   33 ar
  63   32   67 1
  64   33   68 1
  65   35   36 ar
  66   35   40 ar
  67   36   37 ar
  68   36   42 1
  69   37   38 ar
  70   37   69 1
  71   38   39 ar
  72   38   41 1
  73   39   40 ar
  74   39   70 1
  75   40   71 1

#	End of record

