#	Name: ASD01840059
#	Creating user name:	WinNT
#	Creation time:	15. 06. 2019 19:37

#	Modifying user name:	WinNT
#	Modification time:	15. 06. 2019 19:37

#	Program:	/corina/corina34_cracker 3.40 0067  02.08.2006

@<TRIPOS>MOLECULE
ASD01840059
  48   51    0    0    0
SMALL
NO_CHARGES


@<TRIPOS>ATOM
   1 C1            -0.0301     1.3324     0.0288 C.ar    
   2 N2             0.2676     0.4979     1.0137 N.ar    
   3 C3             1.4070    -0.1702     1.0232 C.ar    
   4 N4             2.2985    -0.0460     0.0675 N.ar    
   5 C5             0.8985     1.5041    -1.0296 C.ar    
   6 C6             0.8315     2.3383    -2.2147 C.2     
   7 C7             2.0883     0.7733    -0.9705 C.ar    
   8 S8             3.0775     1.1420    -2.3757 S.3     
   9 C9             1.8829     2.2596    -3.0071 C.2     
  10 C10           -0.3483     3.2259    -2.5170 C.3     
  11 C11            2.0378     3.0320    -4.2918 C.3     
  12 N12           -1.2297     2.0210     0.0296 N.3     
  13 C13           -2.3659     1.0989    -0.0940 C.3     
  14 C14           -3.6619     1.9003    -0.2359 C.3     
  15 C15           -3.8392     2.7964     0.9929 C.3     
  16 C16           -2.6203     3.7133     1.1264 C.3     
  17 C17           -1.3544     2.8594     1.2288 C.3     
  18 C18           -5.0828     3.6321     0.8315 C.2     
  19 O19           -5.4054     4.0335    -0.2665 O.2     
  20 N20           -5.8365     3.9335     1.9074 N.am    
  21 C21           -6.2838     4.6496     4.1501 C.3     
  22 C22           -5.5049     3.6095     3.3068 C.3     
  23 C23           -7.1226     4.6456     1.8804 C.3     
  24 C24           -7.5994     4.7858     3.3414 C.3     
  25 H25            1.6122    -0.8407     1.8446 H       
  26 H26           -0.2287     4.1779    -1.9999 H       
  27 H27           -0.4056     3.4006    -3.5914 H       
  28 H28           -1.2639     2.7410    -2.1783 H       
  29 H29            2.5215     3.9867    -4.0857 H       
  30 H30            2.6483     2.4584    -4.9892 H       
  31 H31            1.0555     3.2094    -4.7298 H       
  32 H32           -2.2294     0.4703    -0.9740 H       
  33 H33           -2.4226     0.4711     0.7952 H       
  34 H34           -3.6115     2.5180    -1.1326 H       
  35 H35           -4.5066     1.2156    -0.3120 H       
  36 H36           -3.9287     2.1772     1.8855 H       
  37 H37           -2.5535     4.3596     0.2512 H       
  38 H38           -2.7208     4.3241     2.0236 H       
  39 H39           -1.4159     2.2234     2.1118 H       
  40 H40           -0.4833     3.5095     1.3095 H       
  41 H41           -6.4784     4.2720     5.1539 H       
  42 H42           -5.7509     5.5997     4.1882 H       
  43 H43           -5.8348     2.5997     3.5508 H       
  44 H44           -4.4328     3.7104     3.4758 H       
  45 H45           -6.9905     5.6326     1.4372 H       
  46 H46           -7.8511     4.0734     1.3060 H       
  47 H47           -8.2949     3.9871     3.5992 H       
  48 H48           -8.0541     5.7626     3.5062 H       
@<TRIPOS>BOND
   1    1    2 ar
   2    1    5 ar
   3    1   12 1
   4    2    3 ar
   5    3    4 ar
   6    3   25 1
   7    4    7 ar
   8    5    7 ar
   9    5    6 1
  10    6    9 2
  11    6   10 1
  12    7    8 1
  13    8    9 1
  14    9   11 1
  15   10   26 1
  16   10   27 1
  17   10   28 1
  18   11   29 1
  19   11   30 1
  20   11   31 1
  21   12   13 1
  22   12   17 1
  23   13   14 1
  24   13   32 1
  25   13   33 1
  26   14   15 1
  27   14   34 1
  28   14   35 1
  29   15   16 1
  30   15   18 1
  31   15   36 1
  32   16   17 1
  33   16   37 1
  34   16   38 1
  35   17   39 1
  36   17   40 1
  37   18   19 2
  38   18   20 am
  39   20   23 1
  40   20   22 1
  41   21   22 1
  42   21   24 1
  43   21   41 1
  44   21   42 1
  45   22   43 1
  46   22   44 1
  47   23   24 1
  48   23   45 1
  49   23   46 1
  50   24   47 1
  51   24   48 1

#	End of record

