#	Name: ASD04882514
#	Creating user name:	WinNT
#	Creation time:	15. 06. 2019 20:54

#	Modifying user name:	WinNT
#	Modification time:	15. 06. 2019 20:54

#	Program:	/corina/corina34_cracker 3.40 0067  02.08.2006

@<TRIPOS>MOLECULE
ASD04882514
  84   89    0    0    0
SMALL
NO_CHARGES


@<TRIPOS>ATOM
   1 C1            -0.0215     1.4013    -0.0093 C.ar    
   2 C2            -0.0116     0.0037    -0.0051 C.ar    
   3 C3            -1.2095    -0.7018    -0.0164 C.ar    
   4 C4            -2.4097    -0.0267    -0.0313 C.ar    
   5 C5            -2.4268     1.3709    -0.0352 C.ar    
   6 C6            -1.2240     2.0827    -0.0190 C.ar    
   7 N7             1.1997    -0.6831     0.0100 N.3     
   8 C8             1.3066    -1.5360     1.2019 C.3     
   9 C9             1.3723    -1.4734    -1.2168 C.3     
  10 C10            2.7461    -2.1477    -1.1970 C.3     
  11 N11            2.8531    -3.0006    -0.0051 N.3     
  12 C12            2.6805    -2.2103     1.2218 C.3     
  13 C13           -3.7127     2.0939    -0.0518 C.2     
  14 O14           -3.7266     3.3098    -0.0551 O.2     
  15 N15           -4.8720     1.4067    -0.0632 N.am    
  16 N16            1.1864     2.1110     0.0021 N.am    
  17 C17            4.0582    -3.6839     0.0099 C.ar    
  18 C18            1.2294     3.3599     0.5068 C.2     
  19 C19            2.5098     4.0698     0.5995 C.2     
  20 O20            0.2060     3.8988     0.8856 O.2     
  21 O21            2.7077     5.3193     1.0805 O.3     
  22 C22            4.0140     5.5875     0.9889 C.2     
  23 N23            4.6280     4.5569     0.4724 N.2     
  24 C24            3.7320     3.5964     0.2233 C.2     
  25 C25            4.6734     6.8742     1.4140 C.3     
  26 C26            5.7511     6.7916     2.4969 C.3     
  27 C27            6.1453     7.0693     1.0449 C.3     
  28 C28           -6.1490     2.1246    -0.0796 C.3     
  29 C29           -7.3004     1.1171    -0.0901 C.3     
  30 C30           -8.6340     1.8669    -0.1073 C.3     
  31 N31           -9.7365     0.9022    -0.1173 N.am    
  32 C32          -10.3735     0.3601     1.0886 C.3     
  33 C33          -10.2984     0.4042    -1.2323 C.2     
  34 C34          -11.3982    -0.5694    -0.8703 C.3     
  35 C35          -11.1409    -0.8961     0.6201 C.3     
  36 O36           -9.9717     0.6939    -2.3638 O.2     
  37 N37            4.9389    -3.5218    -0.9729 N.ar    
  38 C38            6.0863    -4.1698    -0.9615 C.ar    
  39 N39            6.4076    -4.9969     0.0126 N.ar    
  40 C40            5.5817    -5.2108     1.0274 C.ar    
  41 C41            4.3700    -4.5495     1.0607 C.ar    
  42 C42            7.0578    -3.9594    -2.0942 C.3     
  43 C43            5.9632    -6.1597     2.1342 C.3     
  44 C44            7.9946    -2.7987    -1.7536 C.3     
  45 H45           -1.1987    -1.7817    -0.0138 H       
  46 H46           -3.3386    -0.5776    -0.0404 H       
  47 H47           -1.2341     3.1626    -0.0216 H       
  48 H48            1.1880    -0.9260     2.0975 H       
  49 H49            0.5278    -2.2981     1.1748 H       
  50 H50            0.5943    -2.2348    -1.2714 H       
  51 H51            1.3015    -0.8178    -2.0847 H       
  52 H52            2.8648    -2.7576    -2.0925 H       
  53 H53            3.5249    -1.3856    -1.1699 H       
  54 H54            3.4585    -1.4489     1.2764 H       
  55 H55            2.7513    -2.8659     2.0897 H       
  56 H56           -4.8610     0.4368    -0.0605 H       
  57 H57            1.9917     1.7034    -0.3533 H       
  58 H58            3.9375     2.6259    -0.2036 H       
  59 H59            4.0318     7.7554     1.4087 H       
  60 H60            5.8187     7.6186     3.2038 H       
  61 H61            5.9831     5.8066     2.9019 H       
  62 H62            6.6368     6.2669     0.4946 H       
  63 H63            6.4724     8.0789     0.7965 H       
  64 H64           -6.2240     2.7529     0.8079 H       
  65 H65           -6.2037     2.7482    -0.9719 H       
  66 H66           -7.2253     0.4888    -0.9776 H       
  67 H67           -7.2456     0.4935     0.8022 H       
  68 H68           -8.7090     2.4952     0.7802 H       
  69 H69           -8.6887     2.4905    -0.9996 H       
  70 H70           -9.6171     0.0875     1.8246 H       
  71 H71          -11.0653     1.0894     1.5100 H       
  72 H72          -12.3759    -0.1033    -0.9927 H       
  73 H73          -11.3254    -1.4707    -1.4791 H       
  74 H74          -10.5258    -1.7901     0.7230 H       
  75 H75          -12.0796    -1.0056     1.1632 H       
  76 H76            3.6774    -4.7037     1.8749 H       
  77 H77            7.6430    -4.8667    -2.2442 H       
  78 H78            6.5078    -3.7269    -3.0061 H       
  79 H79            6.4883    -5.6125     2.9171 H       
  80 H80            5.0637    -6.6142     2.5493 H       
  81 H81            6.6136    -6.9389     1.7366 H       
  82 H82            7.4094    -1.8914    -1.6036 H       
  83 H83            8.5446    -3.0312    -0.8417 H       
  84 H84            8.6973    -2.6466    -2.5729 H       
@<TRIPOS>BOND
   1    1    2 ar
   2    1   16 1
   3    1    6 ar
   4    2    3 ar
   5    2    7 1
   6    3    4 ar
   7    3   45 1
   8    4    5 ar
   9    4   46 1
  10    5    6 ar
  11    5   13 1
  12    6   47 1
  13    7    8 1
  14    7    9 1
  15    8   12 1
  16    8   48 1
  17    8   49 1
  18    9   10 1
  19    9   50 1
  20    9   51 1
  21   10   11 1
  22   10   52 1
  23   10   53 1
  24   11   12 1
  25   11   17 1
  26   12   54 1
  27   12   55 1
  28   13   14 2
  29   13   15 am
  30   15   28 1
  31   15   56 1
  32   16   18 am
  33   16   57 1
  34   17   37 ar
  35   17   41 ar
  36   18   19 1
  37   18   20 2
  38   19   21 1
  39   19   24 2
  40   21   22 1
  41   22   23 2
  42   22   25 1
  43   23   24 1
  44   24   58 1
  45   25   26 1
  46   25   27 1
  47   25   59 1
  48   26   27 1
  49   26   60 1
  50   26   61 1
  51   27   62 1
  52   27   63 1
  53   28   29 1
  54   28   64 1
  55   28   65 1
  56   29   30 1
  57   29   66 1
  58   29   67 1
  59   30   31 1
  60   30   68 1
  61   30   69 1
  62   31   32 1
  63   31   33 am
  64   32   35 1
  65   32   70 1
  66   32   71 1
  67   33   34 1
  68   33   36 2
  69   34   35 1
  70   34   72 1
  71   34   73 1
  72   35   74 1
  73   35   75 1
  74   37   38 ar
  75   38   39 ar
  76   38   42 1
  77   39   40 ar
  78   40   41 ar
  79   40   43 1
  80   41   76 1
  81   42   44 1
  82   42   77 1
  83   42   78 1
  84   43   79 1
  85   43   80 1
  86   43   81 1
  87   44   82 1
  88   44   83 1
  89   44   84 1

#	End of record

