#	Name: ASD01814515
#	Creating user name:	WinNT
#	Creation time:	15. 06. 2019 19:32

#	Modifying user name:	WinNT
#	Modification time:	15. 06. 2019 19:32

#	Program:	/corina/corina34_cracker 3.40 0067  02.08.2006

@<TRIPOS>MOLECULE
ASD01814515
  58   60    0    0    0
SMALL
NO_CHARGES


@<TRIPOS>ATOM
   1 C1            -0.0655     1.2797     0.0716 C.ar    
   2 C2             0.0639    -0.0974     0.0497 C.ar    
   3 C3             1.3169    -0.6797    -0.0270 C.ar    
   4 C4             2.4458     0.1109    -0.0825 C.ar    
   5 C5             2.3223     1.5012    -0.0612 C.ar    
   6 C6             1.0558     2.0820     0.0167 C.ar    
   7 C7             3.5281     2.3547    -0.1199 C.2     
   8 N8             4.7531     1.7948    -0.0705 N.am    
   9 O9             3.4147     3.5613    -0.2128 O.2     
  10 C10            5.9479     2.6405    -0.1287 C.3     
  11 C11            7.1178     1.9190     0.5443 C.3     
  12 N12            8.3210     2.7574     0.4676 N.3     
  13 C13            8.7083     3.0040    -0.9272 C.3     
  14 C14            7.5859     3.7579    -1.6441 C.3     
  15 C15            6.3027     2.9242    -1.5909 C.3     
  16 C16            9.4290     2.1586     1.2237 C.3     
  17 C17           10.6956     2.9928     1.0187 C.3     
  18 C18           11.8568     2.3462     1.7804 C.3     
  19 N19           11.4653     2.1792     3.1867 N.am    
  20 C20           10.2152     1.4703     3.4925 C.3     
  21 C21            9.0724     2.1267     2.7116 C.3     
  22 C22           12.2383     2.6666     4.1773 C.2     
  23 O23           13.2701     3.2507     3.9113 O.2     
  24 O24           11.8673     2.5064     5.4616 O.3     
  25 C25           12.1657     2.7792     7.8630 C.3     
  26 C26           12.7483     3.0572     6.4758 C.3     
  27 C27            0.9129     3.5820     0.0397 C.3     
  28 H28           -1.0465     1.7280     0.1274 H       
  29 H29           -0.8169    -0.7209     0.0929 H       
  30 H30            1.4110    -1.7554    -0.0430 H       
  31 H31            3.4232    -0.3448    -0.1420 H       
  32 H32            4.8436     0.8318     0.0036 H       
  33 H33            5.7541     3.5803     0.3883 H       
  34 H34            6.8741     1.7282     1.5894 H       
  35 H35            7.3017     0.9726     0.0358 H       
  36 H36            9.6198     3.6014    -0.9508 H       
  37 H37            8.8848     2.0525    -1.4288 H       
  38 H38            7.4183     4.7156    -1.1514 H       
  39 H39            7.8672     3.9271    -2.6835 H       
  40 H40            6.4581     1.9825    -2.1174 H       
  41 H41            5.4898     3.4764    -2.0625 H       
  42 H42            9.6024     1.1422     0.8701 H       
  43 H43           10.9358     3.0345    -0.0437 H       
  44 H44           10.5311     4.0025     1.3949 H       
  45 H45           12.0818     1.3723     1.3457 H       
  46 H46           12.7360     2.9877     1.7196 H       
  47 H47           10.3063     0.4250     3.1974 H       
  48 H48           10.0112     1.5339     4.5614 H       
  49 H49            8.9232     3.1446     3.0719 H       
  50 H50            8.1572     1.5520     2.8541 H       
  51 H51           11.1830     3.2438     7.9441 H       
  52 H52           12.0719     1.7030     8.0087 H       
  53 H53           12.8270     3.1926     8.6244 H       
  54 H54           13.7310     2.5925     6.3947 H       
  55 H55           12.8421     4.1333     6.3302 H       
  56 H56            0.9410     3.9654    -0.9803 H       
  57 H57           -0.0371     3.8495     0.5024 H       
  58 H58            1.7316     4.0162     0.6137 H       
@<TRIPOS>BOND
   1    1    2 ar
   2    1    6 ar
   3    1   28 1
   4    2    3 ar
   5    2   29 1
   6    3    4 ar
   7    3   30 1
   8    4    5 ar
   9    4   31 1
  10    5    6 ar
  11    5    7 1
  12    6   27 1
  13    7    8 am
  14    7    9 2
  15    8   10 1
  16    8   32 1
  17   10   11 1
  18   10   15 1
  19   10   33 1
  20   11   12 1
  21   11   34 1
  22   11   35 1
  23   12   13 1
  24   12   16 1
  25   13   14 1
  26   13   36 1
  27   13   37 1
  28   14   15 1
  29   14   38 1
  30   14   39 1
  31   15   40 1
  32   15   41 1
  33   16   17 1
  34   16   21 1
  35   16   42 1
  36   17   18 1
  37   17   43 1
  38   17   44 1
  39   18   19 1
  40   18   45 1
  41   18   46 1
  42   19   20 1
  43   19   22 am
  44   20   21 1
  45   20   47 1
  46   20   48 1
  47   21   49 1
  48   21   50 1
  49   22   23 2
  50   22   24 1
  51   24   26 1
  52   25   26 1
  53   25   51 1
  54   25   52 1
  55   25   53 1
  56   26   54 1
  57   26   55 1
  58   27   56 1
  59   27   57 1
  60   27   58 1

#	End of record

