#	Name: ASD01940210
#	Creating user name:	WinNT
#	Creation time:	15. 06. 2019 20:12

#	Modifying user name:	WinNT
#	Modification time:	15. 06. 2019 20:12

#	Program:	/corina/corina34_cracker 3.40 0067  02.08.2006

@<TRIPOS>MOLECULE
ASD01940210
  52   53    0    0    0
SMALL
NO_CHARGES


@<TRIPOS>ATOM
   1 C1            -0.7808     0.4297     1.0959 C.ar    
   2 C2            -0.1603    -0.1217    -0.0116 C.ar    
   3 C3            -0.5939     0.2035    -1.2859 C.ar    
   4 C4            -1.6509     1.0822    -1.4578 C.ar    
   5 C5            -2.2778     1.6390    -0.3503 C.ar    
   6 C6            -1.8446     1.3068     0.9313 C.ar    
   7 N7            -2.4744     1.8664     2.0534 N.am    
   8 S8            -1.9019     1.5406     3.5727 S.o2    
   9 O9            -0.5048     1.7828     3.4801 O.2     
  10 O10           -2.7249     2.3180     4.4315 O.2     
  11 F11            0.0154    -0.3371    -2.3638 F       
  12 F12           -2.0716     1.3980    -2.7022 F       
  13 N13           -3.3475     2.5284    -0.5219 N.pl3   
  14 C14           -4.6634     2.0619    -0.4475 C.ar    
  15 C15           -5.7233     2.9143    -0.7413 C.ar    
  16 C16           -4.9156     0.7455    -0.0859 C.ar    
  17 C17           -6.2173     0.2874    -0.0132 C.ar    
  18 C18           -7.2688     1.1375    -0.3005 C.ar    
  19 C19           -7.0227     2.4487    -0.6664 C.ar    
  20 F20           -5.4829     4.1947    -1.0987 F       
  21 F21           -0.3550     0.1101     2.3376 F       
  22 C22           -8.6866     0.6330    -0.2203 C.3     
  23 C23           -2.2269    -0.2283     3.8092 C.3     
  24 C24           -1.7995    -0.6414     5.2190 C.3     
  25 C25           -3.7217    -0.5008     3.6290 C.3     
  26 C26           -0.2838    -0.4862     5.3584 C.3     
  27 C27            0.1436    -0.8993     6.7682 C.3     
  28 O28           -0.1124    -2.2928     6.9545 O.3     
  29 C29            1.6384    -0.6268     6.9483 C.3     
  30 O30            2.0134    -0.9028     8.2993 O.3     
  31 H31            0.6643    -0.8069     0.1184 H       
  32 H32           -3.2452     2.4441     1.9391 H       
  33 H33           -3.1748     3.4676    -0.6922 H       
  34 H34           -4.0951     0.0799     0.1382 H       
  35 H35           -6.4134    -0.7367     0.2681 H       
  36 H36           -7.8466     3.1101    -0.8902 H       
  37 H37           -9.0721     0.7911     0.7869 H       
  38 H38           -9.3059     1.1743    -0.9355 H       
  39 H39           -8.7073    -0.4314    -0.4543 H       
  40 H40           -1.6619    -0.8029     3.0752 H       
  41 H41           -2.2986    -0.0062     5.9507 H       
  42 H42           -2.0757    -1.6815     5.3923 H       
  43 H43           -3.9056    -1.5733     3.6916 H       
  44 H44           -4.2811     0.0102     4.4127 H       
  45 H45           -4.0431    -0.1332     2.6545 H       
  46 H46            0.2153    -1.1214     4.6266 H       
  47 H47           -0.0076     0.5539     5.1851 H       
  48 H48           -0.4214    -0.3247     7.5022 H       
  49 H49            0.3588    -2.8656     6.3341 H       
  50 H50            2.2081    -1.2672     6.2750 H       
  51 H51            1.8474     0.4182     6.7195 H       
  52 H52            2.9501    -0.7516     8.4862 H       
@<TRIPOS>BOND
   1    1    2 ar
   2    1   21 1
   3    1    6 ar
   4    2    3 ar
   5    2   31 1
   6    3    4 ar
   7    3   11 1
   8    4    5 ar
   9    4   12 1
  10    5    6 ar
  11    5   13 1
  12    6    7 1
  13    7    8 am
  14    7   32 1
  15    8    9 2
  16    8   10 2
  17    8   23 1
  18   13   14 1
  19   13   33 1
  20   14   15 ar
  21   14   16 ar
  22   15   20 1
  23   15   19 ar
  24   16   17 ar
  25   16   34 1
  26   17   18 ar
  27   17   35 1
  28   18   19 ar
  29   18   22 1
  30   19   36 1
  31   22   37 1
  32   22   38 1
  33   22   39 1
  34   23   24 1
  35   23   25 1
  36   23   40 1
  37   24   26 1
  38   24   41 1
  39   24   42 1
  40   25   43 1
  41   25   44 1
  42   25   45 1
  43   26   27 1
  44   26   46 1
  45   26   47 1
  46   27   28 1
  47   27   29 1
  48   27   48 1
  49   28   49 1
  50   29   30 1
  51   29   50 1
  52   29   51 1
  53   30   52 1

#	End of record

