#	Name: ASD04880341
#	Creating user name:	WinNT
#	Creation time:	15. 06. 2019 20:53

#	Modifying user name:	WinNT
#	Modification time:	15. 06. 2019 20:53

#	Program:	/corina/corina34_cracker 3.40 0067  02.08.2006

@<TRIPOS>MOLECULE
ASD04880341
  47   49    0    0    0
SMALL
NO_CHARGES


@<TRIPOS>ATOM
   1 C1            -0.0212     1.4556     0.2759 C.ar    
   2 C2             1.1688     2.1604     0.2796 C.ar    
   3 C3             2.3734     1.4875     0.2745 C.ar    
   4 C4             2.3908     0.0918     0.2659 C.ar    
   5 C5             1.1873    -0.6155     0.2626 C.ar    
   6 C6            -0.0124     0.0697     0.2674 C.ar    
   7 C7             3.6781    -0.6342     0.2599 C.2     
   8 O8             3.6946    -1.8437     0.3837 O.2     
   9 N9             4.8338     0.0444     0.1172 N.am    
  10 C10            6.1835    -0.5347     0.2098 C.3     
  11 N11            4.9457     1.4077    -0.1480 N.2     
  12 C12            6.1603     1.8278    -0.2416 C.2     
  13 C13            7.1121     0.6721    -0.0304 C.3     
  14 C14            6.5602     3.2200    -0.5154 C.ar    
  15 C15            5.5865     4.2058    -0.6960 C.ar    
  16 C16            7.9139     3.5583    -0.5891 C.ar    
  17 C17            8.2858     4.8612    -0.8448 C.ar    
  18 C18            7.3187     5.8388    -1.0289 C.ar    
  19 C19            5.9671     5.5098    -0.9520 C.ar    
  20 F20           -1.1787    -0.6122     0.2642 F       
  21 O21            7.6909     7.1218    -1.2803 O.3     
  22 O22            5.0220     6.4708    -1.1330 O.3     
  23 C23            3.6600     6.0408    -1.1790 C.3     
  24 C24            9.0931     7.3906    -1.3408 C.3     
  25 C25            3.0475     6.1368     0.2197 C.3     
  26 C26            2.8754     6.9342    -2.1418 C.3     
  27 H27           -0.9611     1.9874     0.2841 H       
  28 H28            1.1552     3.2403     0.2863 H       
  29 H29            3.3015     2.0399     0.2767 H       
  30 H30            1.1940    -1.6955     0.2556 H       
  31 H31            6.3523    -0.9574     1.2002 H       
  32 H32            6.3301    -1.2910    -0.5613 H       
  33 H33            7.7421     0.8500     0.8411 H       
  34 H34            7.7231     0.5127    -0.9189 H       
  35 H35            4.5391     3.9495    -0.6362 H       
  36 H36            8.6689     2.7994    -0.4455 H       
  37 H37            9.3324     5.1215    -0.9016 H       
  38 H38            3.6166     5.0080    -1.5246 H       
  39 H39            9.5434     6.7942    -2.1343 H       
  40 H40            9.2516     8.4490    -1.5473 H       
  41 H41            9.5538     7.1335    -0.3870 H       
  42 H42            2.0086     5.8088     0.1847 H       
  43 H43            3.6065     5.5003     0.9056 H       
  44 H44            3.0909     7.1696     0.5653 H       
  45 H45            3.3118     6.8659    -3.1383 H       
  46 H46            1.8365     6.6062    -2.1769 H       
  47 H47            2.9189     7.9671    -1.7962 H       
@<TRIPOS>BOND
   1    1    2 ar
   2    1    6 ar
   3    1   27 1
   4    2    3 ar
   5    2   28 1
   6    3    4 ar
   7    3   29 1
   8    4    5 ar
   9    4    7 1
  10    5    6 ar
  11    5   30 1
  12    6   20 1
  13    7    8 2
  14    7    9 am
  15    9   10 1
  16    9   11 1
  17   10   13 1
  18   10   31 1
  19   10   32 1
  20   11   12 2
  21   12   13 1
  22   12   14 1
  23   13   33 1
  24   13   34 1
  25   14   15 ar
  26   14   16 ar
  27   15   19 ar
  28   15   35 1
  29   16   17 ar
  30   16   36 1
  31   17   18 ar
  32   17   37 1
  33   18   19 ar
  34   18   21 1
  35   19   22 1
  36   21   24 1
  37   22   23 1
  38   23   25 1
  39   23   26 1
  40   23   38 1
  41   24   39 1
  42   24   40 1
  43   24   41 1
  44   25   42 1
  45   25   43 1
  46   25   44 1
  47   26   45 1
  48   26   46 1
  49   26   47 1

#	End of record

