#	Name: ASD05250048
#	Creating user name:	WinNT
#	Creation time:	15. 06. 2019 20:58

#	Modifying user name:	WinNT
#	Modification time:	15. 06. 2019 20:58

#	Program:	/corina/corina34_cracker 3.40 0067  02.08.2006

@<TRIPOS>MOLECULE
ASD05250048
  54   57    0    0    0
SMALL
NO_CHARGES


@<TRIPOS>ATOM
   1 C1             1.4885     2.2233     3.3889 C.ar    
   2 C2             1.1971     0.8775     3.2818 C.ar    
   3 C3             2.0733     0.0137     2.6387 C.ar    
   4 C4             3.2506     0.5103     2.1126 C.ar    
   5 C5             3.5379     1.8931     2.1721 C.ar    
   6 C6             2.6523     2.7438     2.8365 C.ar    
   7 C7             4.2875    -0.3496     1.4793 C.2     
   8 C8             4.9049     0.2205     0.2273 C.3     
   9 C9             5.4592     1.5894     0.5781 C.2     
  10 C10            4.7484     2.4008     1.5022 C.2     
  11 C11            5.8463    -0.6925    -0.5322 C.3     
  12 C12            7.3179    -0.2447    -0.4787 C.3     
  13 C13            7.3432     1.2045    -1.0053 C.3     
  14 C14            6.5960     2.0336     0.0096 C.2     
  15 C15            8.1109    -1.1387    -1.4324 C.3     
  16 C16            9.4576    -0.5814    -1.8053 C.2     
  17 C17            9.7822     0.7337    -1.5875 C.2     
  18 C18            8.7940     1.6302    -0.9749 C.2     
  19 O19            2.9128     4.0707     2.9483 O.3     
  20 O20            5.1332     3.5279     1.7552 O.2     
  21 O21            7.0566     3.2598     0.3440 O.3     
  22 O22            6.7790     1.3140    -2.3157 O.3     
  23 O23            9.1656     2.6686    -0.4776 O.2     
  24 N24            8.3386    -2.4443    -0.7904 N.3     
  25 C25            8.7462    -3.4526    -1.7779 C.3     
  26 C26            9.3286    -2.3345     0.2893 C.3     
  27 C27           11.1082     1.2477    -1.9611 C.2     
  28 O28           11.9498     1.4394    -1.1040 O.2     
  29 N29           11.3912     1.5065    -3.2532 N.am    
  30 O30           10.3652    -1.3968    -2.3665 O.3     
  31 C31            4.6320    -1.4826     2.0611 C.2     
  32 O32            5.7249    -2.0590    -0.1920 O.3     
  33 Cl33           1.6632    -1.6674     2.4986 Cl      
  34 H34            0.8028     2.8805     3.9039 H       
  35 H35            0.2804     0.4897     3.6998 H       
  36 H36            4.0620     0.4258    -0.4486 H       
  37 H37            5.5544    -0.6212    -1.6038 H       
  38 H38            7.7055    -0.2999     0.5329 H       
  39 H39            7.5318    -1.2945    -2.3411 H       
  40 H40            2.5611     4.6032     2.2218 H       
  41 H41            6.7952     3.9971    -0.2245 H       
  42 H42            6.7819     2.2132    -2.6713 H       
  43 H43            9.7379    -3.2082    -2.1585 H       
  44 H44            8.7700    -4.4347    -1.3057 H       
  45 H45            8.0330    -3.4629    -2.6022 H       
  46 H46            9.0021    -1.5813     1.0064 H       
  47 H47            9.4260    -3.2967     0.7921 H       
  48 H48           10.2921    -2.0441    -0.1294 H       
  49 H49           10.6979     1.4266    -3.9269 H       
  50 H50           12.2881     1.7726    -3.5094 H       
  51 H51           11.2443    -1.0287    -2.5303 H       
  52 H52            4.0880    -1.8327     2.9260 H       
  53 H53            5.4578    -2.0600     1.6725 H       
  54 H54            4.8459    -2.4281    -0.3539 H       
@<TRIPOS>BOND
   1    1    2 ar
   2    1    6 ar
   3    1   34 1
   4    2    3 ar
   5    2   35 1
   6    3    4 ar
   7    3   33 1
   8    4    5 ar
   9    4    7 1
  10    5    6 ar
  11    5   10 1
  12    6   19 1
  13    7    8 1
  14    7   31 2
  15    8    9 1
  16    8   11 1
  17    8   36 1
  18    9   10 1
  19    9   14 2
  20   10   20 2
  21   11   12 1
  22   11   32 1
  23   11   37 1
  24   12   13 1
  25   12   15 1
  26   12   38 1
  27   13   14 1
  28   13   22 1
  29   13   18 1
  30   14   21 1
  31   15   16 1
  32   15   24 1
  33   15   39 1
  34   16   17 2
  35   16   30 1
  36   17   18 1
  37   17   27 1
  38   18   23 2
  39   19   40 1
  40   21   41 1
  41   22   42 1
  42   24   25 1
  43   24   26 1
  44   25   43 1
  45   25   44 1
  46   25   45 1
  47   26   46 1
  48   26   47 1
  49   26   48 1
  50   27   28 2
  51   27   29 am
  52   29   49 1
  53   29   50 1
  54   30   51 1
  55   31   52 1
  56   31   53 1
  57   32   54 1

#	End of record

