#	Name: ASD03331637
#	Creating user name:	WinNT
#	Creation time:	15. 06. 2019 20:39

#	Modifying user name:	WinNT
#	Modification time:	15. 06. 2019 20:39

#	Program:	/corina/corina34_cracker 3.40 0067  02.08.2006

@<TRIPOS>MOLECULE
ASD03331637
  64   68    0    0    0
SMALL
NO_CHARGES


@<TRIPOS>ATOM
   1 C1            -0.0243     1.3761     0.0188 C.ar    
   2 C2            -0.0148     0.0109     0.0067 C.ar    
   3 C3             1.1868    -0.6882    -0.0173 C.ar    
   4 C4             2.3887    -0.0170    -0.0298 C.ar    
   5 C5             1.1863     2.0814     0.0064 C.ar    
   6 C6             1.5083     3.4601     0.0131 C.2     
   7 C7             2.4046     1.3751    -0.0183 C.ar    
   8 N8             3.4183     2.3044    -0.0258 N.pl3   
   9 C9             2.8625     3.5690    -0.0069 C.2     
  10 C10            0.5253     4.6021     0.0375 C.3     
  11 Cl11          -1.5165    -0.8600     0.0220 Cl      
  12 C12            3.6163     4.8316    -0.0083 C.2     
  13 N13            4.9611     4.8137     0.0802 N.am    
  14 O14            3.0262     5.8923    -0.0893 O.2     
  15 C15            5.7121     6.0716     0.0788 C.3     
  16 C16            7.2085     5.7723     0.1885 C.3     
  17 C17            7.9810     7.0662     0.1870 C.ar    
  18 C18            9.1159     8.7992    -1.0140 C.ar    
  19 C19            8.4078     7.6135    -1.0090 C.ar    
  20 C20            8.2566     7.7064     1.3814 C.ar    
  21 C21            8.9640     8.8926     1.3836 C.ar    
  22 C22            9.3990     9.4422     0.1844 C.ar    
  23 N23           10.1151    10.6415     0.1830 N.3     
  24 C24            9.4612    11.6439    -0.6679 C.3     
  25 C25           10.3007    11.1450     1.5499 C.3     
  26 C26           11.2094    12.3762     1.5223 C.3     
  27 C27           10.5718    13.4555     0.6430 C.3     
  28 C28           10.3447    12.8899    -0.7617 C.3     
  29 C29           -1.6488     5.3346    -0.7333 C.3     
  30 C30           -0.4005     4.5471    -1.2031 C.3     
  31 C31           -0.4374     4.4604     1.2345 C.3     
  32 C32           -1.8197     4.9261     0.7445 C.3     
  33 H33           -0.9624     1.9109     0.0332 H       
  34 H34            1.1772    -1.7681    -0.0259 H       
  35 H35            3.3169    -0.5689    -0.0480 H       
  36 H36            4.3674     2.1049    -0.0418 H       
  37 H37            1.0510     5.5559     0.0816 H       
  38 H38            5.4316     3.9680     0.1448 H       
  39 H39            5.5163     6.6106    -0.8482 H       
  40 H40            5.4005     6.6817     0.9266 H       
  41 H41            7.4042     5.2333     1.1155 H       
  42 H42            7.5201     5.1621    -0.6593 H       
  43 H43            9.4486     9.2263    -1.9485 H       
  44 H44            8.1873     7.1130    -1.9403 H       
  45 H45            7.9181     7.2785     2.3134 H       
  46 H46            9.1783     9.3924     2.3167 H       
  47 H47            9.3093    11.2304    -1.6650 H       
  48 H48            8.4974    11.9137    -0.2362 H       
  49 H49            9.3330    11.4172     1.9712 H       
  50 H50           10.7587    10.3694     2.1636 H       
  51 H51           11.3343    12.7590     2.5352 H       
  52 H52           12.1819    12.1016     1.1139 H       
  53 H53            9.6168    13.7581     1.0726 H       
  54 H54           11.2360    14.3178     0.5855 H       
  55 H55           11.3037    12.6234    -1.2061 H       
  56 H56            9.8520    13.6397    -1.3806 H       
  57 H57           -1.4759     6.4077    -0.8149 H       
  58 H58           -2.5243     5.0431    -1.3133 H       
  59 H59            0.0674     5.0380    -2.0564 H       
  60 H60           -0.6620     3.5168    -1.4445 H       
  61 H61           -0.4856     3.4193     1.5536 H       
  62 H62           -0.1024     5.0891     2.0595 H       
  63 H63           -2.1556     5.7808     1.3317 H       
  64 H64           -2.5388     4.1110     0.8258 H       
@<TRIPOS>BOND
   1    1    2 ar
   2    1    5 ar
   3    1   33 1
   4    2    3 ar
   5    2   11 1
   6    3    4 ar
   7    3   34 1
   8    4    7 ar
   9    4   35 1
  10    5    7 ar
  11    5    6 1
  12    6    9 2
  13    6   10 1
  14    7    8 1
  15    8    9 1
  16    8   36 1
  17    9   12 1
  18   10   31 1
  19   10   30 1
  20   10   37 1
  21   12   13 am
  22   12   14 2
  23   13   15 1
  24   13   38 1
  25   15   16 1
  26   15   39 1
  27   15   40 1
  28   16   17 1
  29   16   41 1
  30   16   42 1
  31   17   20 ar
  32   17   19 ar
  33   18   19 ar
  34   18   22 ar
  35   18   43 1
  36   19   44 1
  37   20   21 ar
  38   20   45 1
  39   21   22 ar
  40   21   46 1
  41   22   23 1
  42   23   25 1
  43   23   24 1
  44   24   28 1
  45   24   47 1
  46   24   48 1
  47   25   26 1
  48   25   49 1
  49   25   50 1
  50   26   27 1
  51   26   51 1
  52   26   52 1
  53   27   28 1
  54   27   53 1
  55   27   54 1
  56   28   55 1
  57   28   56 1
  58   29   30 1
  59   29   32 1
  60   29   57 1
  61   29   58 1
  62   30   59 1
  63   30   60 1
  64   31   32 1
  65   31   61 1
  66   31   62 1
  67   32   63 1
  68   32   64 1

#	End of record

