#	Name: ASD06590086
#	Creating user name:	WinNT
#	Creation time:	15. 06. 2019 21:06

#	Modifying user name:	WinNT
#	Modification time:	15. 06. 2019 21:06

#	Program:	/corina/corina34_cracker 3.40 0067  02.08.2006

@<TRIPOS>MOLECULE
ASD06590086
 262  262    0    0    0
SMALL
NO_CHARGES


@<TRIPOS>ATOM
   1 C1           -20.6914     1.6971     8.6062 C.2     
   2 O2           -20.5539     2.1109     7.4745 O.2     
   3 N3           -18.5837     2.7900     9.1239 N.3     
   4 C4           -19.7984     2.2059     9.7083 C.3     
   5 C5           -20.5408     3.2736    10.5143 C.3     
   6 C6           -19.5942     3.8786    11.5529 C.3     
   7 O7           -21.0011     4.3008     9.6338 O.3     
   8 C8           -23.7779     1.3037     7.8407 C.2     
   9 O9           -23.8325     2.2153     8.6388 O.2     
  10 N10          -21.6465     0.7862     8.8792 N.am    
  11 C11          -22.5891     0.3776     7.8348 C.3     
  12 C12          -23.0569    -1.0544     8.1018 C.3     
  13 C13          -21.8876    -1.9967     7.9748 C.2     
  14 O14          -20.7734    -1.5581     7.7824 O.2     
  15 N15          -22.0802    -3.3269     8.0750 N.am    
  16 C16          -27.1304     1.3075     6.3833 C.2     
  17 O17          -27.0263     0.1610     6.0016 O.2     
  18 N18          -24.7805     1.1190     6.9591 N.am    
  19 C19          -25.9362     2.0193     6.9649 C.3     
  20 C20          -25.6217     3.2583     6.1242 C.3     
  21 C21          -30.6637     2.1790     5.7279 C.2     
  22 O22          -30.5523     3.3061     6.1617 O.2     
  23 N23          -28.3140     1.9449     6.2874 N.am    
  24 C24          -29.4749     1.2529     5.7220 C.3     
  25 C25          -34.2758     1.8430     5.2775 C.2     
  26 O26          -34.2205     0.6315     5.2864 O.2     
  27 N27          -31.8508     1.7548     5.2512 N.am    
  28 C28          -33.0065     2.6551     5.2569 C.3     
  29 C29          -32.9796     3.5276     4.0004 C.3     
  30 C30          -31.7538     4.4423     4.0408 C.3     
  31 C31          -31.7268     5.3148     2.7843 C.3     
  32 N32          -30.5531     6.1906     2.8230 N.pl3   
  33 C33          -30.3174     7.0701     1.7929 C.2     
  34 N34          -29.2731     7.8493     1.8273 N.2     
  35 N35          -31.1832     7.1277     0.7264 N.pl3   
  36 C36          -37.8302     2.4828     4.7115 C.2     
  37 O37          -37.6210     3.6082     4.3107 O.2     
  38 N38          -35.4725     2.4631     5.2859 N.am    
  39 C39          -36.7064     1.6736     5.3059 C.3     
  40 C40          -37.0522     1.3042     6.7498 C.3     
  41 O41          -37.3511     2.4915     7.4867 O.3     
  42 C42          -40.8264     3.5982     4.9405 C.2     
  43 O43          -40.4641     3.6174     6.0978 O.2     
  44 N44          -39.0677     1.9560     4.6254 N.am    
  45 C45          -40.1345     2.6984     3.9493 C.3     
  46 C46          -41.1470     1.7139     3.3608 C.3     
  47 C47          -40.4822     0.8909     2.2876 C.2     
  48 O48          -39.2989     1.0149     2.0772 O.2     
  49 O49          -41.2046     0.0202     1.5653 O.3     
  50 C50          -43.9244     5.5364     5.0340 C.2     
  51 O51          -44.2710     5.1951     3.9230 O.2     
  52 N52          -41.8478     4.3815     4.5410 N.am    
  53 C53          -42.5204     5.2562     5.5046 C.3     
  54 C54          -41.7499     6.5727     5.6229 C.3     
  55 C55          -40.3254     6.2885     6.1033 C.3     
  56 O56          -41.7031     7.2135     4.3465 O.3     
  57 C57          -46.7779     7.5331     6.1446 C.2     
  58 O58          -46.0998     8.1722     6.9209 O.2     
  59 N59          -44.7948     6.1664     5.8476 N.am    
  60 C60          -46.1890     6.3421     5.4335 C.3     
  61 C61          -46.9891     5.0879     5.7907 C.3     
  62 C62          -46.4706     3.9025     4.9741 C.3     
  63 C63          -47.2707     2.6482     5.3313 C.3     
  64 N64          -46.7743     1.5131     4.5494 N.pl3   
  65 C65          -47.3444     0.2714     4.7020 C.2     
  66 N66          -48.3266     0.1041     5.5424 N.2     
  67 N67          -46.8785    -0.7938     3.9682 N.pl3   
  68 C68          -50.1273     8.8906     6.6944 C.2     
  69 O69          -50.6629     7.9093     6.2240 O.2     
  70 N70          -48.0582     7.8881     5.9179 N.am    
  71 C71          -48.6307     9.0459     6.6092 C.3     
  72 C72          -48.2937    10.3210     5.8336 C.3     
  73 C73          -46.7803    10.5452     5.8537 C.3     
  74 C74          -46.4484    11.8010     5.0898 C.2     
  75 O75          -47.3349    12.4526     4.5795 O.2     
  76 N76          -45.1663    12.2001     4.9737 N.am    
  77 C77          -52.9653    11.0500     7.4979 C.2     
  78 O78          -52.2742    12.0465     7.5138 O.2     
  79 N79          -50.8705     9.8421     7.2934 N.am    
  80 C80          -52.3253     9.6910     7.3763 C.3     
  81 C81          -52.6816     8.8480     8.6023 C.3     
  82 C82          -56.2663    12.3449     8.3865 C.2     
  83 O83          -56.6617    11.2533     8.7373 O.2     
  84 N84          -54.3057    11.1579     7.5890 N.am    
  85 C85          -54.9278    12.4790     7.7073 C.3     
  86 C86          -55.1212    13.0783     6.3129 C.3     
  87 C87          -53.7755    13.3264     5.6816 C.ar    
  88 C88          -53.1770    12.3385     4.9216 C.ar    
  89 C89          -51.9432    12.5634     4.3423 C.ar    
  90 C90          -51.3049    13.7818     4.5232 C.ar    
  91 O91          -50.0914    14.0055     3.9540 O.3     
  92 C92          -51.9078    14.7715     5.2859 C.ar    
  93 C93          -53.1440    14.5436     5.8588 C.ar    
  94 C94          -59.2105    14.4588     8.8618 C.2     
  95 O95          -58.7954    15.3048     8.0984 O.2     
  96 N96          -57.0241    13.4380     8.6042 N.am    
  97 C97          -58.3253    13.3076     9.2646 C.3     
  98 C98          -58.1307    13.3205    10.7821 C.3     
  99 C99          -57.3364    12.0831    11.2049 C.3     
 100 C100         -57.1418    12.0960    12.7224 C.3     
 101 N101         -56.3813    10.9111    13.1273 N.pl3   
 102 C102         -56.0823    10.7062    14.4535 C.2     
 103 N103         -55.4057     9.6520    14.8137 N.2     
 104 N104         -56.4971    11.6133    15.3997 N.pl3   
 105 C105         -62.3608    15.9015    10.0270 C.2     
 106 O106         -62.3789    15.2025    11.0180 O.2     
 107 N107         -60.4636    14.5482     9.3501 N.am    
 108 C108         -61.3242    15.6673     8.9586 C.3     
 109 C109         -62.0200    15.3373     7.6365 C.3     
 110 C110         -60.9749    15.2223     6.5250 C.3     
 111 C111         -61.6707    14.8924     5.2029 C.3     
 112 C112         -60.6256    14.7773     4.0914 C.3     
 113 N113         -61.2937    14.4605     2.8220 N.3     
 114 C114         -65.4777    17.7516    10.3900 C.2     
 115 O115         -65.4999    18.1506     9.2450 O.2     
 116 N116         -63.2677    16.8878     9.8814 N.am    
 117 C117         -64.2050    17.1871    10.9668 C.3     
 118 C118         -63.5771    18.2104    11.9152 C.3     
 119 C119         -64.4820    18.3980    13.1346 C.3     
 120 C120         -64.4935    17.1123    13.9638 C.3     
 121 C121         -63.9532    19.5515    13.9894 C.3     
 122 C122         -67.9196    19.7673    10.5944 C.2     
 123 O123         -67.0049    20.3998    11.0667 O.2     
 124 N124         -66.5914    17.8129    11.1467 N.am    
 125 C125         -67.8545    18.2622    10.5560 C.3     
 126 C126         -69.0249    17.6806    11.3515 C.3     
 127 C127         -69.0139    16.1552    11.2333 C.3     
 128 C128         -70.0885    15.5650    12.1486 C.3     
 129 C129         -69.3010    15.7539     9.7850 C.3     
 130 O130         -68.9939    20.4053    10.1039 O.3     
 131 H131         -18.0422     2.0894     8.6402 H       
 132 H132         -18.8109     3.5585     8.5108 H       
 133 H133         -19.5248     1.3799    10.3647 H       
 134 H134         -21.3931     2.8198    11.0201 H       
 135 H135         -18.7420     4.3324    11.0471 H       
 136 H136         -20.1232     4.6393    12.1272 H       
 137 H137         -19.2431     3.0951    12.2245 H       
 138 H138         -21.4819     5.0129    10.0776 H       
 139 H139         -21.7099     0.4012     9.7673 H       
 140 H140         -22.0972     0.4240     6.8631 H       
 141 H141         -23.4689    -1.1203     9.1088 H       
 142 H142         -23.8238    -1.3273     7.3769 H       
 143 H143         -22.9713    -3.6777     8.2288 H       
 144 H144         -21.3276    -3.9334     7.9932 H       
 145 H145         -24.7368     0.3899     6.3208 H       
 146 H146         -26.1564     2.3213     7.9888 H       
 147 H147         -24.7579     3.7731     6.5448 H       
 148 H148         -25.4015     2.9563     5.1002 H       
 149 H149         -26.4815     3.9281     6.1285 H       
 150 H150         -28.3972     2.8618     6.5927 H       
 151 H151         -29.6990     0.3702     6.3209 H       
 152 H152         -29.2547     0.9509     4.6981 H       
 153 H153         -31.9400     0.8534     4.9042 H       
 154 H154         -32.9675     3.2907     6.1416 H       
 155 H155         -32.9290     2.8910     3.1170 H       
 156 H156         -33.8843     4.1342     3.9598 H       
 157 H157         -31.8044     5.0789     4.9242 H       
 158 H158         -30.8490     3.8357     4.0814 H       
 159 H159         -31.6762     4.6782     1.9009 H       
 160 H160         -32.6316     5.9214     2.7437 H       
 161 H161         -29.9422     6.1500     3.5754 H       
 162 H162         -29.1068     8.4698     1.1005 H       
 163 H163         -31.9603     6.5478     0.7008 H       
 164 H164         -31.0168     7.7482    -0.0003 H       
 165 H165         -35.5167     3.4320     5.2788 H       
 166 H166         -36.5653     0.7641     4.7220 H       
 167 H167         -37.9191     0.6435     6.7582 H       
 168 H168         -36.2037     0.7961     7.2080 H       
 169 H169         -37.5798     2.3326     8.4127 H       
 170 H170         -39.2521     1.0852     5.0110 H       
 171 H171         -39.7063     3.3013     3.1485 H       
 172 H172         -41.5139     1.0557     4.1484 H       
 173 H173         -41.9825     2.2659     2.9302 H       
 174 H174         -40.7343    -0.4852     0.8882 H       
 175 H175         -42.1375     4.3661     3.6154 H       
 176 H176         -42.5544     4.7665     6.4778 H       
 177 H177         -42.2514     7.2243     6.3384 H       
 178 H178         -39.8335     5.6136     5.4028 H       
 179 H179         -39.7676     7.2233     6.1597 H       
 180 H180         -40.3601     5.8260     7.0898 H       
 181 H181         -42.5728     7.4239     3.9799 H       
 182 H182         -44.4981     6.5034     6.7075 H       
 183 H183         -46.2303     6.5050     4.3565 H       
 184 H184         -46.8750     4.8746     6.8535 H       
 185 H185         -48.0425     5.2522     5.5641 H       
 186 H186         -46.5847     4.1158     3.9113 H       
 187 H187         -45.4172     3.7382     5.2007 H       
 188 H188         -47.1566     2.4349     6.3941 H       
 189 H189         -48.3242     2.8125     5.1047 H       
 190 H190         -46.0433     1.6377     3.9240 H       
 191 H191         -48.7288    -0.7720     5.6501 H       
 192 H192         -46.1476    -0.6692     3.3428 H       
 193 H193         -47.2807    -1.6698     4.0759 H       
 194 H194         -48.6005     7.3770     5.2970 H       
 195 H195         -48.2144     9.1113     7.6144 H       
 196 H196         -48.6323    10.2192     4.8025 H       
 197 H197         -48.7932    11.1713     6.2978 H       
 198 H198         -46.4418    10.6469     6.8848 H       
 199 H199         -46.2809     9.6948     5.3895 H       
 200 H200         -44.4573    11.6790     5.3818 H       
 201 H201         -44.9526    13.0085     4.4819 H       
 202 H202         -50.4422    10.6268     7.6696 H       
 203 H203         -52.6911     9.1964     6.4765 H       
 204 H204         -53.7640     8.7356     8.6640 H       
 205 H205         -52.2187     7.8651     8.5143 H       
 206 H206         -52.3158     9.3426     9.5021 H       
 207 H207         -54.8584    10.3609     7.5763 H       
 208 H208         -54.2847    13.1319     8.2973 H       
 209 H209         -55.6901    12.3837     5.6947 H       
 210 H210         -55.6636    14.0202     6.3943 H       
 211 H211         -53.6743    11.3902     4.7810 H       
 212 H212         -51.4758    11.7912     3.7493 H       
 213 H213         -50.1375    14.3859     3.0661 H       
 214 H214         -51.4127    15.7207     5.4285 H       
 215 H215         -53.6157    15.3153     6.4490 H       
 216 H216         -56.7079    14.3110     8.3237 H       
 217 H217         -58.7918    12.3688     8.9660 H       
 218 H218         -57.5848    14.2187    11.0708 H       
 219 H219         -59.1037    13.3130    11.2732 H       
 220 H220         -57.8823    11.1848    10.9162 H       
 221 H221         -56.3634    12.0905    10.7137 H       
 222 H222         -56.5960    12.9942    13.0111 H       
 223 H223         -58.1148    12.0885    13.2136 H       
 224 H224         -56.0887    10.2711    12.4597 H       
 225 H225         -55.1948     9.5075    15.7494 H       
 226 H226         -57.0006    12.3978    15.1317 H       
 227 H227         -56.2861    11.4687    16.3354 H       
 228 H228         -60.7956    13.8715     9.9606 H       
 229 H229         -60.7190    16.5656     8.8364 H       
 230 H230         -62.5535    14.3918     7.7328 H       
 231 H231         -62.7266    16.1298     7.3902 H       
 232 H232         -60.4413    16.1679     6.4287 H       
 233 H233         -60.2682    14.4298     6.7713 H       
 234 H234         -62.2043    13.9468     5.2992 H       
 235 H235         -62.3774    15.6849     4.9566 H       
 236 H236         -60.0921    15.7229     3.9951 H       
 237 H237         -59.9190    13.9848     4.3377 H       
 238 H238         -61.9999    15.1474     2.6038 H       
 239 H239         -60.6242    14.3793     2.0715 H       
 240 H240         -63.2998    17.3994     9.0580 H       
 241 H241         -64.4292    16.2725    11.5158 H       
 242 H242         -62.5997    17.8532    12.2396 H       
 243 H243         -63.4625    19.1629    11.3978 H       
 244 H244         -65.4952    18.6259    12.8035 H       
 245 H245         -63.4935    16.9224    14.3538 H       
 246 H246         -65.1923    17.2211    14.7933 H       
 247 H247         -64.8029    16.2773    13.3352 H       
 248 H248         -63.9450    20.4675    13.3987 H       
 249 H249         -64.5979    19.6852    14.8581 H       
 250 H250         -62.9400    19.3236    14.3205 H       
 251 H251         -66.5565    17.5596    12.0824 H       
 252 H252         -67.9133    17.9223     9.5221 H       
 253 H253         -68.9287    17.9645    12.3995 H       
 254 H254         -69.9627    18.0691    10.9545 H       
 255 H255         -68.0360    15.7749    11.5287 H       
 256 H256         -71.0734    15.8755    11.7999 H       
 257 H257         -70.0231    14.4771    12.1312 H       
 258 H258         -69.9344    15.9220    13.1669 H       
 259 H259         -68.5354    16.1744     9.1329 H       
 260 H260         -69.2932    14.6672     9.7008 H       
 261 H261         -70.2788    16.1342     9.4896 H       
 262 H262         -68.9902    21.3712    10.1506 H       
@<TRIPOS>BOND
   1    1    2 2
   2    1    4 1
   3    1   10 am
   4    3    4 1
   5    3  131 1
   6    3  132 1
   7    4    5 1
   8    4  133 1
   9    5    6 1
  10    5    7 1
  11    5  134 1
  12    6  135 1
  13    6  136 1
  14    6  137 1
  15    7  138 1
  16    8    9 2
  17    8   11 1
  18    8   18 am
  19   10   11 1
  20   10  139 1
  21   11   12 1
  22   11  140 1
  23   12   13 1
  24   12  141 1
  25   12  142 1
  26   13   14 2
  27   13   15 am
  28   15  143 1
  29   15  144 1
  30   16   17 2
  31   16   19 1
  32   16   23 am
  33   18   19 1
  34   18  145 1
  35   19   20 1
  36   19  146 1
  37   20  147 1
  38   20  148 1
  39   20  149 1
  40   21   22 2
  41   21   24 1
  42   21   27 am
  43   23   24 1
  44   23  150 1
  45   24  151 1
  46   24  152 1
  47   25   26 2
  48   25   28 1
  49   25   38 am
  50   27   28 1
  51   27  153 1
  52   28   29 1
  53   28  154 1
  54   29   30 1
  55   29  155 1
  56   29  156 1
  57   30   31 1
  58   30  157 1
  59   30  158 1
  60   31   32 1
  61   31  159 1
  62   31  160 1
  63   32   33 1
  64   32  161 1
  65   33   34 2
  66   33   35 1
  67   34  162 1
  68   35  163 1
  69   35  164 1
  70   36   37 2
  71   36   39 1
  72   36   44 am
  73   38   39 1
  74   38  165 1
  75   39   40 1
  76   39  166 1
  77   40   41 1
  78   40  167 1
  79   40  168 1
  80   41  169 1
  81   42   43 2
  82   42   45 1
  83   42   52 am
  84   44   45 1
  85   44  170 1
  86   45   46 1
  87   45  171 1
  88   46   47 1
  89   46  172 1
  90   46  173 1
  91   47   48 2
  92   47   49 1
  93   49  174 1
  94   50   51 2
  95   50   53 1
  96   50   59 am
  97   52   53 1
  98   52  175 1
  99   53   54 1
 100   53  176 1
 101   54   55 1
 102   54   56 1
 103   54  177 1
 104   55  178 1
 105   55  179 1
 106   55  180 1
 107   56  181 1
 108   57   58 2
 109   57   60 1
 110   57   70 am
 111   59   60 1
 112   59  182 1
 113   60   61 1
 114   60  183 1
 115   61   62 1
 116   61  184 1
 117   61  185 1
 118   62   63 1
 119   62  186 1
 120   62  187 1
 121   63   64 1
 122   63  188 1
 123   63  189 1
 124   64   65 1
 125   64  190 1
 126   65   66 2
 127   65   67 1
 128   66  191 1
 129   67  192 1
 130   67  193 1
 131   68   69 2
 132   68   71 1
 133   68   79 am
 134   70   71 1
 135   70  194 1
 136   71   72 1
 137   71  195 1
 138   72   73 1
 139   72  196 1
 140   72  197 1
 141   73   74 1
 142   73  198 1
 143   73  199 1
 144   74   75 2
 145   74   76 am
 146   76  200 1
 147   76  201 1
 148   77   78 2
 149   77   80 1
 150   77   84 am
 151   79   80 1
 152   79  202 1
 153   80   81 1
 154   80  203 1
 155   81  204 1
 156   81  205 1
 157   81  206 1
 158   82   83 2
 159   82   85 1
 160   82   96 am
 161   84   85 1
 162   84  207 1
 163   85   86 1
 164   85  208 1
 165   86   87 1
 166   86  209 1
 167   86  210 1
 168   87   88 ar
 169   87   93 ar
 170   88   89 ar
 171   88  211 1
 172   89   90 ar
 173   89  212 1
 174   90   91 1
 175   90   92 ar
 176   91  213 1
 177   92   93 ar
 178   92  214 1
 179   93  215 1
 180   94   95 2
 181   94   97 1
 182   94  107 am
 183   96   97 1
 184   96  216 1
 185   97   98 1
 186   97  217 1
 187   98   99 1
 188   98  218 1
 189   98  219 1
 190   99  100 1
 191   99  220 1
 192   99  221 1
 193  100  101 1
 194  100  222 1
 195  100  223 1
 196  101  102 1
 197  101  224 1
 198  102  103 2
 199  102  104 1
 200  103  225 1
 201  104  226 1
 202  104  227 1
 203  105  106 2
 204  105  108 1
 205  105  116 am
 206  107  108 1
 207  107  228 1
 208  108  109 1
 209  108  229 1
 210  109  110 1
 211  109  230 1
 212  109  231 1
 213  110  111 1
 214  110  232 1
 215  110  233 1
 216  111  112 1
 217  111  234 1
 218  111  235 1
 219  112  113 1
 220  112  236 1
 221  112  237 1
 222  113  238 1
 223  113  239 1
 224  114  115 2
 225  114  117 1
 226  114  124 am
 227  116  117 1
 228  116  240 1
 229  117  118 1
 230  117  241 1
 231  118  119 1
 232  118  242 1
 233  118  243 1
 234  119  120 1
 235  119  121 1
 236  119  244 1
 237  120  245 1
 238  120  246 1
 239  120  247 1
 240  121  248 1
 241  121  249 1
 242  121  250 1
 243  122  123 2
 244  122  125 1
 245  122  130 1
 246  124  125 1
 247  124  251 1
 248  125  126 1
 249  125  252 1
 250  126  127 1
 251  126  253 1
 252  126  254 1
 253  127  128 1
 254  127  129 1
 255  127  255 1
 256  128  256 1
 257  128  257 1
 258  128  258 1
 259  129  259 1
 260  129  260 1
 261  129  261 1
 262  130  262 1

#	End of record

