#	Name: ASD01920034
#	Creating user name:	WinNT
#	Creation time:	15. 06. 2019 20:11

#	Modifying user name:	WinNT
#	Modification time:	15. 06. 2019 20:11

#	Program:	/corina/corina34_cracker 3.40 0067  02.08.2006

@<TRIPOS>MOLECULE
ASD01920034
  49   51    0    0    0
SMALL
NO_CHARGES


@<TRIPOS>ATOM
   1 N1            -0.1167     1.4238    -0.8660 N.pl3   
   2 C2            -0.1056     0.0623    -0.9870 C.2     
   3 C3            -1.3509    -0.4069    -0.8022 C.2     
   4 C4            -2.2015     0.7634    -0.5457 C.2     
   5 C5            -1.3618     1.8607    -0.5961 C.2     
   6 C6             1.1099    -0.7786    -1.2809 C.3     
   7 C7            -1.7707     3.2970    -0.3941 C.3     
   8 C8             1.0098     2.2484    -0.9983 C.ar    
   9 C9            -3.6421     0.7664    -0.2842 C.2     
  10 O10           -4.2210     1.8148    -0.0881 O.2     
  11 C11           -4.4060    -0.5324    -0.2586 C.3     
  12 S12           -6.1551    -0.1984     0.0875 S.3     
  13 C13           -6.8750    -1.8066     0.0782 C.ar    
  14 C14           -8.2362    -1.9600     0.3117 C.ar    
  15 C15           -8.7998    -3.2201     0.3044 C.ar    
  16 C16           -8.0066    -4.3343     0.0642 C.ar    
  17 C17           -6.6462    -4.1815    -0.1692 C.ar    
  18 C18           -6.0829    -2.9212    -0.1682 C.ar    
  19 N19           -8.5790    -5.6135     0.0578 N.am    
  20 C20           -9.8250    -5.7918    -0.4241 C.2     
  21 O21          -10.4828    -4.8345    -0.7737 O.2     
  22 C22          -10.4010    -7.1805    -0.5286 C.3     
  23 C23            1.3547     2.7606    -2.2408 C.ar    
  24 C24            2.4649     3.5732    -2.3683 C.ar    
  25 C25            3.2330     3.8770    -1.2597 C.ar    
  26 C26            2.8938     3.3687    -0.0191 C.ar    
  27 C27            1.7806     2.5594     0.1167 C.ar    
  28 F28            1.4489     2.0627     1.3285 F       
  29 H29           -1.6647    -1.4398    -0.8358 H       
  30 H30            1.5857    -1.0694    -0.3443 H       
  31 H31            0.8099    -1.6720    -1.8287 H       
  32 H32            1.8133    -0.2028    -1.8823 H       
  33 H33           -1.6906     3.5525     0.6625 H       
  34 H34           -1.1161     3.9463    -0.9756 H       
  35 H35           -2.8011     3.4312    -0.7233 H       
  36 H36           -4.3150    -1.0265    -1.2259 H       
  37 H37           -3.9986    -1.1783     0.5191 H       
  38 H38           -8.8530    -1.0936     0.4992 H       
  39 H39           -9.8577    -3.3394     0.4858 H       
  40 H40           -6.0296    -5.0484    -0.3556 H       
  41 H41           -5.0249    -2.8024    -0.3500 H       
  42 H42           -8.0785    -6.3706     0.4001 H       
  43 H43          -10.9199    -7.4292     0.3971 H       
  44 H44          -11.1035    -7.2208    -1.3611 H       
  45 H45           -9.5961    -7.8959    -0.6975 H       
  46 H46            0.7559     2.5239    -3.1079 H       
  47 H47            2.7333     3.9714    -3.3356 H       
  48 H48            4.1001     4.5125    -1.3627 H       
  49 H49            3.4960     3.6076     0.8450 H       
@<TRIPOS>BOND
   1    1    2 1
   2    1    8 1
   3    1    5 1
   4    2    3 2
   5    2    6 1
   6    3    4 1
   7    3   29 1
   8    4    5 2
   9    4    9 1
  10    5    7 1
  11    6   30 1
  12    6   31 1
  13    6   32 1
  14    7   33 1
  15    7   34 1
  16    7   35 1
  17    8   23 ar
  18    8   27 ar
  19    9   10 2
  20    9   11 1
  21   11   12 1
  22   11   36 1
  23   11   37 1
  24   12   13 1
  25   13   14 ar
  26   13   18 ar
  27   14   15 ar
  28   14   38 1
  29   15   16 ar
  30   15   39 1
  31   16   17 ar
  32   16   19 1
  33   17   18 ar
  34   17   40 1
  35   18   41 1
  36   19   20 am
  37   19   42 1
  38   20   21 2
  39   20   22 1
  40   22   43 1
  41   22   44 1
  42   22   45 1
  43   23   24 ar
  44   23   46 1
  45   24   25 ar
  46   24   47 1
  47   25   26 ar
  48   25   48 1
  49   26   27 ar
  50   26   49 1
  51   27   28 1

#	End of record

