#	Name: ASD00431473
#	Creating user name:	WinNT
#	Creation time:	15. 06. 2019 18:35

#	Modifying user name:	WinNT
#	Modification time:	15. 06. 2019 18:35

#	Program:	/corina/corina34_cracker 3.40 0067  02.08.2006

@<TRIPOS>MOLECULE
ASD00431473
  33   34    0    0    0
SMALL
NO_CHARGES


@<TRIPOS>ATOM
   1 S1            -1.8264     1.4989     1.0861 S.3     
   2 C2            -1.5385    -0.1804     0.9509 C.2     
   3 N3            -1.7547    -0.7730     2.0881 N.2     
   4 C4            -2.1361    -0.0247     3.0921 C.2     
   5 C5            -2.2525     1.3020     2.7844 C.2     
   6 C6            -2.6577     2.3679     3.7013 C.2     
   7 O7            -2.9283     2.1050     4.8587 O.2     
   8 N8            -2.7314     3.6408     3.2644 N.am    
   9 O9            -1.1418    -0.8058    -0.1810 O.3     
  10 C10           -0.8553    -2.1330    -0.1101 C.ar    
  11 C11           -1.8668    -3.0486     0.1414 C.ar    
  12 C12           -1.5757    -4.3967     0.2135 C.ar    
  13 C13           -0.2720    -4.8353     0.0344 C.ar    
  14 C14            0.7395    -3.9200    -0.2171 C.ar    
  15 C15            0.4475    -2.5722    -0.2948 C.ar    
  16 O16            0.0146    -6.1626     0.1058 O.3     
  17 C17            1.3625    -6.5508    -0.1672 C.3     
  18 C18            1.6443    -7.9068     0.4829 C.3     
  19 C19            1.5659    -6.6584    -1.6799 C.3     
  20 H20           -2.3407    -0.4204     4.0760 H       
  21 H21           -2.5158     3.8503     2.3422 H       
  22 H22           -3.0000     4.3474     3.8722 H       
  23 H23           -2.8818    -2.7070     0.2812 H       
  24 H24           -2.3630    -5.1095     0.4096 H       
  25 H25            1.7545    -4.2615    -0.3565 H       
  26 H26            1.2343    -1.8600    -0.4950 H       
  27 H27            2.0450    -5.8043     0.2389 H       
  28 H28            0.9618    -8.6534     0.0768 H       
  29 H29            2.6724    -8.2030     0.2747 H       
  30 H30            1.4995    -7.8302     1.5605 H       
  31 H31            2.5940    -6.9545    -1.8881 H       
  32 H32            0.8834    -7.4049    -2.0860 H       
  33 H33            1.3651    -5.6923    -2.1431 H       
@<TRIPOS>BOND
   1    1    2 1
   2    1    5 1
   3    2    3 2
   4    2    9 1
   5    3    4 1
   6    4    5 2
   7    4   20 1
   8    5    6 1
   9    6    7 2
  10    6    8 am
  11    8   21 1
  12    8   22 1
  13    9   10 1
  14   10   11 ar
  15   10   15 ar
  16   11   12 ar
  17   11   23 1
  18   12   13 ar
  19   12   24 1
  20   13   14 ar
  21   13   16 1
  22   14   15 ar
  23   14   25 1
  24   15   26 1
  25   16   17 1
  26   17   18 1
  27   17   19 1
  28   17   27 1
  29   18   28 1
  30   18   29 1
  31   18   30 1
  32   19   31 1
  33   19   32 1
  34   19   33 1

#	End of record

