#	Name: ASD01320147
#	Creating user name:	WinNT
#	Creation time:	15. 06. 2019 19:16

#	Modifying user name:	WinNT
#	Modification time:	15. 06. 2019 19:16

#	Program:	/corina/corina34_cracker 3.40 0067  02.08.2006

@<TRIPOS>MOLECULE
ASD01320147
  33   34    0    0    0
SMALL
NO_CHARGES


@<TRIPOS>ATOM
   1 C1             0.0707     0.5867    -0.4939 C.3     
   2 O2             0.3838    -0.7945    -0.6849 O.3     
   3 C3             1.3617     1.3755    -0.2659 C.3     
   4 O4             2.1633     1.3296    -1.4480 O.3     
   5 C5             1.0194     2.8315     0.0607 C.3     
   6 O6             0.2666     2.8845     1.2742 O.3     
   7 C7             2.3172     3.6277     0.2282 C.3     
   8 O8             3.0569     3.1087     1.3352 O.3     
   9 C9             3.1508     3.4992    -1.0505 C.3     
  10 O10            4.3964     4.1782    -0.8787 O.3     
  11 C11            3.4107     2.0174    -1.3341 C.3     
  12 N12            4.1891     1.4390    -0.2360 N.am    
  13 C13            3.7797     0.2974     0.3519 C.2     
  14 O14            2.7650    -0.2521    -0.0290 O.2     
  15 N15            4.4960    -0.2349     1.3618 N.am    
  16 C16            5.6214     0.3746     1.7842 C.2     
  17 O17            6.2669    -0.1052     2.6951 O.2     
  18 N18            6.0310     1.5159     1.1961 N.am    
  19 C19            5.3175     2.0455     0.1827 C.2     
  20 O20            5.6892     3.0722    -0.3506 O.2     
  21 H21           -0.4377     0.9697    -1.3788 H       
  22 H22           -0.5796     0.6952     0.3741 H       
  23 H23           -0.3891    -1.3558    -0.8354 H       
  24 H24            1.9139     0.9366     0.5651 H       
  25 H25            0.4313     3.2585    -0.7517 H       
  26 H26            0.0149     3.7789     1.5421 H       
  27 H27            2.0809     4.6766     0.4071 H       
  28 H28            2.5854     3.1522     2.1784 H       
  29 H29            2.6072     3.9410    -1.8856 H       
  30 H30            4.3069     5.1225    -0.6907 H       
  31 H31            3.9671     1.9179    -2.2661 H       
  32 H32            4.2013    -1.0566     1.7849 H       
  33 H33            6.8411     1.9545     1.4999 H       
@<TRIPOS>BOND
   1    1    2 1
   2    1    3 1
   3    1   21 1
   4    1   22 1
   5    2   23 1
   6    3    4 1
   7    3    5 1
   8    3   24 1
   9    4   11 1
  10    5    6 1
  11    5    7 1
  12    5   25 1
  13    6   26 1
  14    7    8 1
  15    7    9 1
  16    7   27 1
  17    8   28 1
  18    9   10 1
  19    9   11 1
  20    9   29 1
  21   10   30 1
  22   11   12 1
  23   11   31 1
  24   12   13 am
  25   12   19 am
  26   13   14 2
  27   13   15 am
  28   15   16 am
  29   15   32 1
  30   16   17 2
  31   16   18 am
  32   18   19 am
  33   18   33 1
  34   19   20 2

#	End of record

