#	Name: ASD01810054
#	Creating user name:	WinNT
#	Creation time:	15. 06. 2019 19:23

#	Modifying user name:	WinNT
#	Modification time:	15. 06. 2019 19:23

#	Program:	/corina/corina34_cracker 3.40 0067  02.08.2006

@<TRIPOS>MOLECULE
ASD01810054
  62   66    0    0    0
SMALL
NO_CHARGES


@<TRIPOS>ATOM
   1 C1             0.1976     1.2945     0.1709 C.ar    
   2 C2             0.2369    -0.0888     0.1578 C.ar    
   3 C3             1.4485    -0.7508     0.1095 C.ar    
   4 C4             2.6297    -0.0262     0.0739 C.ar    
   5 C5             2.5900     1.3698     0.0870 C.ar    
   6 C6             1.3695     2.0252     0.1357 C.ar    
   7 N7             3.9733    -0.3902     0.0233 N.am    
   8 C8             4.7164     0.7323     0.0066 C.2     
   9 N9             3.9107     1.8103     0.0441 N.am    
  10 C10            4.3483     3.2084     0.0395 C.3     
  11 C11            5.2337     3.4714     1.2607 C.3     
  12 C12            5.7372     4.9160     1.2181 C.3     
  13 N13            6.4998     5.1336    -0.0178 N.3     
  14 C14            5.6575     4.9329    -1.2039 C.3     
  15 C15            5.1517     3.4889    -1.2335 C.3     
  16 O16            5.9321     0.7673    -0.0364 O.2     
  17 C17            7.1152     6.4675    -0.0287 C.3     
  18 C18            8.0010     6.6122    -1.2693 C.3     
  19 C19            8.5907     8.0239    -1.3072 C.3     
  20 N20            7.5027     9.0095    -1.3428 N.3     
  21 C21            6.6666     8.9211    -0.1389 C.3     
  22 C22            6.0194     7.5363    -0.0661 C.3     
  23 C23            8.0298    10.3693    -1.5191 C.3     
  24 C24            6.9140    11.2895    -1.9426 C.ar    
  25 C25            6.4921    11.3039    -3.2587 C.ar    
  26 C26            5.4685    12.1482    -3.6472 C.ar    
  27 C27            4.8669    12.9775    -2.7195 C.ar    
  28 C28            5.2884    12.9624    -1.4029 C.ar    
  29 C29            6.3087    12.1153    -1.0135 C.ar    
  30 C30            7.1480    10.3997    -4.2702 C.3     
  31 F31            6.4990    10.5303    -5.5026 F       
  32 F32            8.4933    10.7565    -4.4115 F       
  33 F33            7.0607     9.0728    -3.8355 F       
  34 H34           -0.7535     1.8051     0.2042 H       
  35 H35           -0.6834    -0.6532     0.1859 H       
  36 H36            1.4753    -1.8304     0.0998 H       
  37 H37            1.3349     3.1046     0.1456 H       
  38 H38            4.3152    -1.2977     0.0041 H       
  39 H39            3.4773     3.8629     0.0733 H       
  40 H40            4.6545     3.3147     2.1707 H       
  41 H41            6.0838     2.7893     1.2476 H       
  42 H42            4.8872     5.5978     1.2451 H       
  43 H43            6.3795     5.1023     2.0788 H       
  44 H44            4.8079     5.6147    -1.1655 H       
  45 H45            6.2420     5.1315    -2.1022 H       
  46 H46            6.0005     2.8070    -1.2858 H       
  47 H47            4.5139     3.3445    -2.1055 H       
  48 H48            7.7208     6.5966     0.8683 H       
  49 H49            8.8086     5.8814    -1.2271 H       
  50 H50            7.4031     6.4435    -2.1650 H       
  51 H51            9.1996     8.1871    -0.4179 H       
  52 H52            9.2105     8.1348    -2.1969 H       
  53 H53            7.2845     9.0801     0.7449 H       
  54 H54            5.8889     9.6838    -0.1800 H       
  55 H55            5.3904     7.3820    -0.9429 H       
  56 H56            5.4113     7.4657     0.8357 H       
  57 H57            8.4524    10.7201    -0.5776 H       
  58 H58            8.8052    10.3619    -2.2851 H       
  59 H59            5.1392    12.1599    -4.6758 H       
  60 H60            4.0678    13.6375    -3.0232 H       
  61 H61            4.8185    13.6107    -0.6780 H       
  62 H62            6.6380    12.1035     0.0150 H       
@<TRIPOS>BOND
   1    1    2 ar
   2    1    6 ar
   3    1   34 1
   4    2    3 ar
   5    2   35 1
   6    3    4 ar
   7    3   36 1
   8    4    5 ar
   9    4    7 1
  10    5    6 ar
  11    5    9 1
  12    6   37 1
  13    7    8 am
  14    7   38 1
  15    8    9 am
  16    8   16 2
  17    9   10 1
  18   10   11 1
  19   10   15 1
  20   10   39 1
  21   11   12 1
  22   11   40 1
  23   11   41 1
  24   12   13 1
  25   12   42 1
  26   12   43 1
  27   13   14 1
  28   13   17 1
  29   14   15 1
  30   14   44 1
  31   14   45 1
  32   15   46 1
  33   15   47 1
  34   17   18 1
  35   17   22 1
  36   17   48 1
  37   18   19 1
  38   18   49 1
  39   18   50 1
  40   19   20 1
  41   19   51 1
  42   19   52 1
  43   20   21 1
  44   20   23 1
  45   21   22 1
  46   21   53 1
  47   21   54 1
  48   22   55 1
  49   22   56 1
  50   23   24 1
  51   23   57 1
  52   23   58 1
  53   24   25 ar
  54   24   29 ar
  55   25   26 ar
  56   25   30 1
  57   26   27 ar
  58   26   59 1
  59   27   28 ar
  60   27   60 1
  61   28   29 ar
  62   28   61 1
  63   29   62 1
  64   30   31 1
  65   30   32 1
  66   30   33 1

#	End of record

