#	Name: ASD03092407
#	Creating user name:	WinNT
#	Creation time:	15. 06. 2019 20:32

#	Modifying user name:	WinNT
#	Modification time:	15. 06. 2019 20:32

#	Program:	/corina/corina34_cracker 3.40 0067  02.08.2006

@<TRIPOS>MOLECULE
ASD03092407
  50   53    0    0    0
SMALL
NO_CHARGES


@<TRIPOS>ATOM
   1 C1            -0.1267     1.4450     0.0219 C.2     
   2 C2            -0.1635    -0.0317     0.0286 C.ar    
   3 C3             1.0115    -0.7629    -0.1600 C.ar    
   4 C4             0.9716    -2.1404    -0.1524 C.ar    
   5 C5            -0.2323    -2.8007     0.0417 C.ar    
   6 C6            -1.4016    -2.0798     0.2294 C.ar    
   7 C7            -1.3720    -0.7015     0.2294 C.ar    
   8 O8             0.9389     2.0262    -0.0458 O.2     
   9 N9            -1.2748     2.1480     0.0852 N.am    
  10 C10           -1.2384     3.6126     0.0786 C.3     
  11 S11           -4.9306     5.0762    -0.3941 S.3     
  12 C12           -4.4918     4.7848     1.2321 C.2     
  13 N13           -3.2832     4.3125     1.2952 N.2     
  14 C14           -2.6439     4.1504     0.1571 C.2     
  15 C15           -3.3534     4.5065    -0.9342 C.2     
  16 C16           -2.5937     5.4069    -4.5002 C.ar    
  17 C17           -3.0418     5.5206    -3.2020 C.ar    
  18 C18           -2.8899     4.4314    -2.3335 C.ar    
  19 C19           -2.2852     3.2692    -2.8307 C.ar    
  20 C20           -1.8671     3.2432    -4.1435 C.ar    
  21 N21           -2.0293     4.2927    -4.9278 N.ar    
  22 N22           -5.3069     5.0188     2.3247 N.3     
  23 C23           -6.6101     5.5542     1.9047 C.3     
  24 C24           -7.4996     5.7418     3.1366 C.3     
  25 O25           -6.8375     6.5991     4.0704 O.3     
  26 C26           -5.5653     6.1078     4.5012 C.3     
  27 C27           -4.6562     5.9240     3.2831 C.3     
  28 C28            2.3205    -0.0468    -0.3721 C.3     
  29 F29           -0.2660    -4.1513     0.0474 F       
  30 H30            1.8796    -2.7068    -0.2982 H       
  31 H31           -2.3365    -2.5989     0.3802 H       
  32 H32           -2.2827    -0.1409     0.3802 H       
  33 H33           -2.1253     1.6843     0.1352 H       
  34 H34           -0.6658     3.9656     0.9362 H       
  35 H35           -0.7672     3.9601    -0.8408 H       
  36 H36           -2.7103     6.2392    -5.1786 H       
  37 H37           -3.5023     6.4353    -2.8590 H       
  38 H38           -2.1486     2.4071    -2.1946 H       
  39 H39           -1.3999     2.3521    -4.5361 H       
  40 H40           -6.4666     6.5147     1.4097 H       
  41 H41           -7.0853     4.8562     1.2155 H       
  42 H42           -8.4460     6.1919     2.8370 H       
  43 H43           -7.6871     4.7737     3.6010 H       
  44 H44           -5.1128     6.8227     5.1885 H       
  45 H45           -5.6966     5.1503     5.0052 H       
  46 H46           -3.7052     5.4959     3.6001 H       
  47 H47           -4.4815     6.8903     2.8102 H       
  48 H48            2.7402     0.2363     0.5932 H       
  49 H49            3.0157    -0.7066    -0.8912 H       
  50 H50            2.1522     0.8478    -0.9716 H       
@<TRIPOS>BOND
   1    1    2 1
   2    1    8 2
   3    1    9 am
   4    2    3 ar
   5    2    7 ar
   6    3    4 ar
   7    3   28 1
   8    4    5 ar
   9    4   30 1
  10    5    6 ar
  11    5   29 1
  12    6    7 ar
  13    6   31 1
  14    7   32 1
  15    9   10 1
  16    9   33 1
  17   10   14 1
  18   10   34 1
  19   10   35 1
  20   11   12 1
  21   11   15 1
  22   12   13 2
  23   12   22 1
  24   13   14 1
  25   14   15 2
  26   15   18 1
  27   16   17 ar
  28   16   21 ar
  29   16   36 1
  30   17   18 ar
  31   17   37 1
  32   18   19 ar
  33   19   20 ar
  34   19   38 1
  35   20   21 ar
  36   20   39 1
  37   22   23 1
  38   22   27 1
  39   23   24 1
  40   23   40 1
  41   23   41 1
  42   24   25 1
  43   24   42 1
  44   24   43 1
  45   25   26 1
  46   26   27 1
  47   26   44 1
  48   26   45 1
  49   27   46 1
  50   27   47 1
  51   28   48 1
  52   28   49 1
  53   28   50 1

#	End of record

