#	Name: ASD03200048
#	Creating user name:	WinNT
#	Creation time:	15. 06. 2019 20:34

#	Modifying user name:	WinNT
#	Modification time:	15. 06. 2019 20:34

#	Program:	/corina/corina34_cracker 3.40 0067  02.08.2006

@<TRIPOS>MOLECULE
ASD03200048
  58   61    0    0    0
SMALL
NO_CHARGES


@<TRIPOS>ATOM
   1 C1            -0.6318    -1.7172    -0.8084 C.3     
   2 N2            -0.8169    -0.3316    -0.3585 N.3     
   3 C3            -0.4700    -0.1833     1.0606 C.3     
   4 C4             1.0062    -0.5314     1.2653 C.3     
   5 C5             1.2542    -1.9714     0.8078 C.3     
   6 C6             0.8395    -2.1110    -0.6595 C.3     
   7 C7            -2.1187     0.1032    -0.6026 C.ar    
   8 C8            -2.9853     0.3909     0.4489 C.ar    
   9 C9            -4.2666     0.8189     0.1660 C.ar    
  10 N10           -4.6767     0.9575    -1.0805 N.ar    
  11 C11           -3.8901     0.6964    -2.1078 C.ar    
  12 C12           -2.5878     0.2678    -1.9114 C.ar    
  13 N13           -1.7565    -0.0076    -3.0054 N.am    
  14 C14           -2.2830    -0.4971    -4.1454 C.2     
  15 C15           -1.3995    -0.8763    -5.2612 C.2     
  16 O16           -3.4879    -0.6258    -4.2528 O.2     
  17 C17           -1.8776    -1.2769    -6.4606 C.2     
  18 S18           -0.5643    -1.6316    -7.4968 S.3     
  19 C19            0.5765    -1.2099    -6.2247 C.2     
  20 N20           -0.0773    -0.8443    -5.1639 N.2     
  21 C21            2.0496    -1.2583    -6.3468 C.ar    
  22 N22            1.3475    -0.4032     2.6884 N.3     
  23 C23            2.6377    -1.7645    -7.5025 C.ar    
  24 C24            4.0267    -1.8067    -7.6098 C.ar    
  25 C25            4.8212    -1.3414    -6.5583 C.ar    
  26 C26            4.2344    -0.8412    -5.4151 C.ar    
  27 C27            2.8554    -0.7902    -5.3035 C.ar    
  28 F28            2.2871    -0.2990    -4.1806 F       
  29 C29            4.6582    -2.3431    -8.8331 C.2     
  30 N30            5.7414    -1.7340    -9.3548 N.am    
  31 O31            4.2009    -3.3337    -9.3690 O.2     
  32 C32            6.3079    -2.2052   -10.6210 C.3     
  33 C33            6.3523    -0.6007    -8.6557 C.3     
  34 H34           -1.2486    -2.3812    -0.2028 H       
  35 H35           -0.9263    -1.8018    -1.8545 H       
  36 H36           -0.6470     0.8461     1.3721 H       
  37 H37           -1.0875    -0.8545     1.6575 H       
  38 H38            1.6249     0.1483     0.6795 H       
  39 H39            2.3129    -2.2093     0.9113 H       
  40 H40            0.6649    -2.6546     1.4194 H       
  41 H41            0.9737    -3.1445    -0.9789 H       
  42 H42            1.4557    -1.4562    -1.2757 H       
  43 H43           -2.6591     0.2802     1.4725 H       
  44 H44           -4.9437     1.0433     0.9769 H       
  45 H45           -4.2648     0.8229    -3.1128 H       
  46 H46           -0.8022     0.1541    -2.9422 H       
  47 H47           -2.9221    -1.3596    -6.7226 H       
  48 H48            2.2945    -0.7054     2.8617 H       
  49 H49            1.2049     0.5422     3.0107 H       
  50 H50            2.0202    -2.1234    -8.3126 H       
  51 H51            5.8975    -1.3741    -6.6412 H       
  52 H52            4.8530    -0.4833    -4.6054 H       
  53 H53            5.8372    -1.6754   -11.4491 H       
  54 H54            7.3813    -2.0157   -10.6317 H       
  55 H55            6.1268    -3.2750   -10.7243 H       
  56 H56            7.1186    -0.9659    -7.9719 H       
  57 H57            6.8055     0.0732    -9.3827 H       
  58 H58            5.5874    -0.0662    -8.0923 H       
@<TRIPOS>BOND
   1    1    2 1
   2    1    6 1
   3    1   34 1
   4    1   35 1
   5    2    3 1
   6    2    7 1
   7    3    4 1
   8    3   36 1
   9    3   37 1
  10    4    5 1
  11    4   22 1
  12    4   38 1
  13    5    6 1
  14    5   39 1
  15    5   40 1
  16    6   41 1
  17    6   42 1
  18    7    8 ar
  19    7   12 ar
  20    8    9 ar
  21    8   43 1
  22    9   10 ar
  23    9   44 1
  24   10   11 ar
  25   11   12 ar
  26   11   45 1
  27   12   13 1
  28   13   14 am
  29   13   46 1
  30   14   15 1
  31   14   16 2
  32   15   17 2
  33   15   20 1
  34   17   18 1
  35   17   47 1
  36   18   19 1
  37   19   20 2
  38   19   21 1
  39   21   23 ar
  40   21   27 ar
  41   22   48 1
  42   22   49 1
  43   23   24 ar
  44   23   50 1
  45   24   25 ar
  46   24   29 1
  47   25   26 ar
  48   25   51 1
  49   26   27 ar
  50   26   52 1
  51   27   28 1
  52   29   30 am
  53   29   31 2
  54   30   32 1
  55   30   33 1
  56   32   53 1
  57   32   54 1
  58   32   55 1
  59   33   56 1
  60   33   57 1
  61   33   58 1

#	End of record

