#	Name: ASD01814520
#	Creating user name:	WinNT
#	Creation time:	15. 06. 2019 19:32

#	Modifying user name:	WinNT
#	Modification time:	15. 06. 2019 19:32

#	Program:	/corina/corina34_cracker 3.40 0067  02.08.2006

@<TRIPOS>MOLECULE
ASD01814520
  51   55    0    0    0
SMALL
NO_CHARGES


@<TRIPOS>ATOM
   1 N1             0.0195     1.3262    -0.5448 N.2     
   2 C2             0.0435     0.0250    -0.7123 C.2     
   3 C3             1.2624    -0.6394    -0.9175 C.2     
   4 C4             2.4149     0.0748    -0.9413 C.2     
   5 N5             2.3615     1.4281    -0.7643 N.pl3   
   6 C6             1.1517     2.0419    -0.5663 C.2     
   7 N7             3.3489     2.4183    -0.7358 N.2     
   8 C8             2.7754     3.5868    -0.5302 C.2     
   9 C9             1.4078     3.4000    -0.4194 C.2     
  10 C10            3.0771     5.0570    -0.3733 C.3     
  11 N11            1.8049     5.7535    -0.1590 N.am    
  12 C12            0.7498     4.7354    -0.1844 C.3     
  13 C13            1.6370     7.0778     0.0261 C.2     
  14 O14            0.5165     7.5433     0.1064 O.2     
  15 C15            2.8118     7.9622     0.1313 C.ar    
  16 C16            2.8828     8.9213     1.1521 C.ar    
  17 C17            3.8628     7.8451    -0.7821 C.ar    
  18 C18            4.9582     8.6733    -0.6792 C.ar    
  19 C19            5.0234     9.6252     0.3290 C.ar    
  20 C20            3.9913     9.7473     1.2428 C.ar    
  21 O21            1.8700     9.0400     2.0468 O.3     
  22 Cl22           1.2946    -2.3610    -1.1385 Cl      
  23 F23            6.1025    10.4328     0.4220 F       
  24 C24            3.7367    -0.6153    -1.1594 C.3     
  25 C25           -1.2431    -0.7591    -0.6836 C.3     
  26 C26            2.0121    10.0388     3.0587 C.3     
  27 C27            0.7810    10.0232     3.9671 C.3     
  28 C28            0.7418    11.0271     5.1211 C.3     
  29 C29           -0.1605    11.2274     3.9018 C.3     
  30 N30            0.1793     8.7028     4.1960 N.3     
  31 H31            3.7312     5.2102     0.4850 H       
  32 H32            3.5570     5.4339    -1.2765 H       
  33 H33            0.0489     4.9491    -0.9913 H       
  34 H34            0.2237     4.7252     0.7702 H       
  35 H35            3.8163     7.1056    -1.5678 H       
  36 H36            5.7701     8.5816    -1.3855 H       
  37 H37            4.0499    10.4875     2.0271 H       
  38 H38            3.5722    -1.6862    -1.2787 H       
  39 H39            4.2100    -0.2183    -2.0575 H       
  40 H40            4.3840    -0.4407    -0.3000 H       
  41 H41           -2.0788    -0.0801    -0.5142 H       
  42 H42           -1.3781    -1.2708    -1.6366 H       
  43 H43           -1.2031    -1.4937     0.1207 H       
  44 H44            2.9034     9.8318     3.6511 H       
  45 H45            2.1062    11.0190     2.5912 H       
  46 H46            0.2691    10.7079     6.0499 H       
  47 H47            1.5929    11.6987     5.2331 H       
  48 H48            0.0971    12.0308     3.2116 H       
  49 H49           -1.2268    11.0400     4.0285 H       
  50 H50            0.2580     8.1222     3.3746 H       
  51 H51            0.5920     8.2516     4.9986 H       
@<TRIPOS>BOND
   1    1    2 2
   2    1    6 1
   3    2    3 1
   4    2   25 1
   5    3    4 2
   6    3   22 1
   7    4    5 1
   8    4   24 1
   9    5    7 1
  10    5    6 1
  11    6    9 2
  12    7    8 2
  13    8   10 1
  14    8    9 1
  15    9   12 1
  16   10   11 1
  17   10   31 1
  18   10   32 1
  19   11   12 1
  20   11   13 am
  21   12   33 1
  22   12   34 1
  23   13   14 2
  24   13   15 1
  25   15   17 ar
  26   15   16 ar
  27   16   20 ar
  28   16   21 1
  29   17   18 ar
  30   17   35 1
  31   18   19 ar
  32   18   36 1
  33   19   20 ar
  34   19   23 1
  35   20   37 1
  36   21   26 1
  37   24   38 1
  38   24   39 1
  39   24   40 1
  40   25   41 1
  41   25   42 1
  42   25   43 1
  43   26   27 1
  44   26   44 1
  45   26   45 1
  46   27   28 1
  47   27   30 1
  48   27   29 1
  49   28   29 1
  50   28   46 1
  51   28   47 1
  52   29   48 1
  53   29   49 1
  54   30   50 1
  55   30   51 1

#	End of record

