#	Name: ASD01890437
#	Creating user name:	WinNT
#	Creation time:	15. 06. 2019 19:51

#	Modifying user name:	WinNT
#	Modification time:	15. 06. 2019 19:51

#	Program:	/corina/corina34_cracker 3.40 0067  02.08.2006

@<TRIPOS>MOLECULE
ASD01890437
  68   70    0    0    0
SMALL
NO_CHARGES


@<TRIPOS>ATOM
   1 C1             0.1016     1.7125     0.3412 C.2     
   2 C2             0.1004     0.2208     0.1268 C.3     
   3 C3             1.5196    -0.2694    -0.0015 C.2     
   4 O4             0.9537     2.2233     1.0288 O.2     
   5 O5            -0.8408     2.4743    -0.2362 O.3     
   6 O6             1.9505    -1.0838     0.7801 O.2     
   7 O7             2.3051     0.1988    -0.9841 O.3     
   8 C8            -0.5703    -0.4652     1.3187 C.3     
   9 C9            -1.9628     0.1315     1.5332 C.3     
  10 C10           -2.5658    -0.4398     2.7906 C.2     
  11 C11           -0.6933    -1.9419     1.0444 C.ar    
  12 C12           -0.0817    -2.8541     1.8838 C.ar    
  13 C13           -0.1945    -4.2086     1.6321 C.ar    
  14 C14           -0.9193    -4.6510     0.5414 C.ar    
  15 C15           -1.5317    -3.7388    -0.2975 C.ar    
  16 C16           -1.4226    -2.3844    -0.0434 C.ar    
  17 C17           -3.9074    -0.0217     3.2171 C.ar    
  18 C18           -4.4701    -0.5511     4.3852 C.ar    
  19 C19           -5.7228    -0.1571     4.7795 C.ar    
  20 C20           -6.4348     0.7664     4.0211 C.ar    
  21 C21           -5.8804     1.2952     2.8601 C.ar    
  22 C22           -4.6261     0.9121     2.4603 C.ar    
  23 O23           -7.6742     1.1523     4.4149 O.3     
  24 C24           -7.7699     2.0592     5.4223 C.ar    
  25 C25           -6.6233     2.6359     5.9495 C.ar    
  26 C26           -6.7235     3.5580     6.9733 C.ar    
  27 C27           -7.9649     3.9059     7.4729 C.ar    
  28 C28           -9.1091     3.3327     6.9493 C.ar    
  29 C29           -9.0149     2.4144     5.9217 C.ar    
  30 O30           -1.9431    -1.2450     3.4503 O.2     
  31 C31           -0.7780     3.9032     0.0141 C.3     
  32 O32            0.3033     4.4834    -0.7621 O.3     
  33 C33            0.0954     4.6332    -2.0797 C.2     
  34 O34           -0.9552     4.2907    -2.5683 O.2     
  35 C35            1.1725     5.2284    -2.9496 C.3     
  36 C36            3.6607    -0.3177    -1.0471 C.3     
  37 O37            3.6394    -1.6694    -1.5770 O.3     
  38 C38            3.4320    -1.8035    -2.8964 C.2     
  39 O39            3.2735    -0.8239    -3.5856 O.2     
  40 C40            3.3969    -3.1759    -3.5179 C.3     
  41 H41           -0.4492    -0.0148    -0.7845 H       
  42 H42            0.0328    -0.3108     2.2134 H       
  43 H43           -1.8834     1.2144     1.6278 H       
  44 H44           -2.5980    -0.1133     0.6819 H       
  45 H45            0.4846    -2.5085     2.7360 H       
  46 H46            0.2840    -4.9213     2.2875 H       
  47 H47           -1.0068    -5.7093     0.3444 H       
  48 H48           -2.0978    -4.0844    -1.1499 H       
  49 H49           -1.9041    -1.6719    -0.6967 H       
  50 H50           -3.9183    -1.2687     4.9743 H       
  51 H51           -6.1576    -0.5648     5.6801 H       
  52 H52           -6.4375     2.0117     2.2746 H       
  53 H53           -4.1948     1.3266     1.5611 H       
  54 H54           -5.6534     2.3640     5.5601 H       
  55 H55           -5.8313     4.0072     7.3840 H       
  56 H56           -8.0410     4.6265     8.2738 H       
  57 H57          -10.0775     3.6062     7.3414 H       
  58 H58           -9.9091     1.9703     5.5100 H       
  59 H59           -1.7219     4.3647    -0.2761 H       
  60 H60           -0.5987     4.0787     1.0748 H       
  61 H61            2.0400     5.4738    -2.3370 H       
  62 H62            1.4605     4.5080    -3.7153 H       
  63 H63            0.7960     6.1337    -3.4257 H       
  64 H64            4.2619     0.3180    -1.6971 H       
  65 H65            4.0930    -0.3265    -0.0465 H       
  66 H66            3.5580    -3.9286    -2.7461 H       
  67 H67            2.4261    -3.3379    -3.9864 H       
  68 H68            4.1812    -3.2539    -4.2709 H       
@<TRIPOS>BOND
   1    1    2 1
   2    1    4 2
   3    1    5 1
   4    2    3 1
   5    2    8 1
   6    2   41 1
   7    3    6 2
   8    3    7 1
   9    5   31 1
  10    7   36 1
  11    8    9 1
  12    8   11 1
  13    8   42 1
  14    9   10 1
  15    9   43 1
  16    9   44 1
  17   10   17 1
  18   10   30 2
  19   11   12 ar
  20   11   16 ar
  21   12   13 ar
  22   12   45 1
  23   13   14 ar
  24   13   46 1
  25   14   15 ar
  26   14   47 1
  27   15   16 ar
  28   15   48 1
  29   16   49 1
  30   17   18 ar
  31   17   22 ar
  32   18   19 ar
  33   18   50 1
  34   19   20 ar
  35   19   51 1
  36   20   21 ar
  37   20   23 1
  38   21   22 ar
  39   21   52 1
  40   22   53 1
  41   23   24 1
  42   24   25 ar
  43   24   29 ar
  44   25   26 ar
  45   25   54 1
  46   26   27 ar
  47   26   55 1
  48   27   28 ar
  49   27   56 1
  50   28   29 ar
  51   28   57 1
  52   29   58 1
  53   31   32 1
  54   31   59 1
  55   31   60 1
  56   32   33 1
  57   33   34 2
  58   33   35 1
  59   35   61 1
  60   35   62 1
  61   35   63 1
  62   36   37 1
  63   36   64 1
  64   36   65 1
  65   37   38 1
  66   38   39 2
  67   38   40 1
  68   40   66 1
  69   40   67 1
  70   40   68 1

#	End of record

