#	Name: ASD02038400
#	Creating user name:	WinNT
#	Creation time:	15. 06. 2019 20:16

#	Modifying user name:	WinNT
#	Modification time:	15. 06. 2019 20:16

#	Program:	/corina/corina34_cracker 3.40 0067  02.08.2006

@<TRIPOS>MOLECULE
ASD02038400
  50   53    0    0    0
SMALL
NO_CHARGES


@<TRIPOS>ATOM
   1 N1            -0.0178     1.4608     0.0101 N.am    
   2 C2             0.0021    -0.0041     0.0020 C.3     
   3 C3             0.0228    -0.5218     1.4416 C.3     
   4 O4            -1.1971    -0.1638     2.0941 O.3     
   5 C5            -1.3411    -0.5513     3.3895 C.ar    
   6 C6            -2.5008    -0.2366     4.0824 C.ar    
   7 C7            -2.6471    -0.6303     5.3977 C.ar    
   8 C8            -1.6339    -1.3410     6.0270 C.ar    
   9 C9            -0.4728    -1.6546     5.3331 C.ar    
  10 C10           -0.3303    -1.2661     4.0158 C.ar    
  11 C11            1.2553     2.1757     0.0018 C.3     
  12 C12            1.0397     3.6253    -0.4369 C.3     
  13 N13           -0.0534     4.2032     0.3617 N.3     
  14 C14           -1.3324     3.5800    -0.0042 C.3     
  15 C15           -1.2010     2.0835     0.0192 C.2     
  16 C16           -0.1092     5.5913     0.2043 C.ar    
  17 C17           -1.0748     6.3290     0.8768 C.ar    
  18 C18           -1.1280     7.7018     0.7194 C.ar    
  19 C19           -0.2178     8.3407    -0.1097 C.ar    
  20 C20            0.7445     7.6059    -0.7797 C.ar    
  21 C21            0.8044     6.2347    -0.6200 C.ar    
  22 F22           -0.2711     9.6818    -0.2635 F       
  23 C23           -3.9057    -0.2911     6.1532 C.3     
  24 C24           -4.2338    -1.4188     7.1323 C.3     
  25 C25           -3.0069    -1.7825     7.9245 C.2     
  26 N26           -1.7859    -1.7405     7.3604 N.am    
  27 O27           -3.1200    -2.1173     9.0848 O.2     
  28 O28           -2.2105     1.4122     0.0559 O.2     
  29 F29           -2.0668     8.4207     1.3728 F       
  30 H30           -0.8878    -0.3767    -0.5053 H       
  31 H31            0.8920    -0.3525    -0.5222 H       
  32 H32            0.1271    -1.6067     1.4361 H       
  33 H33            0.8637    -0.0786     1.9750 H       
  34 H34           -3.2890     0.3165     3.5933 H       
  35 H35            0.3162    -2.2068     5.8219 H       
  36 H36            0.5726    -1.5103     3.4758 H       
  37 H37            1.6848     2.1610     1.0035 H       
  38 H38            1.9403     1.6864    -0.6907 H       
  39 H39            1.9535     4.1965    -0.2732 H       
  40 H40            0.7738     3.6518    -1.4937 H       
  41 H41           -2.1012     3.8893     0.7039 H       
  42 H42           -1.6166     3.8993    -1.0068 H       
  43 H43           -1.7837     5.8309     1.5216 H       
  44 H44            1.4522     8.1053    -1.4248 H       
  45 H45            1.5559     5.6623    -1.1436 H       
  46 H46           -3.7591     0.6375     6.7048 H       
  47 H47           -4.7297    -0.1695     5.4501 H       
  48 H48           -5.0198    -1.0906     7.8124 H       
  49 H49           -4.5782    -2.2914     6.5773 H       
  50 H50           -1.0059    -1.9883     7.8811 H       
@<TRIPOS>BOND
   1    1    2 1
   2    1   11 1
   3    1   15 am
   4    2    3 1
   5    2   30 1
   6    2   31 1
   7    3    4 1
   8    3   32 1
   9    3   33 1
  10    4    5 1
  11    5    6 ar
  12    5   10 ar
  13    6    7 ar
  14    6   34 1
  15    7    8 ar
  16    7   23 1
  17    8    9 ar
  18    8   26 1
  19    9   10 ar
  20    9   35 1
  21   10   36 1
  22   11   12 1
  23   11   37 1
  24   11   38 1
  25   12   13 1
  26   12   39 1
  27   12   40 1
  28   13   14 1
  29   13   16 1
  30   14   15 1
  31   14   41 1
  32   14   42 1
  33   15   28 2
  34   16   17 ar
  35   16   21 ar
  36   17   18 ar
  37   17   43 1
  38   18   19 ar
  39   18   29 1
  40   19   20 ar
  41   19   22 1
  42   20   21 ar
  43   20   44 1
  44   21   45 1
  45   23   24 1
  46   23   46 1
  47   23   47 1
  48   24   25 1
  49   24   48 1
  50   24   49 1
  51   25   26 am
  52   25   27 2
  53   26   50 1

#	End of record

