#	Name: ASD03240197
#	Creating user name:	WinNT
#	Creation time:	15. 06. 2019 20:34

#	Modifying user name:	WinNT
#	Modification time:	15. 06. 2019 20:34

#	Program:	/corina/corina34_cracker 3.40 0067  02.08.2006

@<TRIPOS>MOLECULE
ASD03240197
  49   53    0    0    0
SMALL
NO_CHARGES


@<TRIPOS>ATOM
   1 C1            -0.0167     1.3796     0.0096 C.ar    
   2 C2             0.0021    -0.0041     0.0020 C.ar    
   3 C3            -1.1838    -0.7120     0.0100 C.ar    
   4 C4            -2.3955    -0.0341     0.0257 C.ar    
   5 C5            -2.4116     1.3543     0.0333 C.ar    
   6 C6            -1.2230     2.0575     0.0306 C.ar    
   7 N7            -3.6000    -0.7500     0.0333 N.pl3   
   8 C8            -3.9126    -1.7664    -0.8298 C.2     
   9 C9            -5.1514    -2.2395    -0.5466 C.2     
  10 C10           -5.6513    -1.4516     0.5877 C.ar    
  11 C11           -4.6328    -0.5377     0.9098 C.ar    
  12 C12           -6.8320    -1.4379     1.3417 C.ar    
  13 N13           -6.9400    -0.5541     2.3302 N.ar    
  14 C14           -5.9607     0.2907     2.5969 C.ar    
  15 N15           -4.8333     0.3085     1.9188 N.ar    
  16 N16           -7.8603    -2.3212     1.0650 N.pl3   
  17 C17           -9.0871    -2.2911     1.8651 C.3     
  18 C18          -10.0547    -3.3611     1.3555 C.3     
  19 C19           -5.8621    -3.3368    -1.2452 C.ar    
  20 C20           -5.9588    -3.3340    -2.6361 C.ar    
  21 C21           -6.4317    -4.3786    -0.5143 C.ar    
  22 C22           -7.0922    -5.3973    -1.1702 C.ar    
  23 C23           -7.1898    -5.3863    -2.5501 C.ar    
  24 C24           -6.6217    -4.3582    -3.2809 C.ar    
  25 C25          -11.3167    -3.3301     2.1786 C.2     
  26 Cl26           1.4756     2.2666     0.0001 Cl      
  27 C27          -12.3943    -2.5926     1.9064 C.2     
  28 C28          -13.4368    -2.7286     2.8069 C.2     
  29 C29          -13.2057    -3.5765     3.8104 C.2     
  30 S30          -11.5968    -4.2666     3.6408 S.3     
  31 H31            0.9448    -0.5308    -0.0105 H       
  32 H32           -1.1686    -1.7918     0.0037 H       
  33 H33           -3.3528     1.8838     0.0451 H       
  34 H34           -1.2350     3.1374     0.0368 H       
  35 H35           -3.2705    -2.1346    -1.6163 H       
  36 H36           -6.0884     0.9924     3.4079 H       
  37 H37           -7.7689    -2.9604     0.3411 H       
  38 H38           -8.8447    -2.4880     2.9094 H       
  39 H39           -9.5529    -1.3094     1.7791 H       
  40 H40          -10.2970    -3.1642     0.3112 H       
  41 H41           -9.5888    -4.3428     1.4416 H       
  42 H42           -5.5159    -2.5317    -3.2076 H       
  43 H43           -6.3559    -4.3884     0.5630 H       
  44 H44           -7.5335    -6.2050    -0.6052 H       
  45 H45           -7.7077    -6.1857    -3.0591 H       
  46 H46           -6.7014    -4.3546    -4.3580 H       
  47 H47          -12.4492    -1.9387     1.0487 H       
  48 H48          -14.3666    -2.1887     2.7050 H       
  49 H49          -13.9015    -3.8068     4.6036 H       
@<TRIPOS>BOND
   1    1    2 ar
   2    1   26 1
   3    1    6 ar
   4    2    3 ar
   5    2   31 1
   6    3    4 ar
   7    3   32 1
   8    4    5 ar
   9    4    7 1
  10    5    6 ar
  11    5   33 1
  12    6   34 1
  13    7    8 1
  14    7   11 1
  15    8    9 2
  16    8   35 1
  17    9   10 1
  18    9   19 1
  19   10   11 ar
  20   10   12 ar
  21   11   15 ar
  22   12   13 ar
  23   12   16 1
  24   13   14 ar
  25   14   15 ar
  26   14   36 1
  27   16   17 1
  28   16   37 1
  29   17   18 1
  30   17   38 1
  31   17   39 1
  32   18   25 1
  33   18   40 1
  34   18   41 1
  35   19   20 ar
  36   19   21 ar
  37   20   24 ar
  38   20   42 1
  39   21   22 ar
  40   21   43 1
  41   22   23 ar
  42   22   44 1
  43   23   24 ar
  44   23   45 1
  45   24   46 1
  46   25   27 2
  47   25   30 1
  48   27   28 1
  49   27   47 1
  50   28   29 2
  51   28   48 1
  52   29   30 1
  53   29   49 1

#	End of record

