#	Name: ASD01880095
#	Creating user name:	WinNT
#	Creation time:	15. 06. 2019 19:40

#	Modifying user name:	WinNT
#	Modification time:	15. 06. 2019 19:40

#	Program:	/corina/corina34_cracker 3.40 0067  02.08.2006

@<TRIPOS>MOLECULE
ASD01880095
  68   72    0    0    0
SMALL
NO_CHARGES


@<TRIPOS>ATOM
   1 C1            -0.0167     1.3834     0.0096 C.ar    
   2 C2             0.0021    -0.0041     0.0020 C.ar    
   3 C3            -1.1796    -0.7141     0.0090 C.ar    
   4 C4            -2.4038    -0.0434     0.0238 C.ar    
   5 C5            -2.4362     1.3457     0.0320 C.ar    
   6 C6            -1.2418     2.0668     0.0309 C.ar    
   7 C7            -3.6715    -0.8145     0.0302 C.ar    
   8 C8            -4.8950    -0.1483     0.0449 C.ar    
   9 C9            -6.0712    -0.8708     0.0504 C.ar    
  10 C10           -6.0367    -2.2533     0.0417 C.ar    
  11 C11           -4.8245    -2.9200     0.0271 C.ar    
  12 C12           -3.6426    -2.2078     0.0157 C.ar    
  13 C13           -4.7949    -4.4266     0.0182 C.3     
  14 O14           -4.7975    -4.8952    -1.3318 O.3     
  15 C15           -4.7727    -6.2388    -1.5175 C.ar    
  16 C16           -4.7462    -7.0910    -0.4200 C.ar    
  17 C17           -4.7209    -8.4576    -0.6048 C.ar    
  18 C18           -4.7223    -8.9852    -1.8980 C.ar    
  19 C19           -4.7497    -8.1122    -2.9994 C.ar    
  20 C20           -4.7795    -6.7623    -2.8060 C.ar    
  21 C21           -4.6894    -9.5833     0.4008 C.3     
  22 C22           -4.6711   -10.8852    -0.4120 C.3     
  23 C23           -4.6929   -10.4537    -1.8582 C.2     
  24 C24           -3.3967   -11.6779    -0.1146 C.3     
  25 C25           -3.3307   -12.0275     1.3825 C.3     
  26 C26           -3.3132   -13.5673     1.4751 C.3     
  27 C27           -2.7650   -14.0243     0.1004 C.3     
  28 C28           -3.4170   -13.0174    -0.8795 C.3     
  29 O29           -4.6868   -11.1915    -2.8209 O.2     
  30 C30           -4.8093    -5.8344    -3.9931 C.3     
  31 C31           -4.7511    -8.6700    -4.3993 C.3     
  32 O32            1.1480     2.0780     0.0023 O.3     
  33 C33            2.3573     1.3168    -0.0134 C.3     
  34 C34           -1.2670     3.5408     0.0395 C.2     
  35 O35           -0.2253     4.1663     0.0385 O.2     
  36 O36           -2.4453     4.1945     0.0486 O.3     
  37 H37            0.9456    -0.5295    -0.0098 H       
  38 H38           -1.1581    -1.7939     0.0026 H       
  39 H39           -3.3829     1.8654     0.0431 H       
  40 H40           -4.9231     0.9313     0.0525 H       
  41 H41           -7.0203    -0.3554     0.0618 H       
  42 H42           -6.9593    -2.8146     0.0467 H       
  43 H43           -2.6969    -2.7292     0.0042 H       
  44 H44           -3.8934    -4.7753     0.5220 H       
  45 H45           -5.6729    -4.8104     0.5377 H       
  46 H46           -4.7451    -6.6822     0.5797 H       
  47 H47           -3.7913    -9.5123     1.0145 H       
  48 H48           -5.5780    -9.5476     1.0310 H       
  49 H49           -5.5519   -11.4853    -0.1836 H       
  50 H50           -2.5203   -11.0967    -0.4012 H       
  51 H51           -2.4219   -11.6167     1.8222 H       
  52 H52           -4.2066   -11.6324     1.8971 H       
  53 H53           -2.6515   -13.8937     2.2774 H       
  54 H54           -4.3213   -13.9516     1.6306 H       
  55 H55           -1.6784   -13.9430     0.0716 H       
  56 H56           -3.0833   -15.0425    -0.1233 H       
  57 H57           -4.4418   -13.3129    -1.1042 H       
  58 H58           -2.8310   -12.9426    -1.7955 H       
  59 H59           -5.8438    -5.6344    -4.2720 H       
  60 H60           -4.3151    -4.8979    -3.7346 H       
  61 H61           -4.2904    -6.2998    -4.8311 H       
  62 H62           -5.7788    -8.8251    -4.7277 H       
  63 H63           -4.2572    -7.9676    -5.0708 H       
  64 H64           -4.2181    -9.6207    -4.4122 H       
  65 H65            3.2122     1.9930    -0.0179 H       
  66 H66            2.3995     0.6836     0.8729 H       
  67 H67            2.3825     0.6932    -0.9070 H       
  68 H68           -2.4112     5.1609     0.0541 H       
@<TRIPOS>BOND
   1    1    2 ar
   2    1   32 1
   3    1    6 ar
   4    2    3 ar
   5    2   37 1
   6    3    4 ar
   7    3   38 1
   8    4    5 ar
   9    4    7 1
  10    5    6 ar
  11    5   39 1
  12    6   34 1
  13    7    8 ar
  14    7   12 ar
  15    8    9 ar
  16    8   40 1
  17    9   10 ar
  18    9   41 1
  19   10   11 ar
  20   10   42 1
  21   11   12 ar
  22   11   13 1
  23   12   43 1
  24   13   14 1
  25   13   44 1
  26   13   45 1
  27   14   15 1
  28   15   16 ar
  29   15   20 ar
  30   16   17 ar
  31   16   46 1
  32   17   18 ar
  33   17   21 1
  34   18   19 ar
  35   18   23 1
  36   19   20 ar
  37   19   31 1
  38   20   30 1
  39   21   22 1
  40   21   47 1
  41   21   48 1
  42   22   23 1
  43   22   24 1
  44   22   49 1
  45   23   29 2
  46   24   25 1
  47   24   28 1
  48   24   50 1
  49   25   26 1
  50   25   51 1
  51   25   52 1
  52   26   27 1
  53   26   53 1
  54   26   54 1
  55   27   28 1
  56   27   55 1
  57   27   56 1
  58   28   57 1
  59   28   58 1
  60   30   59 1
  61   30   60 1
  62   30   61 1
  63   31   62 1
  64   31   63 1
  65   31   64 1
  66   32   33 1
  67   33   65 1
  68   33   66 1
  69   33   67 1
  70   34   35 2
  71   34   36 1
  72   36   68 1

#	End of record

