#	Name: ASD03090467
#	Creating user name:	WinNT
#	Creation time:	15. 06. 2019 20:28

#	Modifying user name:	WinNT
#	Modification time:	15. 06. 2019 20:28

#	Program:	/corina/corina34_cracker 3.40 0067  02.08.2006

@<TRIPOS>MOLECULE
ASD03090467
  39   41    0    0    0
SMALL
NO_CHARGES


@<TRIPOS>ATOM
   1 C1            -0.0187     1.5020     0.0192 C.2     
   2 C2             0.0008    -0.0048     0.0174 C.3     
   3 O3             1.0237     2.1221     0.0154 O.2     
   4 N4            -1.1946     2.1607     0.0195 N.am    
   5 C5            -2.1787     4.3018    -0.5315 C.ar    
   6 C6            -1.2153     3.5574     0.1329 C.ar    
   7 C7            -0.2688     4.2160     0.9151 C.ar    
   8 C8            -0.3280     5.5958     0.9983 C.ar    
   9 C9            -1.3216     6.2740     0.3046 C.ar    
  10 N10           -2.2044     5.6167    -0.4283 N.ar    
  11 O11           -1.3876     7.6278     0.3802 O.3     
  12 C12           -2.4318     8.2685    -0.3555 C.3     
  13 C13           -2.3462     9.7821    -0.1495 C.3     
  14 F14           -1.1057    10.2448    -0.6015 F       
  15 F15           -3.3685    10.4093    -0.8698 F       
  16 F16           -2.4861    10.0763     1.2110 F       
  17 N17            4.2772    -1.4566    -2.2029 N.pl3   
  18 C18            5.4677    -1.8601    -1.6624 C.2     
  19 C19            5.3942    -1.8340    -0.3223 C.2     
  20 C20            4.0463    -1.3763     0.0237 C.ar    
  21 C21            3.3781    -1.1485     1.2284 C.ar    
  22 C22            2.0840    -0.7107     1.2139 C.ar    
  23 C23            1.4280    -0.4887     0.0107 C.ar    
  24 C24            2.0684    -0.7066    -1.1893 C.ar    
  25 C25            3.3860    -1.1533    -1.1982 C.ar    
  26 H26           -0.5044    -0.3758     0.9091 H       
  27 H27           -0.5121    -0.3738    -0.8708 H       
  28 H28           -2.0265     1.6681    -0.0589 H       
  29 H29           -2.9134     3.7997    -1.1435 H       
  30 H30            0.4929     3.6624     1.4441 H       
  31 H31            0.3895     6.1387     1.5956 H       
  32 H32           -2.3228     8.0393    -1.4155 H       
  33 H33           -3.3983     7.9080    -0.0033 H       
  34 H34            4.0903    -1.3902    -3.1524 H       
  35 H35            6.3376    -2.1562    -2.2300 H       
  36 H36            6.1797    -2.0999     0.3695 H       
  37 H37            3.8820    -1.3191     2.1683 H       
  38 H38            1.5675    -0.5350     2.1460 H       
  39 H39            1.5494    -0.5314    -2.1200 H       
@<TRIPOS>BOND
   1    1    2 1
   2    1    3 2
   3    1    4 am
   4    2   23 1
   5    2   26 1
   6    2   27 1
   7    4    6 1
   8    4   28 1
   9    5    6 ar
  10    5   10 ar
  11    5   29 1
  12    6    7 ar
  13    7    8 ar
  14    7   30 1
  15    8    9 ar
  16    8   31 1
  17    9   10 ar
  18    9   11 1
  19   11   12 1
  20   12   13 1
  21   12   32 1
  22   12   33 1
  23   13   14 1
  24   13   15 1
  25   13   16 1
  26   17   18 1
  27   17   25 1
  28   17   34 1
  29   18   19 2
  30   18   35 1
  31   19   20 1
  32   19   36 1
  33   20   21 ar
  34   20   25 ar
  35   21   22 ar
  36   21   37 1
  37   22   23 ar
  38   22   38 1
  39   23   24 ar
  40   24   25 ar
  41   24   39 1

#	End of record

