#	Name: ASD03470012
#	Creating user name:	WinNT
#	Creation time:	15. 06. 2019 20:42

#	Modifying user name:	WinNT
#	Modification time:	15. 06. 2019 20:42

#	Program:	/corina/corina34_cracker 3.40 0067  02.08.2006

@<TRIPOS>MOLECULE
ASD03470012
 166  155    0    0    0
SMALL
NO_CHARGES


@<TRIPOS>ATOM
   1 N1            -1.0965     1.1261     1.4100 N.am    
   2 C2            -1.1235    -0.1833     2.0664 C.3     
   3 C3            -2.0167    -0.1194     3.2785 C.2     
   4 O4            -2.5757     0.9179     3.5658 O.2     
   5 C5            -1.6619    -1.2318     1.0909 C.3     
   6 N6            -2.1943    -1.2148     4.0433 N.am    
   7 C7            -3.0626    -1.1526     5.2216 C.3     
   8 C8            -3.5856    -2.5311     5.5335 C.2     
   9 O9            -3.0266    -3.5083     5.0823 O.2     
  10 C10           -2.2640    -0.6277     6.4164 C.3     
  11 C11           -1.6530     0.7301     6.0646 C.3     
  12 O12           -3.1318    -0.4823     7.5424 O.3     
  13 N13           -4.6747    -2.6781     6.3138 N.am    
  14 C14           -5.2481    -4.0091     6.5280 C.3     
  15 C15           -6.4676    -3.8974     7.4452 C.3     
  16 C16           -7.0665    -5.2874     7.6689 C.3     
  17 C17           -8.2860    -5.1757     8.5861 C.3     
  18 C18           -8.8848    -6.5658     8.8099 C.3     
  19 N19          -10.0558    -6.4585     9.6904 N.3     
  20 N20            6.7288     3.5628    -9.2909 N.3     
  21 C21            6.1163     4.5285    -8.3689 C.3     
  22 C22            4.8601     3.9369    -7.7834 C.2     
  23 O23            4.6913     2.7360    -7.7981 O.2     
  24 C24            7.1001     4.8531    -7.2429 C.3     
  25 C25            8.3040     5.5562    -7.8148 C.2     
  26 O26            8.3686     5.7753    -9.0013 O.2     
  27 O27            9.3046     5.9391    -7.0062 O.3     
  28 N28            3.9241     4.7423    -7.2433 N.am    
  29 C29            2.7555     4.1629    -6.5764 C.3     
  30 C30            3.1034     3.8366    -5.1468 C.2     
  31 O31            4.2177     4.0656    -4.7265 O.2     
  32 C32            1.6021     5.1678    -6.6040 C.3     
  33 C33            1.1639     5.3906    -8.0286 C.2     
  34 N34            0.1014     6.1769    -8.2917 N.am    
  35 O35            1.7674     4.8623    -8.9383 O.2     
  36 N36            2.1761     3.2904    -4.3355 N.am    
  37 C37            2.4785     3.0748    -2.9183 C.3     
  38 C38            1.1951     3.0513    -2.1287 C.2     
  39 O39            0.1286     3.1107    -2.7031 O.2     
  40 C40            3.2057     1.7393    -2.7494 C.3     
  41 C41            2.3937     0.6283    -3.4182 C.3     
  42 C42            3.2061    -0.6682    -3.4177 C.3     
  43 C43            1.0904     0.4137    -2.6460 C.3     
  44 N44            1.2326     2.9645    -0.7843 N.am    
  45 C45           -0.0121     2.8247    -0.0244 C.3     
  46 C46           -0.0399     1.4777     0.6508 C.2     
  47 O47            0.8886     0.7100     0.5110 O.2     
  48 C48           -0.0903     3.9272     1.0336 C.3     
  49 C49           -0.1471     5.2715     0.3549 C.2     
  50 O50           -0.2661     6.3892     1.0886 O.3     
  51 O51           -0.0856     5.3432    -0.8497 O.2     
  52 H52           -1.8409     1.7385     1.5186 H       
  53 H53           -0.1139    -0.4569     2.3731 H       
  54 H54           -2.6715    -0.9582     0.7842 H       
  55 H55           -1.0159    -1.2781     0.2142 H       
  56 H56           -1.6820    -2.2061     1.5792 H       
  57 H57           -1.7472    -2.0444     3.8135 H       
  58 H58           -3.8993    -0.4833     5.0214 H       
  59 H59           -1.4685    -1.3321     6.6594 H       
  60 H60           -2.4456     1.4227     5.7812 H       
  61 H61           -1.1190     1.1233     6.9297 H       
  62 H62           -0.9592     0.6117     5.2323 H       
  63 H63           -2.6919    -0.1526     8.3380 H       
  64 H64           -5.0788    -1.9026     6.7335 H       
  65 H65           -5.5511    -4.4326     5.5705 H       
  66 H66           -4.5028    -4.6554     6.9916 H       
  67 H67           -6.1646    -3.4739     8.4027 H       
  68 H68           -7.2129    -3.2510     6.9816 H       
  69 H69           -7.3695    -5.7109     6.7114 H       
  70 H70           -6.3212    -5.9338     8.1325 H       
  71 H71           -7.9829    -4.7522     9.5436 H       
  72 H72           -9.0313    -4.5294     8.1225 H       
  73 H73           -9.1879    -6.9893     7.8523 H       
  74 H74           -8.1396    -7.2121     9.2734 H       
  75 H75          -10.4696    -7.3642     9.8537 H       
  76 H76           -9.8137    -6.0094    10.5609 H       
  77 H77            6.9667     2.7069    -8.8125 H       
  78 H78            6.1243     3.3810   -10.0781 H       
  79 H79            5.8697     5.4418    -8.9103 H       
  80 H80            6.6149     5.4997    -6.5117 H       
  81 H81            7.4152     3.9290    -6.7582 H       
  82 H82           10.0559     6.3867    -7.4190 H       
  83 H83            4.0242     5.7057    -7.2962 H       
  84 H84            2.4561     3.2518    -7.0945 H       
  85 H85            0.7661     4.7774    -6.0236 H       
  86 H86            1.9332     6.1129    -6.1737 H       
  87 H87           -0.3813     6.5994    -7.5641 H       
  88 H88           -0.1806     6.3203    -9.2086 H       
  89 H89            1.3086     3.0400    -4.6898 H       
  90 H90            3.1137     3.8828    -2.5553 H       
  91 H91            4.1898     1.8001    -3.2141 H       
  92 H92            3.3181     1.5185    -1.6879 H       
  93 H93            2.1649     0.9133    -4.4451 H       
  94 H94            3.4349    -0.9532    -2.3908 H       
  95 H95            2.6276    -1.4597    -3.8941 H       
  96 H96            4.1346    -0.5153    -3.9678 H       
  97 H97            1.3009     0.3919    -1.5768 H       
  98 H98            0.4005     1.2291    -2.8639 H       
  99 H99            0.6411    -0.5326    -2.9473 H       
 100 H100           2.0836     2.9945    -0.3199 H       
 101 H101          -0.8624     2.9095    -0.7010 H       
 102 H102          -0.9861     3.7874     1.6385 H       
 103 H103           0.7911     3.8801     1.6732 H       
 104 H104          -0.2985     7.2281     0.6086 H       
 105 C105          15.9983    14.0721    15.5789 C.2     
 106 O106          17.0403    14.6927    15.5723 O.2     
 107 N107          16.0166    12.7245    15.5715 N.am    
 108 H108          15.0559    14.5993    15.5953 H       
 109 H109          16.8631    12.2509    15.5609 H       
 110 H110          15.1833    12.2281    15.5768 H       
 111 N111          23.0398    21.5392    21.5328 N.3     
 112 C112          23.0598    20.0703    21.5248 C.3     
 113 H113          23.9768    21.9136    21.5259 H       
 114 H114          22.5014    21.8978    20.7585 H       
 115 H115          22.0403    19.6927    21.6033 H       
 116 H116          23.5070    19.7182    20.5953 H       
 117 H117          23.6467    19.7103    22.3697 H       
 118 C118          29.5040    28.0035    28.2528 C.3     
 119 H119          29.5188    26.9136    28.2468 H       
 120 H120          30.5266    28.3807    28.2450 H       
 121 H121          28.9768    28.3645    27.3697 H       
 122 H122          28.9938    28.3550    29.1496 H       
 123 C123          36.4691    34.5882    34.1562 C.2     
 124 O124          36.4855    33.3807    34.1496 O.2     
 125 H125          37.3970    35.1409    34.1503 H       
 126 H126          35.5266    35.1154    34.1635 H       
 127 C127          42.9241    41.2308    40.0466 C.3     
 128 H128          42.9389    40.1409    40.0406 H       
 129 H129          43.9467    41.6080    40.0389 H       
 130 H130          42.3970    41.5918    39.1635 H       
 131 H131          42.4140    41.5823    40.9434 H       
 132 O132          48.9467    47.5749    45.9496 O.3     
 133 H133          48.9598    46.6080    45.9443 H       
 134 H134          49.8247    47.9802    45.9434 H       
 135 C135          55.8265    54.8874    51.8548 C.3     
 136 C136          55.8473    53.3575    51.8464 C.3     
 137 H137          56.8491    55.2646    51.8471 H       
 138 H138          55.2993    55.2484    50.9718 H       
 139 H139          55.3163    55.2389    52.7516 H       
 140 H140          56.3745    52.9964    52.7295 H       
 141 H141          54.8247    52.9802    51.8541 H       
 142 H142          56.3575    53.0060    50.9496 H       
 143 C143          62.8510    63.3778    59.9019 C.3     
 144 C144          62.8717    61.8479    59.8935 C.3     
 145 C145          63.5879    61.3545    58.6347 C.3     
 146 H146          63.8736    63.7551    59.8942 H       
 147 H147          62.3238    63.7389    59.0188 H       
 148 H148          62.3408    63.7293    60.7987 H       
 149 H149          63.3989    61.4869    60.7765 H       
 150 H150          61.8491    61.4707    59.9012 H       
 151 H151          64.6104    61.7318    58.6269 H       
 152 H152          63.6026    60.2646    58.6287 H       
 153 H153          63.0607    61.7156    57.7516 H       
 154 C154          70.6123    70.6622    66.7039 C.3     
 155 C155          70.6330    69.1323    66.6955 C.3     
 156 H156          71.6349    71.0395    66.6962 H       
 157 H157          70.0851    71.0233    65.8208 H       
 158 H158          70.1021    71.0137    67.6007 H       
 159 H159          71.1602    68.7713    67.5785 H       
 160 H160          69.6104    68.7551    66.7032 H       
 161 H161          71.1432    68.7808    65.7987 H       
 162 C162          77.1621    77.1294    73.4837 C.3     
 163 H163          77.1768    76.0395    73.4778 H       
 164 H164          78.1847    77.5066    73.4760 H       
 165 H165          76.6349    77.4904    72.6007 H       
 166 H166          76.6519    77.4809    74.3805 H       
@<TRIPOS>BOND
   1    1    2 1
   2    1   46 am
   3    1   52 1
   4    2    3 1
   5    2    5 1
   6    2   53 1
   7    3    4 2
   8    3    6 am
   9    5   54 1
  10    5   55 1
  11    5   56 1
  12    6    7 1
  13    6   57 1
  14    7    8 1
  15    7   10 1
  16    7   58 1
  17    8    9 2
  18    8   13 am
  19   10   11 1
  20   10   12 1
  21   10   59 1
  22   11   60 1
  23   11   61 1
  24   11   62 1
  25   12   63 1
  26   13   14 1
  27   13   64 1
  28   14   15 1
  29   14   65 1
  30   14   66 1
  31   15   16 1
  32   15   67 1
  33   15   68 1
  34   16   17 1
  35   16   69 1
  36   16   70 1
  37   17   18 1
  38   17   71 1
  39   17   72 1
  40   18   19 1
  41   18   73 1
  42   18   74 1
  43   19   75 1
  44   19   76 1
  45   20   21 1
  46   20   77 1
  47   20   78 1
  48   21   24 1
  49   21   22 1
  50   21   79 1
  51   22   28 am
  52   22   23 2
  53   24   25 1
  54   24   80 1
  55   24   81 1
  56   25   26 2
  57   25   27 1
  58   27   82 1
  59   28   29 1
  60   28   83 1
  61   29   32 1
  62   29   30 1
  63   29   84 1
  64   30   31 2
  65   30   36 am
  66   32   33 1
  67   32   85 1
  68   32   86 1
  69   33   34 am
  70   33   35 2
  71   34   87 1
  72   34   88 1
  73   36   37 1
  74   36   89 1
  75   37   38 1
  76   37   40 1
  77   37   90 1
  78   38   39 2
  79   38   44 am
  80   40   41 1
  81   40   91 1
  82   40   92 1
  83   41   43 1
  84   41   42 1
  85   41   93 1
  86   42   94 1
  87   42   95 1
  88   42   96 1
  89   43   97 1
  90   43   98 1
  91   43   99 1
  92   44   45 1
  93   44  100 1
  94   45   46 1
  95   45   48 1
  96   45  101 1
  97   46   47 2
  98   48   49 1
  99   48  102 1
 100   48  103 1
 101   49   50 1
 102   49   51 2
 103   50  104 1
 104  105  107 am
 105  105  106 2
 106  105  108 1
 107  107  109 1
 108  107  110 1
 109  111  112 1
 110  111  113 1
 111  111  114 1
 112  112  115 1
 113  112  116 1
 114  112  117 1
 115  118  119 1
 116  118  120 1
 117  118  121 1
 118  118  122 1
 119  123  124 2
 120  123  125 1
 121  123  126 1
 122  127  128 1
 123  127  129 1
 124  127  130 1
 125  127  131 1
 126  132  133 1
 127  132  134 1
 128  135  136 1
 129  135  137 1
 130  135  138 1
 131  135  139 1
 132  136  140 1
 133  136  141 1
 134  136  142 1
 135  143  144 1
 136  143  146 1
 137  143  147 1
 138  143  148 1
 139  144  145 1
 140  144  149 1
 141  144  150 1
 142  145  151 1
 143  145  152 1
 144  145  153 1
 145  154  155 1
 146  154  156 1
 147  154  157 1
 148  154  158 1
 149  155  159 1
 150  155  160 1
 151  155  161 1
 152  162  163 1
 153  162  164 1
 154  162  165 1
 155  162  166 1

#	End of record

