#	Name: ASD01320065
#	Creating user name:	WinNT
#	Creation time:	15. 06. 2019 19:15

#	Modifying user name:	WinNT
#	Modification time:	15. 06. 2019 19:15

#	Program:	/corina/corina34_cracker 3.40 0067  02.08.2006

@<TRIPOS>MOLECULE
ASD01320065
 149  154    0    0    0
SMALL
NO_CHARGES


@<TRIPOS>ATOM
   1 C1            -5.6086    -3.2162    -0.8584 C.3     
   2 C2            -5.2418    -4.7009    -0.9043 C.3     
   3 C3            -4.3333    -4.9649    -2.1067 C.3     
   4 C4            -3.9665    -6.4496    -2.1526 C.3     
   5 C5            -3.0580    -6.7135    -3.3550 C.3     
   6 C6            -2.6913    -8.1982    -3.4009 C.3     
   7 C7            -1.7827    -8.4622    -4.6033 C.3     
   8 C8            -1.4160    -9.9469    -4.6492 C.3     
   9 C9            -0.5074   -10.2108    -5.8516 C.3     
  10 C10           -0.1407   -11.6955    -5.8975 C.3     
  11 C11            0.7678   -11.9595    -7.1000 C.3     
  12 C12            1.1346   -13.4442    -7.1458 C.3     
  13 C13            2.0431   -13.7081    -8.3483 C.3     
  14 C14            2.4099   -15.1928    -8.3942 C.3     
  15 C15            3.3184   -15.4568    -9.5966 C.3     
  16 C16            3.6851   -16.9415    -9.6425 C.3     
  17 C17            4.5937   -17.2054   -10.8449 C.3     
  18 C18            4.9549   -18.6678   -10.8901 C.2     
  19 O19            4.5294   -19.4216   -10.0471 O.2     
  20 O20            5.7494   -19.1330   -11.8669 O.3     
  21 C21            6.0556   -20.5522   -11.8478 C.3     
  22 C22            6.9527   -20.8882   -13.0111 C.2     
  23 N23            7.4430   -22.0935   -13.3219 N.2     
  24 N24            8.1668   -21.9884   -14.3800 N.2     
  25 N25            8.1812   -20.7679   -14.7887 N.pl3   
  26 C26            7.4162   -20.0310   -13.9505 C.2     
  27 C27            8.8982   -20.2643   -15.9628 C.3     
  28 C28           10.3556   -20.6328   -15.8577 C.2     
  29 O29           10.7545   -21.2526   -14.9002 O.2     
  30 O30           11.2107   -20.2725   -16.8277 O.3     
  31 C31           12.6031   -20.6624   -16.6596 C.3     
  32 C32           12.8239   -22.0309   -17.2904 C.3     
  33 C33           14.2915   -22.4341   -17.1850 C.3     
  34 C34           15.1605   -21.4333   -17.9693 C.3     
  35 C35           14.9364   -20.0441   -17.3881 C.3     
  36 C36           13.4999   -19.5906   -17.2803 C.3     
  37 C37           12.9165   -19.1307   -18.6153 C.3     
  38 C38           13.4481   -18.3745   -16.3216 C.3     
  39 C39           15.8338   -19.0386   -18.1092 C.3     
  40 C40           17.2836   -19.3828   -17.7217 C.3     
  41 C41           17.6442   -20.7847   -18.2043 C.3     
  42 C42           16.6241   -21.8237   -17.7607 C.3     
  43 C43           16.9362   -23.1621   -18.4299 C.3     
  44 C44           18.3784   -23.5176   -18.1897 C.2     
  45 C45           19.2924   -22.6540   -17.8594 C.2     
  46 C46           19.0273   -21.1835   -17.6779 C.3     
  47 C47           19.0590   -20.9340   -16.1620 C.3     
  48 C48           20.1259   -20.3310   -18.2957 C.3     
  49 C49           21.5221   -20.8469   -17.9449 C.3     
  50 C50           21.6830   -22.3041   -18.3847 C.3     
  51 C51           20.6984   -23.1563   -17.5865 C.3     
  52 C52           20.8351   -24.6269   -17.9460 C.3     
  53 C53           22.2620   -25.1198   -17.7102 C.3     
  54 C54           22.5708   -25.1342   -16.2114 C.3     
  55 C55           22.3771   -26.5577   -18.2419 C.3     
  56 C56           23.2757   -24.2474   -18.4422 C.3     
  57 C57           23.1095   -22.7720   -18.0990 C.3     
  58 C58           21.4056   -22.4145   -19.8597 C.2     
  59 O59           20.5104   -23.1232   -20.2547 O.2     
  60 O60           22.1529   -21.7256   -20.7365 O.3     
  61 C61           17.7324   -20.7569   -19.7394 C.3     
  62 C62           14.7649   -21.5249   -19.4390 C.3     
  63 H63           -4.7006    -2.6204    -0.7655 H       
  64 H64           -6.1306    -2.9424    -1.7753 H       
  65 H65           -6.2558    -3.0282    -0.0018 H       
  66 H66           -4.7198    -4.9747     0.0126 H       
  67 H67           -6.1498    -5.2968    -0.9972 H       
  68 H68           -4.8553    -4.6911    -3.0236 H       
  69 H69           -3.4253    -4.3690    -2.0138 H       
  70 H70           -3.4445    -6.7234    -1.2357 H       
  71 H71           -4.8745    -7.0454    -2.2455 H       
  72 H72           -3.5800    -6.4397    -4.2719 H       
  73 H73           -2.1500    -6.1177    -3.2621 H       
  74 H74           -2.1692    -8.4720    -2.4841 H       
  75 H75           -3.5992    -8.7941    -3.4938 H       
  76 H76           -2.3047    -8.1884    -5.5202 H       
  77 H77           -0.8747    -7.8663    -4.5104 H       
  78 H78           -0.8940   -10.2207    -3.7324 H       
  79 H79           -2.3240   -10.5427    -4.7422 H       
  80 H80           -1.0295    -9.9370    -6.7685 H       
  81 H81            0.4005    -9.6150    -5.7587 H       
  82 H82            0.3813   -11.9693    -4.9807 H       
  83 H83           -1.0487   -12.2914    -5.9905 H       
  84 H84            0.2458   -11.6857    -8.0168 H       
  85 H85            1.6758   -11.3636    -7.0070 H       
  86 H86            1.6566   -13.7180    -6.2290 H       
  87 H87            0.2266   -14.0400    -7.2388 H       
  88 H88            1.5211   -13.4343    -9.2651 H       
  89 H89            2.9511   -13.1123    -8.2553 H       
  90 H90            2.9319   -15.4666    -7.4773 H       
  91 H91            1.5019   -15.7887    -8.4871 H       
  92 H92            2.7964   -15.1830   -10.5134 H       
  93 H93            4.2264   -14.8609    -9.5036 H       
  94 H94            4.2072   -17.2153    -8.7256 H       
  95 H95            2.7772   -17.5373    -9.7354 H       
  96 H96            4.0717   -16.9316   -11.7617 H       
  97 H97            5.5017   -16.6096   -10.7520 H       
  98 H98            6.5611   -20.8024   -10.9151 H       
  99 H99            5.1311   -21.1244   -11.9249 H       
 100 H100           7.2208   -18.9707   -14.0139 H       
 101 H101           8.4754   -20.7075   -16.8644 H       
 102 H102           8.8002   -19.1797   -16.0108 H       
 103 H103          12.8174   -20.7226   -15.5865 H       
 104 H104          12.2209   -22.7707   -16.7426 H       
 105 H105          12.4852   -22.0358   -18.3220 H       
 106 H106          14.6028   -22.4291   -16.1411 H       
 107 H107          14.4304   -23.4294   -17.6053 H       
 108 H108          15.3278   -20.0921   -16.3385 H       
 109 H109          12.8377   -19.9829   -19.2903 H       
 110 H110          11.9269   -18.7041   -18.4517 H       
 111 H111          13.5687   -18.3769   -19.0565 H       
 112 H112          14.0663   -17.5704   -16.7210 H       
 113 H113          12.4186   -18.0291   -16.2282 H       
 114 H114          13.8232   -18.6684   -15.3413 H       
 115 H115          15.7105   -19.0760   -19.1800 H       
 116 H116          15.6269   -18.0257   -17.7574 H       
 117 H117          17.9477   -18.6521   -18.1856 H       
 118 H118          17.3452   -19.2906   -16.6405 H       
 119 H119          16.7450   -21.9770   -16.6669 H       
 120 H120          16.3137   -23.9427   -17.9746 H       
 121 H121          16.7467   -23.1512   -19.4965 H       
 122 H122          18.6572   -24.5560   -18.3015 H       
 123 H123          18.2884   -21.5347   -15.6788 H       
 124 H124          20.0366   -21.2122   -15.7684 H       
 125 H125          18.8744   -19.8783   -15.9636 H       
 126 H126          20.0509   -20.2441   -19.3735 H       
 127 H127          20.0365   -19.3082   -17.8886 H       
 128 H128          22.2680   -20.2403   -18.4685 H       
 129 H129          21.6994   -20.7686   -16.8747 H       
 130 H130          20.9069   -23.0259   -16.5157 H       
 131 H131          20.1575   -25.2133   -17.3088 H       
 132 H132          20.5515   -24.8007   -18.9836 H       
 133 H133          21.8733   -25.7999   -15.7030 H       
 134 H134          23.5901   -25.4870   -16.0538 H       
 135 H135          22.4691   -24.1260   -15.8097 H       
 136 H136          22.1513   -26.5699   -19.3082 H       
 137 H137          23.3908   -26.9245   -18.0810 H       
 138 H138          21.6708   -27.1981   -17.7136 H       
 139 H139          24.2859   -24.5658   -18.1483 H       
 140 H140          23.1851   -24.4022   -19.5180 H       
 141 H141          23.8026   -22.1793   -18.7071 H       
 142 H142          23.3447   -22.5980   -17.0480 H       
 143 H143          21.9370   -21.8286   -21.6735 H       
 144 H144          18.5376   -20.0887   -20.0450 H       
 145 H145          17.9339   -21.7619   -20.1101 H       
 146 H146          16.7884   -20.4002   -20.1512 H       
 147 H147          13.6804   -21.4613   -19.5280 H       
 148 H148          15.2235   -20.7042   -19.9905 H       
 149 H149          15.1081   -22.4748   -19.8491 H       
@<TRIPOS>BOND
   1    1    2 1
   2    1   63 1
   3    1   64 1
   4    1   65 1
   5    2    3 1
   6    2   66 1
   7    2   67 1
   8    3    4 1
   9    3   68 1
  10    3   69 1
  11    4    5 1
  12    4   70 1
  13    4   71 1
  14    5    6 1
  15    5   72 1
  16    5   73 1
  17    6    7 1
  18    6   74 1
  19    6   75 1
  20    7    8 1
  21    7   76 1
  22    7   77 1
  23    8    9 1
  24    8   78 1
  25    8   79 1
  26    9   10 1
  27    9   80 1
  28    9   81 1
  29   10   11 1
  30   10   82 1
  31   10   83 1
  32   11   12 1
  33   11   84 1
  34   11   85 1
  35   12   13 1
  36   12   86 1
  37   12   87 1
  38   13   14 1
  39   13   88 1
  40   13   89 1
  41   14   15 1
  42   14   90 1
  43   14   91 1
  44   15   16 1
  45   15   92 1
  46   15   93 1
  47   16   17 1
  48   16   94 1
  49   16   95 1
  50   17   18 1
  51   17   96 1
  52   17   97 1
  53   18   19 2
  54   18   20 1
  55   20   21 1
  56   21   22 1
  57   21   98 1
  58   21   99 1
  59   22   23 1
  60   22   26 2
  61   23   24 2
  62   24   25 1
  63   25   26 1
  64   25   27 1
  65   26  100 1
  66   27   28 1
  67   27  101 1
  68   27  102 1
  69   28   29 2
  70   28   30 1
  71   30   31 1
  72   31   32 1
  73   31   36 1
  74   31  103 1
  75   32   33 1
  76   32  104 1
  77   32  105 1
  78   33   34 1
  79   33  106 1
  80   33  107 1
  81   34   35 1
  82   34   62 1
  83   34   42 1
  84   35   36 1
  85   35   39 1
  86   35  108 1
  87   36   37 1
  88   36   38 1
  89   37  109 1
  90   37  110 1
  91   37  111 1
  92   38  112 1
  93   38  113 1
  94   38  114 1
  95   39   40 1
  96   39  115 1
  97   39  116 1
  98   40   41 1
  99   40  117 1
 100   40  118 1
 101   41   46 1
 102   41   61 1
 103   41   42 1
 104   42   43 1
 105   42  119 1
 106   43   44 1
 107   43  120 1
 108   43  121 1
 109   44   45 2
 110   44  122 1
 111   45   46 1
 112   45   51 1
 113   46   47 1
 114   46   48 1
 115   47  123 1
 116   47  124 1
 117   47  125 1
 118   48   49 1
 119   48  126 1
 120   48  127 1
 121   49   50 1
 122   49  128 1
 123   49  129 1
 124   50   58 1
 125   50   51 1
 126   50   57 1
 127   51   52 1
 128   51  130 1
 129   52   53 1
 130   52  131 1
 131   52  132 1
 132   53   54 1
 133   53   55 1
 134   53   56 1
 135   54  133 1
 136   54  134 1
 137   54  135 1
 138   55  136 1
 139   55  137 1
 140   55  138 1
 141   56   57 1
 142   56  139 1
 143   56  140 1
 144   57  141 1
 145   57  142 1
 146   58   59 2
 147   58   60 1
 148   60  143 1
 149   61  144 1
 150   61  145 1
 151   61  146 1
 152   62  147 1
 153   62  148 1
 154   62  149 1

#	End of record

