#	Name: ASD04560205
#	Creating user name:	WinNT
#	Creation time:	15. 06. 2019 20:49

#	Modifying user name:	WinNT
#	Modification time:	15. 06. 2019 20:49

#	Program:	/corina/corina34_cracker 3.40 0067  02.08.2006

@<TRIPOS>MOLECULE
ASD04560205
  33   35    0    0    0
SMALL
NO_CHARGES


@<TRIPOS>ATOM
   1 C1            -0.0206     1.3856     0.1425 C.ar    
   2 C2            -0.0039     0.0065     0.1484 C.ar    
   3 C3             1.2075    -0.6720     0.1220 C.ar    
   4 C4             2.3933     0.0177     0.0899 C.ar    
   5 C5             1.1744     2.1000     0.1102 C.ar    
   6 S6             1.4894     3.8335     0.0946 S.3     
   7 C7             2.4004     1.4283     0.0838 C.ar    
   8 N8             3.4563     2.2665     0.0547 N.2     
   9 C9             3.2210     3.5325     0.0539 C.2     
  10 N10            4.1944     4.5177     0.0253 N.am    
  11 C11            5.4979     4.1764    -0.0048 C.2     
  12 N12            6.4450     5.1349    -0.0326 N.am    
  13 O13            5.8194     3.0039    -0.0069 O.2     
  14 C14            7.7975     4.7854     0.0583 C.ar    
  15 C15            8.7561     5.5287    -0.6203 C.ar    
  16 C16            8.1849     3.6992     0.8309 C.ar    
  17 C17            9.5205     3.3566     0.9186 C.ar    
  18 C18           10.4714     4.0941     0.2381 C.ar    
  19 C19           10.0903     5.1806    -0.5282 C.ar    
  20 C20            9.9413     2.1777     1.7577 C.3     
  21 F21            9.9370     1.0205     0.9715 F       
  22 F22           11.2294     2.3971     2.2575 F       
  23 F23            9.0482     2.0210     2.8231 F       
  24 F24           -1.1649    -0.6836     0.1803 F       
  25 Cl25           8.2780     6.8921    -1.5826 Cl      
  26 H26           -0.9630     1.9128     0.1585 H       
  27 H27            1.2164    -1.7519     0.1270 H       
  28 H28            3.3279    -0.5232     0.0696 H       
  29 H29            3.9379     5.4531     0.0270 H       
  30 H30            6.1895     6.0670    -0.1156 H       
  31 H31            7.4429     3.1226     1.3632 H       
  32 H32           11.5147     3.8239     0.3086 H       
  33 H33           10.8359     5.7572    -1.0553 H       
@<TRIPOS>BOND
   1    1    2 ar
   2    1    5 ar
   3    1   26 1
   4    2    3 ar
   5    2   24 1
   6    3    4 ar
   7    3   27 1
   8    4    7 ar
   9    4   28 1
  10    5    7 ar
  11    5    6 1
  12    6    9 1
  13    7    8 1
  14    8    9 2
  15    9   10 1
  16   10   11 am
  17   10   29 1
  18   11   12 am
  19   11   13 2
  20   12   14 1
  21   12   30 1
  22   14   16 ar
  23   14   15 ar
  24   15   19 ar
  25   15   25 1
  26   16   17 ar
  27   16   31 1
  28   17   18 ar
  29   17   20 1
  30   18   19 ar
  31   18   32 1
  32   19   33 1
  33   20   21 1
  34   20   22 1
  35   20   23 1

#	End of record

