#	Name: ASD07931711
#	Creating user name:	WinNT
#	Creation time:	15. 06. 2019 21:13

#	Modifying user name:	WinNT
#	Modification time:	15. 06. 2019 21:13

#	Program:	/corina/corina34_cracker 3.40 0067  02.08.2006

@<TRIPOS>MOLECULE
ASD07931711
  57   62    0    0    0
SMALL
NO_CHARGES


@<TRIPOS>ATOM
   1 C1             0.1672     3.9348    -0.5639 C.2     
   2 C2            -0.3187     2.6822    -0.3064 C.2     
   3 C3             0.6295     1.5965    -0.0450 C.2     
   4 N4             1.9484     1.8562    -0.0625 N.am    
   5 C5             2.4127     3.1250    -0.3263 C.2     
   6 C6             1.5510     4.1493    -0.5721 C.2     
   7 C7             2.9263     0.7921     0.2015 C.3     
   8 C8             4.1022     0.9746    -0.7697 C.3     
   9 N9             4.6966     2.2989    -0.5390 N.am    
  10 C10            3.8741     3.3564    -0.3394 C.2     
  11 C11            6.1513     2.4719    -0.5252 C.3     
  12 O12            0.2267     0.4692     0.1864 O.2     
  13 N13           -1.6957     2.4425    -0.2925 N.pl3   
  14 C14           -2.5511     2.5399    -1.3600 C.2     
  15 C15           -2.4390     2.0631     0.7801 C.2     
  16 N16           -3.6817     1.9387     0.4012 N.2     
  17 C17           -3.7789     2.2250    -0.9057 C.2     
  18 C18           -5.0439     2.1989    -1.7243 C.3     
  19 O19            4.3272     4.4726    -0.1747 O.2     
  20 C20            6.8647     1.6058     0.5264 C.3     
  21 C21            7.9572     1.3638    -0.5285 C.3     
  22 C22            6.8809     1.6385    -1.5920 C.3     
  23 O23            7.3194     2.3435     1.6626 O.3     
  24 C24            7.5706     1.6380     2.7957 C.ar    
  25 C25            7.8956     2.3090     3.9921 C.ar    
  26 C26            8.1534     1.5538     5.1630 C.ar    
  27 C27            8.0804     0.1514     5.1091 C.ar    
  28 C28            7.7637    -0.4646     3.9368 C.ar    
  29 C29            7.5044     0.2731     2.7850 C.ar    
  30 C30            7.9689     3.7101     4.0452 C.ar    
  31 C31            8.2865     4.3247     5.2200 C.ar    
  32 C32            8.5408     3.5806     6.3729 C.ar    
  33 C33            8.4779     2.2215     6.3566 C.ar    
  34 F34            8.3565     5.6730     5.2685 F       
  35 H35           -0.5112     4.7511    -0.7638 H       
  36 H36            1.9380     5.1368    -0.7756 H       
  37 H37            3.2825     0.8660     1.2290 H       
  38 H38            2.4635    -0.1815     0.0406 H       
  39 H39            4.8492     0.2015    -0.5897 H       
  40 H40            3.7426     0.9085    -1.7966 H       
  41 H41            6.4529     3.5191    -0.5058 H       
  42 H42           -2.2900     2.8161    -2.3709 H       
  43 H43           -2.0642     1.8928     1.7786 H       
  44 H44           -5.5177     3.1800    -1.6923 H       
  45 H45           -4.8035     1.9449    -2.7567 H       
  46 H46           -5.7256     1.4528    -1.3159 H       
  47 H47            6.3130     0.7058     0.7979 H       
  48 H48            8.7535     2.1079    -0.5110 H       
  49 H49            8.3327     0.3406    -0.5415 H       
  50 H50            6.3336     0.7474    -1.8996 H       
  51 H51            7.2408     2.2276    -2.4355 H       
  52 H52            8.2750    -0.4358     5.9944 H       
  53 H53            7.7093    -1.5426     3.9008 H       
  54 H54            7.2552    -0.2407     1.8684 H       
  55 H55            7.7752     4.2978     3.1601 H       
  56 H56            8.7907     4.0908     7.2914 H       
  57 H57            8.6768     1.6583     7.2565 H       
@<TRIPOS>BOND
   1    1    2 2
   2    1    6 1
   3    1   35 1
   4    2    3 1
   5    2   13 1
   6    3    4 am
   7    3   12 2
   8    4    5 1
   9    4    7 1
  10    5    6 2
  11    5   10 1
  12    6   36 1
  13    7    8 1
  14    7   37 1
  15    7   38 1
  16    8    9 1
  17    8   39 1
  18    8   40 1
  19    9   10 am
  20    9   11 1
  21   10   19 2
  22   11   20 1
  23   11   22 1
  24   11   41 1
  25   13   14 1
  26   13   15 1
  27   14   17 2
  28   14   42 1
  29   15   16 2
  30   15   43 1
  31   16   17 1
  32   17   18 1
  33   18   44 1
  34   18   45 1
  35   18   46 1
  36   20   21 1
  37   20   23 1
  38   20   47 1
  39   21   22 1
  40   21   48 1
  41   21   49 1
  42   22   50 1
  43   22   51 1
  44   23   24 1
  45   24   25 ar
  46   24   29 ar
  47   25   26 ar
  48   25   30 ar
  49   26   27 ar
  50   26   33 ar
  51   27   28 ar
  52   27   52 1
  53   28   29 ar
  54   28   53 1
  55   29   54 1
  56   30   31 ar
  57   30   55 1
  58   31   32 ar
  59   31   34 1
  60   32   33 ar
  61   32   56 1
  62   33   57 1

#	End of record

