#	Name: ASD01881548
#	Creating user name:	WinNT
#	Creation time:	15. 06. 2019 19:42

#	Modifying user name:	WinNT
#	Modification time:	15. 06. 2019 19:42

#	Program:	/corina/corina34_cracker 3.40 0067  02.08.2006

@<TRIPOS>MOLECULE
ASD01881548
  47   50    0    0    0
SMALL
NO_CHARGES


@<TRIPOS>ATOM
   1 C1            -0.0169     1.3955     0.0097 C.ar    
   2 C2             0.0021    -0.0041     0.0020 C.ar    
   3 C3            -1.1639    -0.7118     0.0089 C.ar    
   4 C4            -2.3856    -0.0449     0.0237 C.ar    
   5 C5            -2.4233     1.3607     0.0321 C.ar    
   6 C6            -1.2218     2.0787     0.0306 C.ar    
   7 N7            -3.6959    -0.4609     0.0335 N.pl3   
   8 N8            -4.4850     0.6985     0.0475 N.2     
   9 N9            -3.7240     1.7357     0.0463 N.2     
  10 C10           -4.1747    -1.8454     0.0296 C.3     
  11 C11            1.2602     2.1512     0.0016 C.ar    
  12 C12            2.2652     1.8356     0.9136 C.ar    
  13 C13           -4.3278    -2.3361     1.4707 C.3     
  14 C14           -4.9311    -3.7260     1.6834 C.3     
  15 C15           -3.4372    -3.4961     1.9204 C.3     
  16 C16            1.4609     3.1752    -0.9218 C.ar    
  17 C17            2.6506     3.8748    -0.9249 C.ar    
  18 C18            3.6429     3.5608    -0.0138 C.ar    
  19 C19            3.4510     2.5417     0.9016 C.ar    
  20 C20            4.9400     4.3279    -0.0224 C.3     
  21 C21            6.0726     3.4202     0.4614 C.3     
  22 O22            5.2211     4.7735    -1.3507 O.3     
  23 C23            4.8233     5.5375     0.9073 C.3     
  24 C24           -1.2390     3.5856     0.0395 C.3     
  25 F25           -2.3835     4.0350     0.7069 F       
  26 F26           -0.0991     4.0611     0.6965 F       
  27 F27           -1.2505     4.0596    -1.2767 F       
  28 H28            0.9468    -0.5273    -0.0098 H       
  29 H29           -1.1392    -1.7915     0.0025 H       
  30 H30           -5.1394    -1.8948    -0.4754 H       
  31 H31           -3.4573    -2.4765    -0.4948 H       
  32 H32            2.1165     1.0401     1.6288 H       
  33 H33           -4.5632    -1.5673     2.2066 H       
  34 H34           -5.5631    -3.8717     2.5594 H       
  35 H35           -5.2190    -4.2908     0.7966 H       
  36 H36           -2.7422    -3.9096     1.1895 H       
  37 H37           -3.0863    -3.4905     2.9523 H       
  38 H38            0.6870     3.4207    -1.6341 H       
  39 H39            2.8072     4.6687    -1.6402 H       
  40 H40            4.2291     2.3007     1.6108 H       
  41 H41            6.1557     2.5585    -0.2009 H       
  42 H42            7.0107     3.9750     0.4553 H       
  43 H43            5.8581     3.0803     1.4747 H       
  44 H44            4.5434     5.3547    -1.7223 H       
  45 H45            4.6089     5.1976     1.9205 H       
  46 H46            5.7615     6.0923     0.9011 H       
  47 H47            4.0164     6.1842     0.5626 H       
@<TRIPOS>BOND
   1    1    2 ar
   2    1   11 1
   3    1    6 ar
   4    2    3 ar
   5    2   28 1
   6    3    4 ar
   7    3   29 1
   8    4    5 ar
   9    4    7 1
  10    5    6 ar
  11    5    9 1
  12    6   24 1
  13    7    8 1
  14    7   10 1
  15    8    9 2
  16   10   13 1
  17   10   30 1
  18   10   31 1
  19   11   12 ar
  20   11   16 ar
  21   12   19 ar
  22   12   32 1
  23   13   14 1
  24   13   15 1
  25   13   33 1
  26   14   15 1
  27   14   34 1
  28   14   35 1
  29   15   36 1
  30   15   37 1
  31   16   17 ar
  32   16   38 1
  33   17   18 ar
  34   17   39 1
  35   18   19 ar
  36   18   20 1
  37   19   40 1
  38   20   21 1
  39   20   22 1
  40   20   23 1
  41   21   41 1
  42   21   42 1
  43   21   43 1
  44   22   44 1
  45   23   45 1
  46   23   46 1
  47   23   47 1
  48   24   25 1
  49   24   26 1
  50   24   27 1

#	End of record

