#	Name: ASD03320071
#	Creating user name:	WinNT
#	Creation time:	15. 06. 2019 20:36

#	Modifying user name:	WinNT
#	Modification time:	15. 06. 2019 20:36

#	Program:	/corina/corina34_cracker 3.40 0067  02.08.2006

@<TRIPOS>MOLECULE
ASD03320071
  72   75    0    0    0
SMALL
NO_CHARGES


@<TRIPOS>ATOM
   1 C1            -0.0386     1.4633     0.0202 C.2     
   2 C2            -0.0063    -0.0116     0.0201 C.ar    
   3 C3             1.2164    -0.6827    -0.0182 C.ar    
   4 C4             1.2416    -2.0724    -0.0181 C.ar    
   5 C5             0.0366    -2.7917     0.0204 C.ar    
   6 C6            -1.1768    -2.1138     0.0584 C.ar    
   7 C7            -1.2016    -0.7374     0.0642 C.ar    
   8 O8             1.0005     2.0942    -0.0131 O.2     
   9 N9            -1.2198     2.1115     0.0515 N.am    
  10 N10            3.5550    -2.5673    -0.9333 N.pl3   
  11 N11            4.5860    -3.4633    -0.6231 N.2     
  12 C12            4.2076    -4.1969     0.3927 C.2     
  13 C13            2.9246    -3.8025     0.7728 C.2     
  14 C14            2.5337    -2.7911    -0.0590 C.2     
  15 C15            3.5737    -1.5652    -2.0018 C.3     
  16 O16            2.9472    -2.1015    -3.1688 O.3     
  17 C17            2.9124    -1.1993    -4.2765 C.3     
  18 C18            2.2233    -1.8753    -5.4635 C.3     
  19 Si19           2.1779    -0.6991    -6.9075 Si      
  20 C20            3.9177    -0.2321    -7.3830 C.3     
  21 C21            1.3389    -1.5223    -8.3529 C.3     
  22 C22            1.2319     0.8334    -6.4307 C.3     
  23 C23           -1.2500     3.5065     0.1712 C.ar    
  24 C24           -2.3355     4.2222    -0.3165 C.ar    
  25 C25           -2.3646     5.5977    -0.1982 C.ar    
  26 C26           -1.3096     6.2646     0.4072 C.ar    
  27 C27           -0.2248     5.5503     0.8946 C.ar    
  28 C28           -0.1972     4.1743     0.7826 C.ar    
  29 O29           -1.3385     7.6191     0.5225 O.3     
  30 C30           -0.2187     8.2403     1.1568 C.3     
  31 F31            0.9454     7.9490     0.4375 F       
  32 F32           -0.4114     9.6255     1.1910 F       
  33 F33           -0.0938     7.7544     2.4627 F       
  34 N34            0.0565    -4.1802     0.0202 N.3     
  35 C35            0.6075    -4.7021    -1.2492 C.3     
  36 C36           -0.1395    -6.0121    -1.5611 C.3     
  37 C37           -1.1608    -6.1779    -0.4124 C.3     
  38 C38           -1.3187    -4.7322     0.1221 C.3     
  39 O39            0.7728    -7.1119    -1.5761 O.3     
  40 H40            2.1403    -0.1242    -0.0481 H       
  41 H41           -2.1028    -2.6689     0.0877 H       
  42 H42           -2.1468    -0.2162     0.0983 H       
  43 H43           -2.0490     1.6119    -0.0088 H       
  44 H44            4.7911    -4.9771     0.8588 H       
  45 H45            2.3434    -4.2221     1.5806 H       
  46 H46            3.0340    -0.6762    -1.6757 H       
  47 H47            4.6053    -1.2996    -2.2328 H       
  48 H48            2.3589    -0.3026    -3.9975 H       
  49 H49            3.9303    -0.9260    -4.5546 H       
  50 H50            2.7768    -2.7719    -5.7425 H       
  51 H51            1.2054    -2.1485    -5.1853 H       
  52 H52            4.4712    -1.1287    -7.6619 H       
  53 H53            3.8911     0.4561    -8.2278 H       
  54 H54            4.4086     0.2495    -6.5373 H       
  55 H55            0.3210    -1.7955    -8.0747 H       
  56 H56            1.3123    -0.8341    -9.1977 H       
  57 H57            1.8924    -2.4189    -8.6318 H       
  58 H58            1.7228     1.3150    -5.5850 H       
  59 H59            1.2054     1.5216    -7.2755 H       
  60 H60            0.2140     0.5602    -6.1525 H       
  61 H61           -3.1566     3.7032    -0.7885 H       
  62 H62           -3.2088     6.1544    -0.5775 H       
  63 H63            0.5964     6.0703     1.3655 H       
  64 H64            0.6452     3.6179     1.1664 H       
  65 H65            0.4427    -3.9811    -2.0499 H       
  66 H66            1.6735    -4.9001    -1.1378 H       
  67 H67           -0.6557    -5.9347    -2.5180 H       
  68 H68           -2.1106    -6.5546    -0.7921 H       
  69 H69           -0.7663    -6.8348     0.3627 H       
  70 H70           -1.6542    -4.7400     1.1591 H       
  71 H71           -2.0085    -4.1644    -0.5023 H       
  72 H72            0.3583    -7.9643    -1.7676 H       
@<TRIPOS>BOND
   1    1    2 1
   2    1    8 2
   3    1    9 am
   4    2    3 ar
   5    2    7 ar
   6    3    4 ar
   7    3   40 1
   8    4    5 ar
   9    4   14 1
  10    5    6 ar
  11    5   34 1
  12    6    7 ar
  13    6   41 1
  14    7   42 1
  15    9   23 1
  16    9   43 1
  17   10   11 1
  18   10   14 1
  19   10   15 1
  20   11   12 2
  21   12   13 1
  22   12   44 1
  23   13   14 2
  24   13   45 1
  25   15   16 1
  26   15   46 1
  27   15   47 1
  28   16   17 1
  29   17   18 1
  30   17   48 1
  31   17   49 1
  32   18   19 1
  33   18   50 1
  34   18   51 1
  35   19   20 1
  36   19   21 1
  37   19   22 1
  38   20   52 1
  39   20   53 1
  40   20   54 1
  41   21   55 1
  42   21   56 1
  43   21   57 1
  44   22   58 1
  45   22   59 1
  46   22   60 1
  47   23   24 ar
  48   23   28 ar
  49   24   25 ar
  50   24   61 1
  51   25   26 ar
  52   25   62 1
  53   26   27 ar
  54   26   29 1
  55   27   28 ar
  56   27   63 1
  57   28   64 1
  58   29   30 1
  59   30   31 1
  60   30   32 1
  61   30   33 1
  62   34   35 1
  63   34   38 1
  64   35   36 1
  65   35   65 1
  66   35   66 1
  67   36   37 1
  68   36   39 1
  69   36   67 1
  70   37   38 1
  71   37   68 1
  72   37   69 1
  73   38   70 1
  74   38   71 1
  75   39   72 1

#	End of record

