#	Name: ASD03731784
#	Creating user name:	WinNT
#	Creation time:	15. 06. 2019 20:46

#	Modifying user name:	WinNT
#	Modification time:	15. 06. 2019 20:46

#	Program:	/corina/corina34_cracker 3.40 0067  02.08.2006

@<TRIPOS>MOLECULE
ASD03731784
  39   41    0    0    0
SMALL
NO_CHARGES


@<TRIPOS>ATOM
   1 C1            -0.7951     1.3893     0.4227 C.2     
   2 C2            -0.5705    -0.0648     0.3059 C.ar    
   3 C3             0.5773    -0.5476    -0.3283 C.ar    
   4 C4             0.7836    -1.9048    -0.4348 C.ar    
   5 C5            -0.1485    -2.7945     0.0872 C.ar    
   6 C6            -1.2919    -2.3181     0.7185 C.ar    
   7 C7            -1.5022    -0.9622     0.8344 C.ar    
   8 O8             0.0190     2.1688    -0.0333 O.2     
   9 N9            -1.9055     1.8530     1.0298 N.am    
  10 O10            0.0581    -4.1313    -0.0202 O.3     
  11 C11           -0.4503    -4.7697    -1.1054 C.ar    
  12 C12           -1.0577    -4.0526    -2.1116 C.ar    
  13 C13           -1.5827    -4.6967    -3.2283 C.ar    
  14 C14           -1.5104    -6.0502    -3.3572 C.ar    
  15 C15           -0.8981    -6.8183    -2.3526 C.ar    
  16 C16           -0.8088    -8.2172    -2.4582 C.ar    
  17 C17           -0.2089    -8.9305    -1.4664 C.ar    
  18 C18            0.3195    -8.2949    -0.3445 C.ar    
  19 C19            0.2509    -6.9420    -0.2086 C.ar    
  20 C20           -0.3555    -6.1723    -1.2142 C.ar    
  21 S21           -2.1575     3.4845     1.1608 S.o2    
  22 O22           -3.3873     3.5937     1.8644 O.2     
  23 O23           -0.9485     3.9823     1.7172 O.2     
  24 C24           -2.3513     4.0515    -0.5514 C.3     
  25 H25            1.3015     0.1429    -0.7347 H       
  26 H26            1.6704    -2.2787    -0.9249 H       
  27 H27           -2.0139    -3.0123     1.1224 H       
  28 H28           -2.3884    -0.5929     1.3289 H       
  29 H29           -2.5569     1.2311     1.3900 H       
  30 H30           -1.1279    -2.9777    -2.0333 H       
  31 H31           -2.0553    -4.1135    -4.0048 H       
  32 H32           -1.9236    -6.5329    -4.2306 H       
  33 H33           -1.2144    -8.7234    -3.3217 H       
  34 H34           -0.1416   -10.0052    -1.5501 H       
  35 H35            0.7899    -8.8841     0.4288 H       
  36 H36            0.6644    -6.4628     0.6665 H       
  37 H37           -3.2008     3.5439    -1.0083 H       
  38 H38           -2.5233     5.1278    -0.5604 H       
  39 H39           -1.4461     3.8235    -1.1142 H       
@<TRIPOS>BOND
   1    1    2 1
   2    1    8 2
   3    1    9 am
   4    2    3 ar
   5    2    7 ar
   6    3    4 ar
   7    3   25 1
   8    4    5 ar
   9    4   26 1
  10    5    6 ar
  11    5   10 1
  12    6    7 ar
  13    6   27 1
  14    7   28 1
  15    9   21 am
  16    9   29 1
  17   10   11 1
  18   11   12 ar
  19   11   20 ar
  20   12   13 ar
  21   12   30 1
  22   13   14 ar
  23   13   31 1
  24   14   15 ar
  25   14   32 1
  26   15   16 ar
  27   15   20 ar
  28   16   17 ar
  29   16   33 1
  30   17   18 ar
  31   17   34 1
  32   18   19 ar
  33   18   35 1
  34   19   20 ar
  35   19   36 1
  36   21   22 2
  37   21   23 2
  38   21   24 1
  39   24   37 1
  40   24   38 1
  41   24   39 1

#	End of record

