#	Name: ASD01412060
#	Creating user name:	WinNT
#	Creation time:	15. 06. 2019 19:20

#	Modifying user name:	WinNT
#	Modification time:	15. 06. 2019 19:20

#	Program:	/corina/corina34_cracker 3.40 0067  02.08.2006

@<TRIPOS>MOLECULE
ASD01412060
  64   68    0    0    0
SMALL
NO_CHARGES


@<TRIPOS>ATOM
   1 F1             1.1454     2.1163     0.0331 F       
   2 C2            -0.0145     1.4237     0.0262 C.ar    
   3 C3             0.0112     0.0264    -0.0015 C.ar    
   4 C4            -1.1687    -0.6989    -0.0090 C.ar    
   5 C5            -2.3873    -0.0315     0.0113 C.ar    
   6 C6            -2.4042     1.3762     0.0392 C.ar    
   7 C7            -1.2045     2.0930     0.0520 C.ar    
   8 N8            -3.5764    -0.7261     0.0040 N.pl3   
   9 C9            -4.7751    -0.0866     0.0232 C.2     
  10 C10           -4.8763     1.2619     0.0500 C.2     
  11 C11           -3.7042     2.0620     0.0603 C.2     
  12 O12           -3.7734     3.2806     0.0844 O.2     
  13 C13           -3.5482    -2.1906    -0.0256 C.3     
  14 C14           -3.5305    -2.7212     1.3848 C.ar    
  15 C15           -4.7195    -2.9877     2.0377 C.ar    
  16 C16           -4.7040    -3.4744     3.3312 C.ar    
  17 C17           -3.4981    -3.6950     3.9726 C.ar    
  18 C18           -2.3084    -3.4281     3.3186 C.ar    
  19 C19           -2.3252    -2.9467     2.0231 C.ar    
  20 Cl20          -3.4777    -4.3057     5.5975 Cl      
  21 N21           -6.1436     1.8714     0.0680 N.am    
  22 C22           -6.4852     2.6859     1.0860 C.2     
  23 N23            1.2337    -0.6421    -0.0223 N.3     
  24 C24            1.3738    -1.5200     1.1479 C.3     
  25 C25            2.6906    -2.2936     1.0472 C.3     
  26 N26            3.8090    -1.3437     0.9681 N.3     
  27 C27            3.6689    -0.4659    -0.2022 C.3     
  28 C28            2.3522     0.3078    -0.1014 C.3     
  29 N29           -7.6547     3.3549     1.0505 N.am    
  30 O30           -5.7382     2.8173     2.0365 O.2     
  31 C31           -8.0260     4.2403     2.1570 C.3     
  32 C32           -9.3690     4.8624     1.8737 C.ar    
  33 C33          -10.5252     4.2324     2.2948 C.ar    
  34 C34          -11.7571     4.8030     2.0348 C.ar    
  35 C35          -11.8329     6.0038     1.3541 C.ar    
  36 C36          -10.6767     6.6342     0.9338 C.ar    
  37 C37           -9.4445     6.0657     1.1976 C.ar    
  38 H38           -1.1417    -1.7784    -0.0308 H       
  39 H39           -1.2186     3.1727     0.0738 H       
  40 H40           -5.6798    -0.6764     0.0164 H       
  41 H41           -4.4339    -2.5606    -0.5420 H       
  42 H42           -2.6543    -2.5262    -0.5513 H       
  43 H43           -5.6608    -2.8152     1.5370 H       
  44 H44           -5.6329    -3.6823     3.8413 H       
  45 H45           -1.3668    -3.6000     3.8188 H       
  46 H46           -1.3966    -2.7383     1.5125 H       
  47 H47           -6.7718     1.7055    -0.6522 H       
  48 H48            1.3746    -0.9176     2.0564 H       
  49 H49            0.5408    -2.2222     1.1776 H       
  50 H50            2.8104    -2.9238     1.9284 H       
  51 H51            2.6787    -2.9167     0.1530 H       
  52 H52            3.8863    -0.8045     1.8174 H       
  53 H53            4.5020     0.2364    -0.2318 H       
  54 H54            3.6682    -1.0682    -1.1106 H       
  55 H55            2.2324     0.9380    -0.9826 H       
  56 H56            2.3640     0.9309     0.7928 H       
  57 H57           -8.2506     3.2500     0.2923 H       
  58 H58           -8.0800     3.6643     3.0808 H       
  59 H59           -7.2768     5.0251     2.2615 H       
  60 H60          -10.4660     3.2943     2.8266 H       
  61 H61          -12.6605     4.3106     2.3632 H       
  62 H62          -12.7954     6.4493     1.1504 H       
  63 H63          -10.7359     7.5721     0.4017 H       
  64 H64           -8.5412     6.5582     0.8692 H       
@<TRIPOS>BOND
   1    1    2 1
   2    2    3 ar
   3    2    7 ar
   4    3    4 ar
   5    3   23 1
   6    4    5 ar
   7    4   38 1
   8    5    6 ar
   9    5    8 1
  10    6    7 ar
  11    6   11 1
  12    7   39 1
  13    8    9 1
  14    8   13 1
  15    9   10 2
  16    9   40 1
  17   10   11 1
  18   10   21 1
  19   11   12 2
  20   13   14 1
  21   13   41 1
  22   13   42 1
  23   14   15 ar
  24   14   19 ar
  25   15   16 ar
  26   15   43 1
  27   16   17 ar
  28   16   44 1
  29   17   18 ar
  30   17   20 1
  31   18   19 ar
  32   18   45 1
  33   19   46 1
  34   21   22 am
  35   21   47 1
  36   22   29 am
  37   22   30 2
  38   23   24 1
  39   23   28 1
  40   24   25 1
  41   24   48 1
  42   24   49 1
  43   25   26 1
  44   25   50 1
  45   25   51 1
  46   26   27 1
  47   26   52 1
  48   27   28 1
  49   27   53 1
  50   27   54 1
  51   28   55 1
  52   28   56 1
  53   29   31 1
  54   29   57 1
  55   31   32 1
  56   31   58 1
  57   31   59 1
  58   32   33 ar
  59   32   37 ar
  60   33   34 ar
  61   33   60 1
  62   34   35 ar
  63   34   61 1
  64   35   36 ar
  65   35   62 1
  66   36   37 ar
  67   36   63 1
  68   37   64 1

#	End of record

