#	Name: ASD01150241
#	Creating user name:	WinNT
#	Creation time:	15. 06. 2019 19:03

#	Modifying user name:	WinNT
#	Modification time:	15. 06. 2019 19:03

#	Program:	/corina/corina34_cracker 3.40 0067  02.08.2006

@<TRIPOS>MOLECULE
ASD01150241
  62   66    0    0    0
SMALL
NO_CHARGES


@<TRIPOS>ATOM
   1 C1             0.2678     0.9037     0.2440 C.ar    
   2 C2             0.1579    -0.4865     0.3598 C.ar    
   3 C3            -1.0593    -1.0912     0.3971 C.ar    
   4 C4            -2.2313    -0.3179     0.3189 C.ar    
   5 C5            -2.1251     1.0894     0.2018 C.ar    
   6 C6            -0.8620     1.6917     0.1709 C.ar    
   7 N7            -3.4371    -0.8956     0.3536 N.ar    
   8 C8            -4.5424    -0.1934     0.2818 C.ar    
   9 C9            -4.5266     1.1914     0.1650 C.ar    
  10 C10           -3.3118     1.8627     0.1235 C.ar    
  11 N11            1.5307     1.4982     0.2081 N.3     
  12 C12           -3.2569     3.3372    -0.0004 C.ar    
  13 C13           -5.8204     1.9601     0.0850 C.3     
  14 C14           -6.4246     1.7977    -1.3112 C.3     
  15 O15           -6.7347     1.4567     1.0611 O.3     
  16 C16           -5.8680    -0.9089     0.3266 C.3     
  17 C17           -2.7349     4.1079     1.0387 C.ar    
  18 C18           -2.6854     5.4809     0.9183 C.ar    
  19 C19           -3.1536     6.0952    -0.2325 C.ar    
  20 C20           -3.6731     5.3339    -1.2676 C.ar    
  21 C21           -3.7216     3.9599    -1.1591 C.ar    
  22 F22           -3.1038     7.4405    -0.3454 F       
  23 C23            2.5913     0.4872     0.3049 C.3     
  24 C24            3.9546     1.1564     0.1165 C.3     
  25 C25            4.1451     2.2278     1.1938 C.3     
  26 C26            3.0012     3.2415     1.1023 C.3     
  27 C27            1.6655     2.5118     1.2621 C.3     
  28 C28           -7.7026     2.3061     1.4960 C.ar    
  29 C29           -7.8446     3.5552     0.9109 C.ar    
  30 C30           -8.8294     4.4172     1.3547 C.ar    
  31 C31           -9.6727     4.0358     2.3815 C.ar    
  32 C32           -9.5338     2.7908     2.9673 C.ar    
  33 C33           -8.5546     1.9224     2.5232 C.ar    
  34 Cl34          -8.3807     0.3594     3.2582 Cl      
  35 H35            1.0529    -1.0879     0.4200 H       
  36 H36           -1.1260    -2.1654     0.4864 H       
  37 H37           -0.7725     2.7643     0.0817 H       
  38 H38           -5.6284     3.0157     0.2773 H       
  39 H39           -5.7713     2.2673    -2.0466 H       
  40 H40           -6.5276     0.7373    -1.5414 H       
  41 H41           -7.4052     2.2728    -1.3403 H       
  42 H42           -6.1640    -1.0606     1.3646 H       
  43 H43           -6.6222    -0.3087    -0.1823 H       
  44 H44           -5.7765    -1.8748    -0.1700 H       
  45 H45           -2.3704     3.6301     1.9362 H       
  46 H46           -2.2815     6.0784     1.7222 H       
  47 H47           -4.0370     5.8173    -2.1622 H       
  48 H48           -4.1262     3.3675    -1.9665 H       
  49 H49            2.5521     0.0126     1.2854 H       
  50 H50            2.4465    -0.2663    -0.4692 H       
  51 H51            4.7425     0.4083     0.2040 H       
  52 H52            3.9996     1.6195    -0.8692 H       
  53 H53            4.1391     1.7596     2.1781 H       
  54 H54            5.0962     2.7367     1.0373 H       
  55 H55            3.1078     3.9830     1.8941 H       
  56 H56            3.0311     3.7373     0.1321 H       
  57 H57            0.8482     3.2287     1.1831 H       
  58 H58            1.6306     2.0276     2.2381 H       
  59 H59           -7.1859     3.8544     0.1091 H       
  60 H60           -8.9401     5.3901     0.8990 H       
  61 H61          -10.4411     4.7115     2.7271 H       
  62 H62          -10.1936     2.4953     3.7697 H       
@<TRIPOS>BOND
   1    1    2 ar
   2    1   11 1
   3    1    6 ar
   4    2    3 ar
   5    2   35 1
   6    3    4 ar
   7    3   36 1
   8    4    5 ar
   9    4    7 ar
  10    5    6 ar
  11    5   10 ar
  12    6   37 1
  13    7    8 ar
  14    8    9 ar
  15    8   16 1
  16    9   10 ar
  17    9   13 1
  18   10   12 1
  19   11   23 1
  20   11   27 1
  21   12   17 ar
  22   12   21 ar
  23   13   14 1
  24   13   15 1
  25   13   38 1
  26   14   39 1
  27   14   40 1
  28   14   41 1
  29   15   28 1
  30   16   42 1
  31   16   43 1
  32   16   44 1
  33   17   18 ar
  34   17   45 1
  35   18   19 ar
  36   18   46 1
  37   19   20 ar
  38   19   22 1
  39   20   21 ar
  40   20   47 1
  41   21   48 1
  42   23   24 1
  43   23   49 1
  44   23   50 1
  45   24   25 1
  46   24   51 1
  47   24   52 1
  48   25   26 1
  49   25   53 1
  50   25   54 1
  51   26   27 1
  52   26   55 1
  53   26   56 1
  54   27   57 1
  55   27   58 1
  56   28   29 ar
  57   28   33 ar
  58   29   30 ar
  59   29   59 1
  60   30   31 ar
  61   30   60 1
  62   31   32 ar
  63   31   61 1
  64   32   33 ar
  65   32   62 1
  66   33   34 1

#	End of record

