#	Name: ASD01901272
#	Creating user name:	WinNT
#	Creation time:	15. 06. 2019 19:53

#	Modifying user name:	WinNT
#	Modification time:	15. 06. 2019 19:53

#	Program:	/corina/corina34_cracker 3.40 0067  02.08.2006

@<TRIPOS>MOLECULE
ASD01901272
  52   56    0    0    0
SMALL
NO_CHARGES


@<TRIPOS>ATOM
   1 C1            -0.0166     1.3750     0.0096 C.ar    
   2 C2             0.0021    -0.0041     0.0020 C.ar    
   3 C3             1.2078    -0.6830    -0.0127 C.ar    
   4 C4             2.4027     0.0149    -0.0203 C.ar    
   5 C5             2.3997     1.3941    -0.0134 C.ar    
   6 C6             1.1860     2.0866     0.0019 C.ar    
   7 C7             1.1748     3.5185     0.0093 C.1     
   8 C8             1.1656     4.6925     0.0153 C.1     
   9 C9             1.1543     6.1244     0.0226 C.ar    
  10 C10           -0.0666     8.1943     0.0502 C.ar    
  11 C11           -0.0605     6.8156     0.0432 C.ar    
  12 C12            2.3585     6.8349     0.0149 C.ar    
  13 C13            2.3438     8.2124     0.0219 C.ar    
  14 C14            1.1340     8.8967     0.0371 C.ar    
  15 N15            1.1239    10.2969     0.0442 N.am    
  16 N16            1.1319    12.2980     1.2697 N.am    
  17 C17            1.1407    10.9569     1.2148 C.2     
  18 C18            1.1029    10.9701    -1.1226 C.2     
  19 C19            1.1054    13.0574     0.0961 C.2     
  20 C20            1.1506    12.9718     2.5704 C.3     
  21 O21            1.0920    10.3645    -2.1802 O.2     
  22 Cl22          -1.5742     9.0546     0.0758 Cl      
  23 O23            1.1641    10.3223     2.2519 O.2     
  24 C24            1.0747    14.8388    -1.2689 C.2     
  25 N25            1.0928    14.3711    -0.0591 N.2     
  26 C26            1.0933    12.3799    -1.1120 C.2     
  27 S27            1.0675    13.5681    -2.4100 S.3     
  28 N28            1.0599    16.1783    -1.5896 N.3     
  29 O29            2.0674    18.5353    -2.7372 O.3     
  30 C30            2.1160    18.3693    -1.3176 C.3     
  31 C31            2.2040    16.8771    -0.9864 C.3     
  32 C32            1.0412    16.3709    -3.0470 C.3     
  33 C33            0.9649    17.8681    -3.3575 C.3     
  34 H34           -0.9584     1.9035     0.0169 H       
  35 H35           -0.9266    -0.5554     0.0079 H       
  36 H36            1.2163    -1.7630    -0.0178 H       
  37 H37            3.3399    -0.5217    -0.0315 H       
  38 H38            3.3330     1.9375    -0.0190 H       
  39 H39           -0.9928     6.2705     0.0533 H       
  40 H40            3.2991     6.3044     0.0038 H       
  41 H41            3.2737     8.7615     0.0160 H       
  42 H42            1.1704    12.2264     3.3654 H       
  43 H43            2.0374    13.6016     2.6406 H       
  44 H44            0.2578    13.5886     2.6729 H       
  45 H45            2.9920    18.8824    -0.9209 H       
  46 H46            1.2145    18.7886    -0.8710 H       
  47 H47            2.1837    16.7425     0.0950 H       
  48 H48            3.1321    16.4695    -1.3872 H       
  49 H49            1.9507    15.9551    -3.4808 H       
  50 H50            0.1722    15.8667    -3.4697 H       
  51 H51            0.0299    18.2729    -2.9702 H       
  52 H52            1.0084    18.0188    -4.4362 H       
@<TRIPOS>BOND
   1    1    2 ar
   2    1    6 ar
   3    1   34 1
   4    2    3 ar
   5    2   35 1
   6    3    4 ar
   7    3   36 1
   8    4    5 ar
   9    4   37 1
  10    5    6 ar
  11    5   38 1
  12    6    7 1
  13    7    8 3
  14    8    9 1
  15    9   12 ar
  16    9   11 ar
  17   10   11 ar
  18   10   14 ar
  19   10   22 1
  20   11   39 1
  21   12   13 ar
  22   12   40 1
  23   13   14 ar
  24   13   41 1
  25   14   15 1
  26   15   18 am
  27   15   17 am
  28   16   17 am
  29   16   19 1
  30   16   20 1
  31   17   23 2
  32   18   26 1
  33   18   21 2
  34   19   26 2
  35   19   25 1
  36   20   42 1
  37   20   43 1
  38   20   44 1
  39   24   25 2
  40   24   27 1
  41   24   28 1
  42   26   27 1
  43   28   32 1
  44   28   31 1
  45   29   30 1
  46   29   33 1
  47   30   31 1
  48   30   45 1
  49   30   46 1
  50   31   47 1
  51   31   48 1
  52   32   33 1
  53   32   49 1
  54   32   50 1
  55   33   51 1
  56   33   52 1

#	End of record

