#	Name: ASD01811030
#	Creating user name:	WinNT
#	Creation time:	15. 06. 2019 19:25

#	Modifying user name:	WinNT
#	Modification time:	15. 06. 2019 19:25

#	Program:	/corina/corina34_cracker 3.40 0067  02.08.2006

@<TRIPOS>MOLECULE
ASD01811030
  54   56    0    0    0
SMALL
NO_CHARGES


@<TRIPOS>ATOM
   1 C1            -0.0184     1.5028     0.0103 C.3     
   2 C2             0.0021    -0.0041     0.0020 C.2     
   3 N3            -1.1558    -0.6938     0.0094 N.am    
   4 O4             1.0605    -0.5961    -0.0113 O.2     
   5 C5            -1.1360    -2.1586     0.0013 C.3     
   6 C6            -2.4310    -2.6913     0.6208 C.3     
   7 C7            -2.4313    -4.2203     0.5542 C.3     
   8 N8            -2.3240    -4.6506    -0.8457 N.3     
   9 C9            -1.0660    -4.1907    -1.4476 C.3     
  10 C10           -1.0249    -2.6609    -1.4409 C.3     
  11 C11           -2.4603    -6.1087    -0.9601 C.3     
  12 C12           -2.5936    -6.4943    -2.4347 C.3     
  13 C13           -2.7356    -8.0131    -2.5539 C.3     
  14 N14           -2.8633    -8.3823    -3.9659 N.am    
  15 C15           -1.7607    -8.6530    -4.6881 C.2     
  16 C16           -4.1314    -8.4565    -4.5528 C.ar    
  17 C17           -4.3059    -9.1584    -5.7384 C.ar    
  18 C18           -1.8647    -9.0161    -6.1450 C.3     
  19 O19           -0.6704    -8.6036    -4.1591 O.2     
  20 C20           -5.2151    -7.8308    -3.9525 C.ar    
  21 C21           -5.5564    -9.2333    -6.3195 C.ar    
  22 C22           -6.6373    -8.6087    -5.7210 C.ar    
  23 C23           -6.4666    -7.9077    -4.5368 C.ar    
  24 C24           -3.1281    -9.8375    -6.3878 C.3     
  25 F25           -7.5226    -7.2992    -3.9539 F       
  26 F26           -7.8599    -8.6826    -6.2911 F       
  27 C27            1.4170     2.0324    -0.0006 C.3     
  28 H28           -0.5455     1.8639    -0.8728 H       
  29 H29           -0.5286     1.8543     0.9071 H       
  30 H30           -2.0023    -0.2203     0.0200 H       
  31 H31           -0.2827    -2.5145     0.5787 H       
  32 H32           -2.4948    -2.3723     1.6611 H       
  33 H33           -3.2858    -2.3028     0.0672 H       
  34 H34           -1.5840    -4.6085     1.1195 H       
  35 H35           -3.3584    -4.6022     0.9816 H       
  36 H36           -0.2251    -4.5792    -0.8730 H       
  37 H37           -1.0015    -4.5512    -2.4743 H       
  38 H38           -1.8577    -2.2719    -2.0268 H       
  39 H39           -0.0843    -2.3202    -1.8735 H       
  40 H40           -1.5788    -6.5904    -0.5369 H       
  41 H41           -3.3479    -6.4344    -0.4177 H       
  42 H42           -3.4751    -6.0127    -2.8579 H       
  43 H43           -1.7060    -6.1687    -2.9771 H       
  44 H44           -1.8541    -8.4947    -2.1307 H       
  45 H45           -3.6232    -8.3387    -2.0115 H       
  46 H46           -1.9030    -8.1056    -6.7431 H       
  47 H47           -0.9926    -9.6019    -6.4352 H       
  48 H48           -5.0815    -7.2849    -3.0302 H       
  49 H49           -5.6912    -9.7791    -7.2416 H       
  50 H50           -2.9997   -10.8311    -5.9584 H       
  51 H51           -3.3051    -9.9254    -7.4597 H       
  52 H52            1.9442     1.6713     0.8825 H       
  53 H53            1.9272     1.6808    -0.8974 H       
  54 H54            1.4022     3.1222     0.0054 H       
@<TRIPOS>BOND
   1    1    2 1
   2    1   27 1
   3    1   28 1
   4    1   29 1
   5    2    3 am
   6    2    4 2
   7    3    5 1
   8    3   30 1
   9    5    6 1
  10    5   10 1
  11    5   31 1
  12    6    7 1
  13    6   32 1
  14    6   33 1
  15    7    8 1
  16    7   34 1
  17    7   35 1
  18    8    9 1
  19    8   11 1
  20    9   10 1
  21    9   36 1
  22    9   37 1
  23   10   38 1
  24   10   39 1
  25   11   12 1
  26   11   40 1
  27   11   41 1
  28   12   13 1
  29   12   42 1
  30   12   43 1
  31   13   14 1
  32   13   44 1
  33   13   45 1
  34   14   15 am
  35   14   16 1
  36   15   18 1
  37   15   19 2
  38   16   17 ar
  39   16   20 ar
  40   17   21 ar
  41   17   24 1
  42   18   24 1
  43   18   46 1
  44   18   47 1
  45   20   23 ar
  46   20   48 1
  47   21   22 ar
  48   21   49 1
  49   22   26 1
  50   22   23 ar
  51   23   25 1
  52   24   50 1
  53   24   51 1
  54   27   52 1
  55   27   53 1
  56   27   54 1

#	End of record

