#	Name: ASD03730934
#	Creating user name:	WinNT
#	Creation time:	15. 06. 2019 20:44

#	Modifying user name:	WinNT
#	Modification time:	15. 06. 2019 20:44

#	Program:	/corina/corina34_cracker 3.40 0067  02.08.2006

@<TRIPOS>MOLECULE
ASD03730934
  77   84    0    0    0
SMALL
NO_CHARGES


@<TRIPOS>ATOM
   1 C1            -0.0180     1.4742     0.0101 C.2     
   2 C2             0.0021    -0.0041     0.0020 C.ar    
   3 C3             1.2186    -0.6886    -0.0133 C.ar    
   4 C4             1.2303    -2.0679    -0.0203 C.ar    
   5 C5             0.0396    -2.7730    -0.0127 C.ar    
   6 C6            -1.1694    -2.1008     0.0024 C.ar    
   7 C7            -1.1950    -0.7213     0.0154 C.ar    
   8 O8             1.0263     2.0963     0.0035 O.2     
   9 N9            -1.1942     2.1322     0.0193 N.am    
  10 C10            2.5426    -2.8085    -0.0368 C.3     
  11 O11           -0.8950    -3.3222     6.2568 O.3     
  12 C12           -0.9357    -3.5767     7.6734 C.3     
  13 O13           -0.0305    -4.6825     7.8486 O.3     
  14 C14            0.8672    -4.5864     6.8240 C.ar    
  15 C15            0.3345    -3.7506     5.8451 C.ar    
  16 C16            2.1164    -5.1528     6.6449 C.ar    
  17 C17            2.8483    -4.8954     5.4896 C.ar    
  18 C18            2.3022    -4.0656     4.5151 C.ar    
  19 C19            1.0594    -3.4944     4.6934 C.ar    
  20 O20            4.0884    -5.3328     5.1276 O.3     
  21 C21            3.3036    -4.0052     3.3929 C.3     
  22 C22            4.2536    -5.1693     3.7058 C.3     
  23 N23            2.9813    -3.0555     1.3390 N.am    
  24 C24            2.6574    -4.1565     2.0459 C.2     
  25 C25            4.0258    -2.6916     3.3422 C.ar    
  26 C26            4.7978    -1.9949     4.2449 C.ar    
  27 C27            5.3433    -0.7733     3.8926 C.ar    
  28 C28            5.1110    -0.2535     2.6322 C.ar    
  29 C29            4.3376    -0.9471     1.7248 C.ar    
  30 C30            3.7848    -2.1777     2.0707 C.ar    
  31 O31            1.9775    -5.0871     1.6680 O.2     
  32 N32           -2.4574     6.0559     0.8915 N.3     
  33 C33           -2.5727     5.6226    -0.5068 C.3     
  34 C34           -2.5317     4.0942    -0.5736 C.3     
  35 C35           -1.2141     3.5970     0.0274 C.3     
  36 C36           -1.0964     4.1024     1.4679 C.3     
  37 C37           -1.1789     5.6306     1.4756 C.3     
  38 C38           -2.6316     7.5099     1.0082 C.3     
  39 C39           -2.7527     7.8862     2.4624 C.ar    
  40 C40           -1.6207     8.1961     3.1927 C.ar    
  41 C41           -1.7317     8.5413     4.5267 C.ar    
  42 C42           -2.9749     8.5770     5.1302 C.ar    
  43 C43           -4.1070     8.2681     4.3996 C.ar    
  44 C44           -3.9964     7.9271     3.0645 C.ar    
  45 H45            2.1485    -0.1394    -0.0199 H       
  46 H46            0.0543    -3.8529    -0.0190 H       
  47 H47           -2.0951    -2.6570     0.0083 H       
  48 H48           -2.1395    -0.1977     0.0314 H       
  49 H49           -2.0276     1.6358     0.0206 H       
  50 H50            2.4166    -3.7596    -0.5542 H       
  51 H51            3.2914    -2.2095    -0.5550 H       
  52 H52           -0.5884    -2.7057     8.2291 H       
  53 H53           -1.9432    -3.8536     7.9839 H       
  54 H54            2.5266    -5.7991     7.4068 H       
  55 H55            0.6506    -2.8459     3.9327 H       
  56 H56            5.2829    -4.9048     3.4636 H       
  57 H57            3.9491    -6.0710     3.1745 H       
  58 H58            4.9778    -2.4026     5.2287 H       
  59 H59            5.9496    -0.2270     4.6001 H       
  60 H60            5.5367     0.7002     2.3573 H       
  61 H61            4.1602    -0.5344     0.7427 H       
  62 H62           -3.5158     5.9791    -0.9209 H       
  63 H63           -1.7443     6.0336    -1.0839 H       
  64 H64           -3.3678     3.6827    -0.0081 H       
  65 H65           -2.6016     3.7734    -1.6130 H       
  66 H66           -0.3790     3.9759    -0.5620 H       
  67 H67           -1.9099     3.6911     2.0655 H       
  68 H68           -0.1408     3.7875     1.8871 H       
  69 H69           -0.3571     6.0416     0.8892 H       
  70 H70           -1.1098     5.9929     2.5013 H       
  71 H71           -1.7696     8.0152     0.5727 H       
  72 H72           -3.5353     7.8111     0.4784 H       
  73 H73           -0.6494     8.1681     2.7212 H       
  74 H74           -0.8472     8.7827     5.0974 H       
  75 H75           -3.0616     8.8460     6.1725 H       
  76 H76           -5.0782     8.2957     4.8712 H       
  77 H77           -4.8812     7.6893     2.4928 H       
@<TRIPOS>BOND
   1    1    2 1
   2    1    8 2
   3    1    9 am
   4    2    3 ar
   5    2    7 ar
   6    3    4 ar
   7    3   45 1
   8    4    5 ar
   9    4   10 1
  10    5    6 ar
  11    5   46 1
  12    6    7 ar
  13    6   47 1
  14    7   48 1
  15    9   35 1
  16    9   49 1
  17   10   23 1
  18   10   50 1
  19   10   51 1
  20   11   12 1
  21   11   15 1
  22   12   13 1
  23   12   52 1
  24   12   53 1
  25   13   14 1
  26   14   15 ar
  27   14   16 ar
  28   15   19 ar
  29   16   17 ar
  30   16   54 1
  31   17   18 ar
  32   17   20 1
  33   18   19 ar
  34   18   21 1
  35   19   55 1
  36   20   22 1
  37   21   22 1
  38   21   24 1
  39   21   25 1
  40   22   56 1
  41   22   57 1
  42   23   24 am
  43   23   30 1
  44   24   31 2
  45   25   26 ar
  46   25   30 ar
  47   26   27 ar
  48   26   58 1
  49   27   28 ar
  50   27   59 1
  51   28   29 ar
  52   28   60 1
  53   29   30 ar
  54   29   61 1
  55   32   33 1
  56   32   37 1
  57   32   38 1
  58   33   34 1
  59   33   62 1
  60   33   63 1
  61   34   35 1
  62   34   64 1
  63   34   65 1
  64   35   36 1
  65   35   66 1
  66   36   37 1
  67   36   67 1
  68   36   68 1
  69   37   69 1
  70   37   70 1
  71   38   39 1
  72   38   71 1
  73   38   72 1
  74   39   40 ar
  75   39   44 ar
  76   40   41 ar
  77   40   73 1
  78   41   42 ar
  79   41   74 1
  80   42   43 ar
  81   42   75 1
  82   43   44 ar
  83   43   76 1
  84   44   77 1

#	End of record

