#	Name: ASD01140148
#	Creating user name:	WinNT
#	Creation time:	15. 06. 2019 19:00

#	Modifying user name:	WinNT
#	Modification time:	15. 06. 2019 19:00

#	Program:	/corina/corina34_cracker 3.40 0067  02.08.2006

@<TRIPOS>MOLECULE
ASD01140148
  31   33    0    0    0
SMALL
NO_CHARGES


@<TRIPOS>ATOM
   1 O1            -0.7668     0.1887     0.0436 O.2     
   2 C2            -0.4542     1.3606     0.0558 C.2     
   3 C3             0.9885     1.7432    -0.1510 C.3     
   4 C4             1.0810     2.5784    -1.4018 C.2     
   5 O5             1.7410     2.1780    -2.3374 O.2     
   6 N6             0.4517     3.7468    -1.4992 N.am    
   7 C7            -0.3027     4.3477    -0.4947 C.ar    
   8 C8            -1.1736     3.6569     0.3320 C.ar    
   9 N9            -1.3927     2.2848     0.2463 N.am    
  10 C10           -1.8869     4.3526     1.3111 C.ar    
  11 C11           -1.7323     5.7134     1.4622 C.ar    
  12 C12           -0.8617     6.4040     0.6369 C.ar    
  13 C13           -0.1535     5.7273    -0.3337 C.ar    
  14 Cl14          -0.6627     8.1186     0.8225 Cl      
  15 C15            0.5575     4.4311    -2.7161 C.ar    
  16 C16           -0.4494     4.3210    -3.6662 C.ar    
  17 C17           -0.3423     4.9976    -4.8654 C.ar    
  18 C18            0.7663     5.7838    -5.1207 C.ar    
  19 C19            1.7707     5.8956    -4.1767 C.ar    
  20 C20            1.6668     5.2260    -2.9732 C.ar    
  21 H21            1.3417     2.3206     0.7034 H       
  22 H22            1.5945     0.8442    -0.2636 H       
  23 H23           -2.3071     1.9752     0.3402 H       
  24 H24           -2.5671     3.8176     1.9572 H       
  25 H25           -2.2894     6.2401     2.2227 H       
  26 H26            0.5248     6.2696    -0.9756 H       
  27 H27           -1.3151     3.7066    -3.4676 H       
  28 H28           -1.1250     4.9124    -5.6046 H       
  29 H29            0.8481     6.3114    -6.0595 H       
  30 H30            2.6352     6.5104    -4.3791 H       
  31 H31            2.4515     5.3137    -2.2364 H       
@<TRIPOS>BOND
   1    1    2 2
   2    2    3 1
   3    2    9 am
   4    3    4 1
   5    3   21 1
   6    3   22 1
   7    4    5 2
   8    4    6 am
   9    6    7 1
  10    6   15 1
  11    7    8 ar
  12    7   13 ar
  13    8    9 1
  14    8   10 ar
  15    9   23 1
  16   10   11 ar
  17   10   24 1
  18   11   12 ar
  19   11   25 1
  20   12   13 ar
  21   12   14 1
  22   13   26 1
  23   15   16 ar
  24   15   20 ar
  25   16   17 ar
  26   16   27 1
  27   17   18 ar
  28   17   28 1
  29   18   19 ar
  30   18   29 1
  31   19   20 ar
  32   19   30 1
  33   20   31 1

#	End of record

