#	Name: ASD03092948
#	Creating user name:	WinNT
#	Creation time:	15. 06. 2019 20:33

#	Modifying user name:	WinNT
#	Modification time:	15. 06. 2019 20:33

#	Program:	/corina/corina34_cracker 3.40 0067  02.08.2006

@<TRIPOS>MOLECULE
ASD03092948
  46   49    0    0    0
SMALL
NO_CHARGES


@<TRIPOS>ATOM
   1 F1             0.0021    -0.0041     0.0020 F       
   2 C2            -0.0162     1.3468     0.0094 C.ar    
   3 C3            -1.2264     2.0209     0.0304 C.ar    
   4 C4            -1.2499     3.4005     0.0385 C.ar    
   5 C5            -0.0538     4.1159     0.0256 C.ar    
   6 C6             1.1612     3.4334     0.0045 C.ar    
   7 C7             1.1752     2.0537     0.0019 C.ar    
   8 C8            -0.0739     5.5992     0.0338 C.2     
   9 N9            -0.9893     6.3848    -0.5696 N.2     
  10 C10           -0.6926     7.6351    -0.3521 C.2     
  11 N11            0.4329     7.6950     0.4048 N.pl3   
  12 C12            1.1013     8.9122     0.8716 C.3     
  13 C13            1.0701    10.0660    -0.1472 C.3     
  14 N14           -0.1866    10.4773     0.5082 N.am    
  15 C15            0.2149     9.8047     1.7590 C.3     
  16 C16           -1.2671    11.1834     0.1203 C.2     
  17 O17           -1.3265    11.6315    -1.0052 O.2     
  18 C18           -2.4012    11.4163     1.0849 C.3     
  19 C19           -1.8828    12.1757     2.3078 C.3     
  20 C20           -3.0343    12.4121     3.2872 C.3     
  21 C21           -4.1266    13.2350     2.6011 C.3     
  22 F22           -5.1794    13.4512     3.4966 F       
  23 F23           -3.5985    14.4657     2.1964 F       
  24 C24           -4.6449    12.4755     1.3782 C.3     
  25 C25           -3.4935    12.2391     0.3988 C.3     
  26 C26            0.8239     6.4091     0.6558 C.2     
  27 Cl27           2.2017     5.9077     1.5853 Cl      
  28 H28           -2.1527     1.4658     0.0400 H       
  29 H29           -2.1937     3.9253     0.0545 H       
  30 H30            2.0905     3.9837    -0.0056 H       
  31 H31            2.1163     1.5240    -0.0100 H       
  32 H32           -1.2510     8.4853    -0.7151 H       
  33 H33            2.0894     8.7206     1.2900 H       
  34 H34            1.8834    10.7814    -0.0258 H       
  35 H35            0.9408     9.7380    -1.1786 H       
  36 H36           -0.5973     9.2681     2.2495 H       
  37 H37            0.7770    10.4434     2.4403 H       
  38 H38           -2.8126    10.4574     1.4002 H       
  39 H39           -1.1046    11.5895     2.7966 H       
  40 H40           -1.4714    13.1346     1.9925 H       
  41 H41           -3.4457    11.4533     3.6025 H       
  42 H42           -2.6650    12.9532     4.1584 H       
  43 H43           -5.0564    11.5167     1.6935 H       
  44 H44           -5.4231    13.0618     0.8894 H       
  45 H45           -3.0820    13.1980     0.0835 H       
  46 H46           -3.8628    11.6981    -0.4724 H       
@<TRIPOS>BOND
   1    1    2 1
   2    2    7 ar
   3    2    3 ar
   4    3    4 ar
   5    3   28 1
   6    4    5 ar
   7    4   29 1
   8    5    6 ar
   9    5    8 1
  10    6    7 ar
  11    6   30 1
  12    7   31 1
  13    8   26 2
  14    8    9 1
  15    9   10 2
  16   10   11 1
  17   10   32 1
  18   11   12 1
  19   11   26 1
  20   12   15 1
  21   12   13 1
  22   12   33 1
  23   13   14 1
  24   13   34 1
  25   13   35 1
  26   14   15 1
  27   14   16 am
  28   15   36 1
  29   15   37 1
  30   16   17 2
  31   16   18 1
  32   18   25 1
  33   18   19 1
  34   18   38 1
  35   19   20 1
  36   19   39 1
  37   19   40 1
  38   20   21 1
  39   20   41 1
  40   20   42 1
  41   21   22 1
  42   21   23 1
  43   21   24 1
  44   24   25 1
  45   24   43 1
  46   24   44 1
  47   25   45 1
  48   25   46 1
  49   26   27 1

#	End of record

