#	Name: ASD08170211
#	Creating user name:	WinNT
#	Creation time:	15. 06. 2019 21:17

#	Modifying user name:	WinNT
#	Modification time:	15. 06. 2019 21:17

#	Program:	/corina/corina34_cracker 3.40 0067  02.08.2006

@<TRIPOS>MOLECULE
ASD08170211
  63   66    0    0    0
SMALL
NO_CHARGES


@<TRIPOS>ATOM
   1 C1            -0.0184     1.5028     0.0103 C.ar    
   2 C2             0.0021    -0.0041     0.0020 C.3     
   3 C3             0.0225    -0.5140     1.4200 C.2     
   4 N4             0.0428    -1.8402     1.6590 N.am    
   5 O5             0.0206     0.2691     2.3461 O.2     
   6 C6             0.0616    -2.3108     2.9675 C.2     
   7 S7             0.0953    -3.9583     3.4358 S.3     
   8 N8             0.0621    -1.5739     4.0372 N.2     
   9 N9             0.0814    -2.1620     5.1541 N.2     
  10 C10            0.1005    -3.4568     5.1270 C.2     
  11 C11            0.1271    -4.3707     6.3250 C.3     
  12 C12           -1.3061    -4.7061     6.7425 C.3     
  13 C13           -1.2791    -5.6339     7.9588 C.3     
  14 C14           -2.7123    -5.9692     8.3764 C.3     
  15 C15           -2.6857    -6.8831     9.5744 C.2     
  16 N16           -2.6875    -6.5150    10.8162 N.2     
  17 S17           -2.6541    -8.6464     9.5374 S.3     
  18 C18           -2.6393    -8.6627    11.2504 C.2     
  19 N19           -2.6624    -7.4367    11.6786 N.2     
  20 N20           -2.6127    -9.8003    12.0500 N.am    
  21 C21           -2.6035    -9.6804    13.3924 C.2     
  22 C22           -2.5747   -10.9131    14.2588 C.3     
  23 O23           -2.6184    -8.5804    13.9030 O.2     
  24 C24            1.1697     2.2096     0.0028 C.ar    
  25 C25            1.1543     3.5924     0.0108 C.ar    
  26 C26           -0.0488     4.2708     0.0264 C.ar    
  27 C27           -1.2426     3.5636     0.0335 C.ar    
  28 C28           -1.2245     2.1767     0.0197 C.ar    
  29 C29           -2.5695   -10.5070    15.7100 C.ar    
  30 C30           -1.3620    -9.9223    17.6933 C.ar    
  31 C31           -1.3694   -10.2946    16.3630 C.ar    
  32 C32           -3.7651   -10.3420    16.3848 C.ar    
  33 C33           -3.7630    -9.9693    17.7150 C.ar    
  34 C34           -2.5601    -9.7611    18.3740 C.ar    
  35 O35           -2.5555    -9.3949    19.6827 O.3     
  36 O36           -2.4276     4.2288     0.0493 O.3     
  37 C37           -2.3700     5.6566     0.0578 C.3     
  38 F38           -1.7035     6.1033    -1.0882 F       
  39 F39           -3.6691     6.1755     0.0738 F       
  40 F40           -1.6812     6.0887     1.1962 F       
  41 H41           -0.8878    -0.3767    -0.5053 H       
  42 H42            0.8920    -0.3525    -0.5222 H       
  43 H43            0.0443    -2.4665     0.9183 H       
  44 H44            0.6555    -5.2892     6.0696 H       
  45 H45            0.6390    -3.8742     7.1494 H       
  46 H46           -1.8345    -3.7875     6.9979 H       
  47 H47           -1.8180    -5.2025     5.9182 H       
  48 H48           -0.7507    -6.5524     7.7035 H       
  49 H49           -0.7672    -5.1374     8.7832 H       
  50 H50           -3.2407    -5.0507     8.6318 H       
  51 H51           -3.2242    -6.4657     7.5520 H       
  52 H52           -2.6008   -10.6801    11.6415 H       
  53 H53           -3.4559   -11.5213    14.0548 H       
  54 H54           -1.6763   -11.4902    14.0398 H       
  55 H55            2.1114     1.6810    -0.0091 H       
  56 H56            2.0838     4.1424     0.0052 H       
  57 H57           -0.0603     5.3507     0.0334 H       
  58 H58           -2.1523     1.6240     0.0252 H       
  59 H59           -0.4244    -9.7569    18.2031 H       
  60 H60           -0.4370   -10.4202    15.8327 H       
  61 H61           -4.7012   -10.5042    15.8713 H       
  62 H62           -4.6971    -9.8398    18.2414 H       
  63 H63           -2.5749    -8.4384    19.8236 H       
@<TRIPOS>BOND
   1    1    2 1
   2    1   24 ar
   3    1   28 ar
   4    2    3 1
   5    2   41 1
   6    2   42 1
   7    3    4 am
   8    3    5 2
   9    4    6 1
  10    4   43 1
  11    6    8 2
  12    6    7 1
  13    7   10 1
  14    8    9 1
  15    9   10 2
  16   10   11 1
  17   11   12 1
  18   11   44 1
  19   11   45 1
  20   12   13 1
  21   12   46 1
  22   12   47 1
  23   13   14 1
  24   13   48 1
  25   13   49 1
  26   14   15 1
  27   14   50 1
  28   14   51 1
  29   15   17 1
  30   15   16 2
  31   16   19 1
  32   17   18 1
  33   18   19 2
  34   18   20 1
  35   20   21 am
  36   20   52 1
  37   21   22 1
  38   21   23 2
  39   22   29 1
  40   22   53 1
  41   22   54 1
  42   24   25 ar
  43   24   55 1
  44   25   26 ar
  45   25   56 1
  46   26   27 ar
  47   26   57 1
  48   27   28 ar
  49   27   36 1
  50   28   58 1
  51   29   32 ar
  52   29   31 ar
  53   30   31 ar
  54   30   34 ar
  55   30   59 1
  56   31   60 1
  57   32   33 ar
  58   32   61 1
  59   33   34 ar
  60   33   62 1
  61   34   35 1
  62   35   63 1
  63   36   37 1
  64   37   38 1
  65   37   39 1
  66   37   40 1

#	End of record

