#	Name: ASD02408083
#	Creating user name:	WinNT
#	Creation time:	15. 06. 2019 20:21

#	Modifying user name:	WinNT
#	Modification time:	15. 06. 2019 20:21

#	Program:	/corina/corina34_cracker 3.40 0067  02.08.2006

@<TRIPOS>MOLECULE
ASD02408083
  41   43    0    0    0
SMALL
NO_CHARGES


@<TRIPOS>ATOM
   1 C1            -0.0167     1.3779     0.0096 C.ar    
   2 C2             0.0021    -0.0041     0.0020 C.ar    
   3 C3             1.2780     2.1491     0.0014 C.3     
   4 C4             1.6960     2.4138    -1.4221 C.2     
   5 N5             2.8356     3.0950    -1.6501 N.am    
   6 N6             0.9446     1.9707    -2.3931 N.2     
   7 C7             1.2664     2.1757    -3.6768 C.2     
   8 C8             2.4394     2.8837    -3.9865 C.2     
   9 C9             3.2403     3.3495    -2.9123 C.2     
  10 N10            0.4585     1.6984    -4.6796 N.pl3   
  11 C11            0.6990     1.8553    -6.1215 C.3     
  12 O12            4.2683     3.9691    -3.1242 O.2     
  13 C13           -1.1857    -0.7116     0.0096 C.ar    
  14 C14           -2.3919    -0.0369     0.0253 C.ar    
  15 C15           -2.4106     1.3455     0.0338 C.ar    
  16 C16           -1.2233     2.0528     0.0190 C.ar    
  17 C17           -1.1653    -2.2184     0.0003 C.3     
  18 C18           -0.4791     1.1839    -6.8582 C.3     
  19 C19           -1.6023     1.1814    -5.7878 C.3     
  20 C20           -0.7902     0.9384    -4.4885 C.3     
  21 O21           -2.2751     2.4414    -5.7484 O.3     
  22 C22            2.8182     3.1236    -5.3464 C.1     
  23 N23            3.1188     3.3140    -6.4253 N.1     
  24 H24            0.9446    -0.5313    -0.0102 H       
  25 H25            1.1397     3.0969     0.5217 H       
  26 H26            2.0505     1.5677     0.5048 H       
  27 H27            3.3691     3.4052    -0.9017 H       
  28 H28            0.7412     2.9141    -6.3772 H       
  29 H29            1.6344     1.3679    -6.3964 H       
  30 H30           -3.3198    -0.5895     0.0305 H       
  31 H31           -3.3531     1.8727     0.0456 H       
  32 H32           -1.2379     3.1327     0.0256 H       
  33 H33           -1.1501    -2.5879     1.0257 H       
  34 H34           -2.0553    -2.5907    -0.5069 H       
  35 H35           -0.2756    -2.5665    -0.5245 H       
  36 H36           -0.7757     1.7714    -7.7271 H       
  37 H37           -0.2217     0.1656    -7.1495 H       
  38 H38           -2.3075     0.3690    -5.9634 H       
  39 H39           -0.5790    -0.1239    -4.3662 H       
  40 H40           -1.3341     1.3199    -3.6244 H       
  41 H41           -2.7150     2.6784    -6.5763 H       
@<TRIPOS>BOND
   1    1    2 ar
   2    1    3 1
   3    1   16 ar
   4    2   13 ar
   5    2   24 1
   6    3    4 1
   7    3   25 1
   8    3   26 1
   9    4    5 1
  10    4    6 2
  11    5    9 am
  12    5   27 1
  13    6    7 1
  14    7    8 2
  15    7   10 1
  16    8    9 1
  17    8   22 1
  18    9   12 2
  19   10   11 1
  20   10   20 1
  21   11   18 1
  22   11   28 1
  23   11   29 1
  24   13   14 ar
  25   13   17 1
  26   14   15 ar
  27   14   30 1
  28   15   16 ar
  29   15   31 1
  30   16   32 1
  31   17   33 1
  32   17   34 1
  33   17   35 1
  34   18   19 1
  35   18   36 1
  36   18   37 1
  37   19   20 1
  38   19   21 1
  39   19   38 1
  40   20   39 1
  41   20   40 1
  42   21   41 1
  43   22   23 3

#	End of record

