#	Name: ASD04030012
#	Creating user name:	WinNT
#	Creation time:	15. 06. 2019 20:48

#	Modifying user name:	WinNT
#	Modification time:	15. 06. 2019 20:48

#	Program:	/corina/corina34_cracker 3.40 0067  02.08.2006

@<TRIPOS>MOLECULE
ASD04030012
  56   60    0    0    0
SMALL
NO_CHARGES


@<TRIPOS>ATOM
   1 C1            -0.0042     1.3849     0.2317 C.ar    
   2 C2             0.0163    -0.0172     0.1228 C.ar    
   3 C3             1.2947    -0.6947    -0.1195 C.2     
   4 C4             2.3459     1.4949    -0.1113 C.2     
   5 C5            -1.1716    -0.7451     0.2459 C.ar    
   6 C6            -2.3570    -0.0802     0.4738 C.ar    
   7 C7            -2.3752     1.3057     0.5807 C.ar    
   8 C8            -1.2116     2.0347     0.4667 C.ar    
   9 C9             1.2851     5.4890     1.8106 C.3     
  10 C10           12.4176    -0.8972     0.3585 C.2     
  11 C11            6.5248    -1.2835    -0.8086 C.ar    
  12 C12            6.0562    -0.6165     0.3176 C.ar    
  13 C13            6.9641    -0.1250     1.2480 C.ar    
  14 C14            8.3188    -0.3028     1.0511 C.ar    
  15 C15            8.7799    -0.9709    -0.0740 C.ar    
  16 C16            7.8759    -1.4622    -1.0062 C.ar    
  17 O17           10.1153    -1.1439    -0.2637 O.3     
  18 S18            5.3537    -1.8881    -1.9812 S.o2    
  19 N19            3.9149    -1.1527    -1.6096 N.am    
  20 C20            3.7497    -0.5478    -0.4750 C.2     
  21 N21            4.6861    -0.4469     0.5117 N.pl3   
  22 O22            5.7537    -1.3862    -3.2490 O.2     
  23 O23            5.1844    -3.2722    -1.7079 O.2     
  24 C24            2.4424     0.0868    -0.2321 C.2     
  25 N25            1.1690     2.1032     0.1110 N.am    
  26 F26           -3.5072    -0.7788     0.5935 F       
  27 C27            1.1290     3.5630     0.2267 C.3     
  28 C28            1.3269     3.9643     1.6898 C.3     
  29 O29            3.3549     2.1707    -0.2111 O.2     
  30 O30            1.3574    -2.0393    -0.2300 O.3     
  31 C31            1.5813     6.0973     3.1829 C.3     
  32 C32            0.1521     6.1014     2.6366 C.3     
  33 C33           10.9869    -0.6118     0.7359 C.3     
  34 N34           13.4207    -0.4857     1.1591 N.am    
  35 O35           12.6665    -1.4972    -0.6657 O.2     
  36 H36           -1.1600    -1.8218     0.1625 H       
  37 H37           -3.3104     1.8158     0.7586 H       
  38 H38           -1.2381     3.1110     0.5515 H       
  39 H39            1.6223     6.0398     0.9326 H       
  40 H40            6.6098     0.3963     2.1249 H       
  41 H41            9.0225     0.0799     1.7755 H       
  42 H42            8.2310    -1.9834    -1.8829 H       
  43 H43            4.3779    -0.2463     1.4093 H       
  44 H44            1.9236     3.9975    -0.3799 H       
  45 H45            0.1636     3.9289    -0.1230 H       
  46 H46            2.2923     3.5985     2.0395 H       
  47 H47            0.5323     3.5299     2.2964 H       
  48 H48            2.2566    -2.3858    -0.3105 H       
  49 H49            1.8059     5.4113     3.9996 H       
  50 H50            2.1134     7.0483     3.2076 H       
  51 H51           -0.2560     7.0551     2.3020 H       
  52 H52           -0.5634     5.4181     3.0940 H       
  53 H53           10.7648    -1.0768     1.6965 H       
  54 H54           10.8388     0.4655     0.8110 H       
  55 H55           14.3416    -0.6694     0.9161 H       
  56 H56           13.2217    -0.0058     1.9783 H       
@<TRIPOS>BOND
   1    1    2 ar
   2    1   25 1
   3    1    8 ar
   4    2    3 1
   5    2    5 ar
   6    3   30 1
   7    3   24 2
   8    4   24 1
   9    4   29 2
  10    4   25 am
  11    5   36 1
  12    5    6 ar
  13    6    7 ar
  14    6   26 1
  15    7    8 ar
  16    7   37 1
  17    8   38 1
  18    9   31 1
  19    9   32 1
  20    9   39 1
  21    9   28 1
  22   10   35 2
  23   10   33 1
  24   10   34 am
  25   11   16 ar
  26   11   12 ar
  27   11   18 1
  28   12   13 ar
  29   12   21 1
  30   13   14 ar
  31   13   40 1
  32   14   15 ar
  33   14   41 1
  34   15   17 1
  35   15   16 ar
  36   16   42 1
  37   17   33 1
  38   18   23 2
  39   18   19 am
  40   18   22 2
  41   19   20 2
  42   20   21 1
  43   20   24 1
  44   21   43 1
  45   25   27 1
  46   27   28 1
  47   27   44 1
  48   27   45 1
  49   28   46 1
  50   28   47 1
  51   30   48 1
  52   31   32 1
  53   31   49 1
  54   31   50 1
  55   32   51 1
  56   32   52 1
  57   33   53 1
  58   33   54 1
  59   34   55 1
  60   34   56 1

#	End of record

