#	Name: ASD01200261
#	Creating user name:	WinNT
#	Creation time:	15. 06. 2019 19:08

#	Modifying user name:	WinNT
#	Modification time:	15. 06. 2019 19:08

#	Program:	/corina/corina34_cracker 3.40 0067  02.08.2006

@<TRIPOS>MOLECULE
ASD01200261
  48   50    0    0    0
SMALL
NO_CHARGES


@<TRIPOS>ATOM
   1 C1             0.1680     1.4050     0.3969 C.2     
   2 C2            -0.0906    -0.0793     0.3675 C.3     
   3 C3            -1.1420    -0.4348     1.4207 C.3     
   4 O4             1.2477     1.8255     0.7551 O.2     
   5 N5            -0.7987     2.2651     0.0197 N.am    
   6 C6            -0.5761     3.6393     0.0922 C.ar    
   7 C7             0.7245     4.1344     0.1334 C.ar    
   8 N8            -1.6025     4.4786     0.1165 N.ar    
   9 N9             0.9310     5.4359     0.2015 N.ar    
  10 C10           -0.0954     6.2693     0.2306 C.ar    
  11 C11           -1.3878     5.7813     0.1847 C.ar    
  12 C12           -1.4618    -1.9287     1.3382 C.3     
  13 C13           -2.1584    -2.2609     0.0023 C.3     
  14 C14           -3.2181    -3.2994     0.3061 C.2     
  15 C15           -3.1516    -3.5908     1.7948 C.3     
  16 C16           -2.5117    -2.3208     2.4086 C.3     
  17 O17           -3.9758    -3.8022    -0.4884 O.2     
  18 C18            1.1886    -0.8181     0.6655 C.ar    
  19 C19            1.7113    -1.6976    -0.2641 C.ar    
  20 C20            2.8856    -2.3757     0.0096 C.ar    
  21 C21            3.5363    -2.1731     1.2138 C.ar    
  22 C22            3.0128    -1.2936     2.1424 C.ar    
  23 C23            1.8421    -0.6119     1.8659 C.ar    
  24 S24            5.0318    -3.0368     1.5636 S.o2    
  25 O25            5.8471    -2.8015     0.4238 O.2     
  26 O26            5.4156    -2.5668     2.8485 O.2     
  27 C27            4.5390    -4.7806     1.6447 C.3     
  28 Cl28           3.5423    -3.4808    -1.1571 Cl      
  29 H29           -0.4539    -0.3654    -0.6195 H       
  30 H30           -0.7563    -0.2000     2.4128 H       
  31 H31           -2.0489     0.1416     1.2377 H       
  32 H32           -1.6494     1.9278    -0.3021 H       
  33 H33            1.5631     3.4543     0.1101 H       
  34 H34            0.0766     7.3340     0.2863 H       
  35 H35           -2.2234     6.4652     0.2042 H       
  36 H36           -0.5553    -2.5225     1.4554 H       
  37 H37           -2.6224    -1.3644    -0.4089 H       
  38 H38           -1.4340    -2.6640    -0.7055 H       
  39 H39           -4.1527    -3.7453     2.1975 H       
  40 H40           -2.5252    -4.4624     1.9846 H       
  41 H41           -2.0295    -2.5502     3.3588 H       
  42 H42           -3.2546    -1.5324     2.5300 H       
  43 H43            1.2028    -1.8557    -1.2037 H       
  44 H44            3.5206    -1.1354     3.0823 H       
  45 H45            1.4359     0.0790     2.5899 H       
  46 H46            4.1092    -5.0816     0.6893 H       
  47 H47            5.4129    -5.3955     1.8597 H       
  48 H48            3.7987    -4.9127     2.4338 H       
@<TRIPOS>BOND
   1    1    2 1
   2    1    4 2
   3    1    5 am
   4    2    3 1
   5    2   18 1
   6    2   29 1
   7    3   12 1
   8    3   30 1
   9    3   31 1
  10    5    6 1
  11    5   32 1
  12    6    7 ar
  13    6    8 ar
  14    7    9 ar
  15    7   33 1
  16    8   11 ar
  17    9   10 ar
  18   10   11 ar
  19   10   34 1
  20   11   35 1
  21   12   13 1
  22   12   16 1
  23   12   36 1
  24   13   14 1
  25   13   37 1
  26   13   38 1
  27   14   15 1
  28   14   17 2
  29   15   16 1
  30   15   39 1
  31   15   40 1
  32   16   41 1
  33   16   42 1
  34   18   19 ar
  35   18   23 ar
  36   19   20 ar
  37   19   43 1
  38   20   21 ar
  39   20   28 1
  40   21   22 ar
  41   21   24 1
  42   22   23 ar
  43   22   44 1
  44   23   45 1
  45   24   25 2
  46   24   26 2
  47   24   27 1
  48   27   46 1
  49   27   47 1
  50   27   48 1

#	End of record

