#	Name: ASD01918394
#	Creating user name:	WinNT
#	Creation time:	15. 06. 2019 20:11

#	Modifying user name:	WinNT
#	Modification time:	15. 06. 2019 20:11

#	Program:	/corina/corina34_cracker 3.40 0067  02.08.2006

@<TRIPOS>MOLECULE
ASD01918394
  41   43    0    0    0
SMALL
NO_CHARGES


@<TRIPOS>ATOM
   1 C1            -0.0182     1.3822     0.0170 C.ar    
   2 C2             0.0008    -0.0024     0.0033 C.ar    
   3 C3             1.2085    -0.6797    -0.0181 C.ar    
   4 C4             2.3963     0.0248    -0.0262 C.ar    
   5 C5             2.3791     1.4128    -0.0129 C.ar    
   6 C6             1.1676     2.0901     0.0090 C.ar    
   7 F7            -1.1601    -0.6932     0.0113 F       
   8 N8             3.5846     2.1302    -0.0207 N.pl3   
   9 C9             4.5006     2.1523    -1.0270 C.2     
  10 N10            5.4899     2.9251    -0.6831 N.2     
  11 C11            5.2491     3.4285     0.5545 C.2     
  12 C12            4.0478     2.9351     0.9744 C.2     
  13 C13            4.3880     1.4025    -2.3294 C.3     
  14 C14            3.3694     3.2196     2.2897 C.3     
  15 C15            6.1235     4.3448     1.3059 C.2     
  16 N16            7.2871     4.7596     0.7669 N.am    
  17 O17            5.7956     4.7273     2.4129 O.2     
  18 C18            8.0623     5.7090     1.4291 C.ar    
  19 C19            9.3108     6.0528     0.9235 C.ar    
  20 N20            7.6010     6.2794     2.5312 N.ar    
  21 C21            8.3026     7.1825     3.1885 C.ar    
  22 C22            9.5530     7.5676     2.7461 C.ar    
  23 C23           10.0706     6.9974     1.5912 C.ar    
  24 C24            7.7322     7.8026     4.4380 C.3     
  25 H25           -0.9610     1.9089     0.0295 H       
  26 H26            1.2215    -1.7596    -0.0280 H       
  27 H27            3.3380    -0.5037    -0.0425 H       
  28 H28            1.1524     3.1700     0.0190 H       
  29 H29            3.8787     2.0256    -3.0645 H       
  30 H30            5.3850     1.1532    -2.6926 H       
  31 H31            3.8187     0.4862    -2.1730 H       
  32 H32            2.7279     4.0946     2.1858 H       
  33 H33            2.7665     2.3595     2.5810 H       
  34 H34            4.1232     3.4103     3.0535 H       
  35 H35            7.5847     4.3970    -0.0822 H       
  36 H36            9.6829     5.5889     0.0220 H       
  37 H37           10.1202     8.3081     3.2904 H       
  38 H38           11.0460     7.2811     1.2245 H       
  39 H39            8.0233     7.2082     5.3040 H       
  40 H40            8.1159     8.8169     4.5480 H       
  41 H41            6.6450     7.8312     4.3657 H       
@<TRIPOS>BOND
   1    1    2 ar
   2    1    6 ar
   3    1   25 1
   4    2    3 ar
   5    2    7 1
   6    3    4 ar
   7    3   26 1
   8    4    5 ar
   9    4   27 1
  10    5    6 ar
  11    5    8 1
  12    6   28 1
  13    8    9 1
  14    8   12 1
  15    9   10 2
  16    9   13 1
  17   10   11 1
  18   11   12 2
  19   11   15 1
  20   12   14 1
  21   13   29 1
  22   13   30 1
  23   13   31 1
  24   14   32 1
  25   14   33 1
  26   14   34 1
  27   15   16 am
  28   15   17 2
  29   16   18 1
  30   16   35 1
  31   18   19 ar
  32   18   20 ar
  33   19   23 ar
  34   19   36 1
  35   20   21 ar
  36   21   22 ar
  37   21   24 1
  38   22   23 ar
  39   22   37 1
  40   23   38 1
  41   24   39 1
  42   24   40 1
  43   24   41 1

#	End of record

