#	Name: ASD01880326
#	Creating user name:	WinNT
#	Creation time:	15. 06. 2019 19:40

#	Modifying user name:	WinNT
#	Modification time:	15. 06. 2019 19:40

#	Program:	/corina/corina34_cracker 3.40 0067  02.08.2006

@<TRIPOS>MOLECULE
ASD01880326
  37   39    0    0    0
SMALL
NO_CHARGES


@<TRIPOS>ATOM
   1 C1            -0.0158     1.3166     0.0093 C.ar    
   2 N2             0.0021    -0.0041     0.0020 N.ar    
   3 C3            -1.1218    -0.7055     0.0094 C.ar    
   4 C4            -2.3611    -0.0158     0.0254 C.ar    
   5 C5            -2.3234     1.3812     0.0325 C.ar    
   6 N6            -1.1363     2.0007     0.0291 N.ar    
   7 C7            -3.7205    -0.5227     0.0357 C.2     
   8 C8            -4.6572     0.4056     0.0497 C.2     
   9 S9            -3.9623     2.0156     0.0517 S.3     
  10 C10            1.2933     2.0630     0.0008 C.3     
  11 C11           -6.1367     0.1192     0.0623 C.3     
  12 N12           -1.0871    -2.0883     0.0012 N.pl3   
  13 C13            0.1995    -2.7886    -0.0158 C.3     
  14 O14            0.5194    -3.2294     1.3053 O.3     
  15 C15            0.1097    -3.9977    -0.9491 C.3     
  16 C16            1.4096    -4.7968    -0.8702 C.3     
  17 C17            1.5052    -5.4957     0.4609 C.2     
  18 C18            0.4116    -5.9633     1.0498 C.2     
  19 C19           -0.9016    -5.7756     0.4146 C.2     
  20 C20           -1.0529    -4.8624    -0.5365 C.2     
  21 H21           -3.9477    -1.5785     0.0318 H       
  22 H22            1.5991     2.2485    -1.0289 H       
  23 H23            1.1731     3.0133     0.5209 H       
  24 H24            2.0546     1.4670     0.5042 H       
  25 H25           -6.4835     0.0446     1.0929 H       
  26 H26           -6.6674     0.9266    -0.4421 H       
  27 H27           -6.3292    -0.8209    -0.4548 H       
  28 H28           -1.9147    -2.5942     0.0067 H       
  29 H29            0.9768    -2.1122    -0.3713 H       
  30 H30           -0.1306    -3.8359     1.6858 H       
  31 H31           -0.0422    -3.6543    -1.9723 H       
  32 H32            1.4280    -5.5374    -1.6697 H       
  33 H33            2.2571    -4.1211    -0.9856 H       
  34 H34            2.4668    -5.6168     0.9374 H       
  35 H35            0.4859    -6.4816     1.9944 H       
  36 H36           -1.7419    -6.3806     0.7216 H       
  37 H37           -2.0125    -4.7387    -1.0163 H       
@<TRIPOS>BOND
   1    1    2 ar
   2    1   10 1
   3    1    6 ar
   4    2    3 ar
   5    3    4 ar
   6    3   12 1
   7    4    5 ar
   8    4    7 1
   9    5    6 ar
  10    5    9 1
  11    7    8 2
  12    7   21 1
  13    8    9 1
  14    8   11 1
  15   10   22 1
  16   10   23 1
  17   10   24 1
  18   11   25 1
  19   11   26 1
  20   11   27 1
  21   12   13 1
  22   12   28 1
  23   13   14 1
  24   13   15 1
  25   13   29 1
  26   14   30 1
  27   15   16 1
  28   15   20 1
  29   15   31 1
  30   16   17 1
  31   16   32 1
  32   16   33 1
  33   17   18 2
  34   17   34 1
  35   18   19 1
  36   18   35 1
  37   19   20 2
  38   19   36 1
  39   20   37 1

#	End of record

