#	Name: ASD01880453
#	Creating user name:	WinNT
#	Creation time:	15. 06. 2019 19:40

#	Modifying user name:	WinNT
#	Modification time:	15. 06. 2019 19:40

#	Program:	/corina/corina34_cracker 3.40 0067  02.08.2006

@<TRIPOS>MOLECULE
ASD01880453
  48   52    0    0    0
SMALL
NO_CHARGES


@<TRIPOS>ATOM
   1 C1            -0.0169     1.3929     0.0097 C.ar    
   2 C2             0.0021    -0.0041     0.0020 C.ar    
   3 C3             1.2136    -0.6908    -0.0132 C.ar    
   4 C4             2.4023     0.0192    -0.0208 C.ar    
   5 C5             2.3728     1.4246    -0.0130 C.ar    
   6 C6             1.1521     2.1000     0.0023 C.ar    
   7 N7             3.6285    -0.6376    -0.0355 N.pl3   
   8 C8             4.7928     0.0688    -0.0425 C.2     
   9 N9             4.8013     1.4562    -0.0349 N.am    
  10 C10            3.6499     2.1585    -0.0210 C.2     
  11 N11            3.9493    -2.0026    -0.0456 N.2     
  12 C12            5.2607    -2.1201    -0.0583 C.2     
  13 C13            5.8179    -0.8300    -0.0567 C.2     
  14 C14            6.0810     2.1695    -0.0426 C.3     
  15 O15            3.6659     3.3751    -0.0147 O.2     
  16 C16           -1.2739    -0.7592     0.0106 C.ar    
  17 C17            6.0195    -3.3951    -0.0719 C.ar    
  18 C18            5.3400    -4.6120    -0.0725 C.ar    
  19 C19            6.0480    -5.7955    -0.0852 C.ar    
  20 C20            7.4361    -5.7755    -0.0973 C.ar    
  21 C21            8.1156    -4.5649    -0.0967 C.ar    
  22 C22            7.4130    -3.3781    -0.0899 C.ar    
  23 C23           -2.4898    -0.0773     0.0264 C.ar    
  24 C24           -3.6744    -0.7841     0.0339 C.ar    
  25 C25           -3.6571    -2.1697     0.0262 C.ar    
  26 C26           -2.4509    -2.8517     0.0106 C.ar    
  27 C27           -1.2614    -2.1532    -0.0028 C.ar    
  28 F28           -4.8198    -2.8577     0.0345 F       
  29 O29            8.1309    -6.9431    -0.1093 O.3     
  30 C30            9.5568    -6.8493    -0.1213 C.3     
  31 H31           -0.9612     1.9169     0.0170 H       
  32 H32            1.2259    -1.7707    -0.0188 H       
  33 H33            1.1312     3.1798     0.0087 H       
  34 H34            6.8715    -0.5926    -0.0651 H       
  35 H35            6.3890     2.3520    -1.0721 H       
  36 H36            5.9697     3.1209     0.4775 H       
  37 H37            6.8362     1.5662     0.4611 H       
  38 H38            4.2602    -4.6282    -0.0627 H       
  39 H39            5.5220    -6.7387    -0.0853 H       
  40 H40            9.1955    -4.5524    -0.1061 H       
  41 H41            7.9421    -2.4367    -0.0894 H       
  42 H42           -2.5042     1.0025     0.0330 H       
  43 H43           -4.6168    -0.2567     0.0461 H       
  44 H44           -2.4422    -3.9316     0.0051 H       
  45 H45           -0.3218    -2.6856    -0.0150 H       
  46 H46            9.8779    -6.3083    -1.0115 H       
  47 H47            9.8935    -6.3173     0.7684 H       
  48 H48            9.9867    -7.8509    -0.1302 H       
@<TRIPOS>BOND
   1    1    2 ar
   2    1    6 ar
   3    1   31 1
   4    2    3 ar
   5    2   16 1
   6    3    4 ar
   7    3   32 1
   8    4    5 ar
   9    4    7 1
  10    5    6 ar
  11    5   10 1
  12    6   33 1
  13    7    8 1
  14    7   11 1
  15    8    9 1
  16    8   13 2
  17    9   10 am
  18    9   14 1
  19   10   15 2
  20   11   12 2
  21   12   13 1
  22   12   17 1
  23   13   34 1
  24   14   35 1
  25   14   36 1
  26   14   37 1
  27   16   23 ar
  28   16   27 ar
  29   17   18 ar
  30   17   22 ar
  31   18   19 ar
  32   18   38 1
  33   19   20 ar
  34   19   39 1
  35   20   21 ar
  36   20   29 1
  37   21   22 ar
  38   21   40 1
  39   22   41 1
  40   23   24 ar
  41   23   42 1
  42   24   25 ar
  43   24   43 1
  44   25   26 ar
  45   25   28 1
  46   26   27 ar
  47   26   44 1
  48   27   45 1
  49   29   30 1
  50   30   46 1
  51   30   47 1
  52   30   48 1

#	End of record

