#	Name: ASD01915351
#	Creating user name:	WinNT
#	Creation time:	15. 06. 2019 20:05

#	Modifying user name:	WinNT
#	Modification time:	15. 06. 2019 20:05

#	Program:	/corina/corina34_cracker 3.40 0067  02.08.2006

@<TRIPOS>MOLECULE
ASD01915351
  45   48    0    0    0
SMALL
NO_CHARGES


@<TRIPOS>ATOM
   1 C1             0.0648     0.5951     0.0063 C.ar    
   2 C2             0.3866    -0.7431     0.2250 C.ar    
   3 N3            -0.5815    -1.6435     0.4246 N.ar    
   4 C4            -1.8545    -1.3190     0.4244 C.ar    
   5 C5            -2.2592    -0.0130     0.2150 C.ar    
   6 C6            -1.3027     0.9690     0.0068 C.ar    
   7 C7             1.2522     1.4208    -0.1895 C.2     
   8 C8             2.4024     0.7544    -0.1241 C.2     
   9 S9             2.1340    -0.9497     0.1842 S.3     
  10 C10            1.1829     2.8798    -0.4412 C.ar    
  11 C11            1.4902     3.7808     0.5776 C.ar    
  12 S12            3.9908     1.4907    -0.3229 S.o2    
  13 O13            3.8604     2.8439     0.0907 O.2     
  14 O14            4.9260     0.5888     0.2526 O.2     
  15 C15            4.3352     1.5295    -2.0504 C.ar    
  16 C16            4.0811     2.6758    -2.7801 C.ar    
  17 C17            4.8647     0.4154    -2.6746 C.ar    
  18 C18            5.1355     0.4453    -4.0296 C.ar    
  19 C19            4.8761     1.5904    -4.7614 C.ar    
  20 C20            4.3507     2.7067    -4.1353 C.ar    
  21 C21            1.4245     5.1380     0.3378 C.ar    
  22 C22            1.0539     5.6057    -0.9115 C.ar    
  23 C23            0.7477     4.7153    -1.9265 C.ar    
  24 C24            0.8157     3.3561    -1.6992 C.ar    
  25 Cl25           0.9721     7.3145    -1.2060 Cl      
  26 Cl26           5.2160     1.6287    -6.4634 Cl      
  27 N27           -1.6773     2.2908    -0.2065 N.3     
  28 C28           -2.5259     2.4115    -1.3995 C.3     
  29 C29           -2.3498     2.8449     0.9761 C.3     
  30 H30           -2.5976    -2.0850     0.5903 H       
  31 H31           -3.3092     0.2398     0.2174 H       
  32 H32            1.7788     3.4171     1.5527 H       
  33 H33            3.6716     3.5474    -2.2911 H       
  34 H34            5.0671    -0.4785    -2.1031 H       
  35 H35            5.5498    -0.4249    -4.5169 H       
  36 H36            4.1477     3.6007    -4.7062 H       
  37 H37            1.6624     5.8368     1.1262 H       
  38 H38            0.4588     5.0854    -2.8992 H       
  39 H39            0.5770     2.6624    -2.4918 H       
  40 H40           -3.4255     1.8103    -1.2678 H       
  41 H41           -2.8045     3.4555    -1.5432 H       
  42 H42           -1.9775     2.0583    -2.2728 H       
  43 H43           -1.6733     2.8068     1.8300 H       
  44 H44           -2.6321     3.8797     0.7821 H       
  45 H45           -3.2430     2.2593     1.1939 H       
@<TRIPOS>BOND
   1    1    2 ar
   2    1    7 1
   3    1    6 ar
   4    2    3 ar
   5    2    9 1
   6    3    4 ar
   7    4    5 ar
   8    4   30 1
   9    5    6 ar
  10    5   31 1
  11    6   27 1
  12    7    8 2
  13    7   10 1
  14    8    9 1
  15    8   12 1
  16   10   11 ar
  17   10   24 ar
  18   11   21 ar
  19   11   32 1
  20   12   13 2
  21   12   14 2
  22   12   15 1
  23   15   16 ar
  24   15   17 ar
  25   16   20 ar
  26   16   33 1
  27   17   18 ar
  28   17   34 1
  29   18   19 ar
  30   18   35 1
  31   19   20 ar
  32   19   26 1
  33   20   36 1
  34   21   22 ar
  35   21   37 1
  36   22   23 ar
  37   22   25 1
  38   23   24 ar
  39   23   38 1
  40   24   39 1
  41   27   28 1
  42   27   29 1
  43   28   40 1
  44   28   41 1
  45   28   42 1
  46   29   43 1
  47   29   44 1
  48   29   45 1

#	End of record

