#	Name: ASD00844967
#	Creating user name:	WinNT
#	Creation time:	15. 06. 2019 18:51

#	Modifying user name:	WinNT
#	Modification time:	15. 06. 2019 18:51

#	Program:	/corina/corina34_cracker 3.40 0067  02.08.2006

@<TRIPOS>MOLECULE
ASD00844967
  91   96    0    0    0
SMALL
NO_CHARGES


@<TRIPOS>ATOM
   1 F1             5.6889    -2.1912    -1.9631 F       
   2 C2             0.7410     1.2447    -0.3746 C.ar    
   3 C3             0.9822    -0.0937    -0.6479 C.ar    
   4 C4             0.8550    -1.0390     0.3598 C.ar    
   5 C5             0.4887    -0.6454     1.6321 C.ar    
   6 C6             0.2483     0.6894     1.9019 C.ar    
   7 C7             0.3748     1.6332     0.8997 C.ar    
   8 C8             1.1158    -2.4939     0.0663 C.3     
   9 C9             0.7849    -3.3460     1.2730 C.2     
  10 C10            0.3048    -2.9479    -1.1491 C.3     
  11 C11           -1.1546    -2.6515    -0.9183 C.2     
  12 N12           -2.0752    -3.0611    -1.8134 N.am    
  13 O13           -1.5007    -2.0444     0.0730 O.2     
  14 C14           -3.4866    -2.6820    -1.6624 C.3     
  15 C15           -4.3441    -3.9511    -1.6936 C.3     
  16 C16           -4.0377    -4.7377    -2.9701 C.3     
  17 C17           -2.5639    -5.1502    -2.9757 C.3     
  18 C18           -1.6854    -3.8901    -2.9621 C.3     
  19 N19           -4.8823    -5.9386    -3.0195 N.3     
  20 C20           -4.7015    -6.6577    -4.2883 C.3     
  21 C21           -5.5357    -7.9407    -4.2677 C.3     
  22 N22           -6.9493    -7.5995    -4.0559 N.3     
  23 C23           -7.1301    -6.8804    -2.7872 C.3     
  24 C24           -6.2959    -5.5973    -2.8077 C.3     
  25 C25           -7.7939    -8.8004    -4.1054 C.3     
  26 O26           -0.3012    -3.4552     1.8018 O.2     
  27 N27            1.9202    -3.9590     1.6480 N.am    
  28 C28            2.5913    -2.7324    -0.1590 C.ar    
  29 C29            2.9990    -3.6205     0.8284 C.ar    
  30 C30            3.4846    -2.2537    -1.0910 C.ar    
  31 C31            4.8092    -2.6581    -1.0503 C.ar    
  32 C32            5.2284    -3.5442    -0.0695 C.ar    
  33 C33            4.3316    -4.0243     0.8655 C.ar    
  34 F34            6.5195    -3.9398    -0.0281 F       
  35 C35            1.6984    -6.6170     2.3267 C.ar    
  36 C36            0.4442    -6.9273     1.8219 C.ar    
  37 C37            2.6907    -7.5781     2.3473 C.ar    
  38 C38            2.4347    -8.8481     1.8650 C.ar    
  39 C39            1.1852    -9.1601     1.3612 C.ar    
  40 C40            0.1896    -8.2029     1.3388 C.ar    
  41 H41            0.9876   -10.1529     0.9849 H       
  42 O42           -0.5336    -5.9838     1.8010 O.3     
  43 C43           -1.8004    -6.3741     1.2670 C.3     
  44 C44           -9.2078    -8.4491    -3.6381 C.3     
  45 O45            1.3421    -0.4785    -1.9006 O.3     
  46 C46            1.3748     0.5359    -2.9066 C.3     
  47 C47            1.8835    -0.0637    -4.2191 C.3     
  48 F48            3.1343    -0.6538    -4.0083 F       
  49 F49            0.9808    -1.0326    -4.6700 F       
  50 S50            2.0279    -4.9962     2.9345 S.o2    
  51 O51            3.3891    -4.9897     3.3423 O.2     
  52 O52            0.9541    -4.6682     3.8054 O.2     
  53 H53            0.8437     1.9829    -1.1562 H       
  54 H54            0.3895    -1.3808     2.4168 H       
  55 H55           -0.0387     0.9951     2.8972 H       
  56 H56            0.1866     2.6751     1.1129 H       
  57 H57            0.6483    -2.4140    -2.0351 H       
  58 H58            0.4391    -4.0196    -1.2958 H       
  59 H59           -3.6275    -2.1691    -0.7109 H       
  60 H60           -3.7779    -2.0240    -2.4811 H       
  61 H61           -4.1152    -4.5662    -0.8234 H       
  62 H62           -5.3992    -3.6777    -1.6791 H       
  63 H63           -4.2433    -4.1133    -3.8395 H       
  64 H64           -2.3518    -5.7541    -2.0934 H       
  65 H65           -2.3520    -5.7304    -3.8738 H       
  66 H66           -1.8310    -3.3331    -3.8876 H       
  67 H67           -0.6379    -4.1759    -2.8662 H       
  68 H68           -5.0271    -6.0254    -5.1143 H       
  69 H69           -3.6489    -6.9103    -4.4163 H       
  70 H70           -5.4258    -8.4612    -5.2191 H       
  71 H71           -5.1919    -8.5851    -3.4586 H       
  72 H72           -8.1827    -6.6277    -2.6591 H       
  73 H73           -6.8045    -7.5127    -1.9612 H       
  74 H74           -6.4057    -5.0769    -1.8563 H       
  75 H75           -6.6396    -4.9530    -3.6169 H       
  76 H76           -7.8320    -9.1760    -5.1279 H       
  77 H77           -7.3751    -9.5662    -3.4524 H       
  78 H78            3.1531    -1.5640    -1.8532 H       
  79 H79            4.6647    -4.7140     1.6270 H       
  80 H80            3.6674    -7.3370     2.7403 H       
  81 H81            3.2119    -9.5978     1.8813 H       
  82 H82           -0.7863    -8.4472     0.9459 H       
  83 H83           -1.6762    -6.6902     0.2313 H       
  84 H84           -2.2029    -7.2001     1.8533 H       
  85 H85           -2.4882    -5.5295     1.3091 H       
  86 H86           -9.6265    -7.6833    -4.2910 H       
  87 H87           -9.8344    -9.3402    -3.6748 H       
  88 H88           -9.1697    -8.0736    -2.6155 H       
  89 H89            0.3708     0.9339    -3.0540 H       
  90 H90            2.0412     1.3388    -2.5915 H       
  91 H91            1.9748     0.7240    -4.9670 H       
@<TRIPOS>BOND
   1    1   31 1
   2    2    3 ar
   3    2    7 ar
   4    2   53 1
   5    3    4 ar
   6    3   45 1
   7    4    5 ar
   8    4    8 1
   9    5    6 ar
  10    5   54 1
  11    6    7 ar
  12    6   55 1
  13    7   56 1
  14    8    9 1
  15    8   10 1
  16    8   28 1
  17    9   26 2
  18    9   27 am
  19   10   11 1
  20   10   57 1
  21   10   58 1
  22   11   12 am
  23   11   13 2
  24   12   14 1
  25   12   18 1
  26   14   15 1
  27   14   59 1
  28   14   60 1
  29   15   16 1
  30   15   61 1
  31   15   62 1
  32   16   17 1
  33   16   19 1
  34   16   63 1
  35   17   18 1
  36   17   64 1
  37   17   65 1
  38   18   66 1
  39   18   67 1
  40   19   20 1
  41   19   24 1
  42   20   21 1
  43   20   68 1
  44   20   69 1
  45   21   22 1
  46   21   70 1
  47   21   71 1
  48   22   23 1
  49   22   25 1
  50   23   24 1
  51   23   72 1
  52   23   73 1
  53   24   74 1
  54   24   75 1
  55   25   44 1
  56   25   76 1
  57   25   77 1
  58   27   50 am
  59   27   29 1
  60   28   29 ar
  61   28   30 ar
  62   29   33 ar
  63   30   31 ar
  64   30   78 1
  65   31   32 ar
  66   32   33 ar
  67   32   34 1
  68   33   79 1
  69   35   36 ar
  70   35   37 ar
  71   35   50 1
  72   36   42 1
  73   36   40 ar
  74   37   38 ar
  75   37   80 1
  76   38   39 ar
  77   38   81 1
  78   39   40 ar
  79   39   41 1
  80   40   82 1
  81   42   43 1
  82   43   83 1
  83   43   84 1
  84   43   85 1
  85   44   86 1
  86   44   87 1
  87   44   88 1
  88   45   46 1
  89   46   47 1
  90   46   89 1
  91   46   90 1
  92   47   48 1
  93   47   49 1
  94   47   91 1
  95   50   51 2
  96   50   52 2

#	End of record

