#	Name: ASD01478018
#	Creating user name:	WinNT
#	Creation time:	15. 06. 2019 19:21

#	Modifying user name:	WinNT
#	Modification time:	15. 06. 2019 19:21

#	Program:	/corina/corina34_cracker 3.40 0067  02.08.2006

@<TRIPOS>MOLECULE
ASD01478018
  80   83    0    0    0
SMALL
NO_CHARGES


@<TRIPOS>ATOM
   1 C1            -0.5116     1.5362    -1.8902 C.3     
   2 C2             1.6183     2.2831    -2.6657 C.2     
   3 O3             0.7702     2.1653    -1.6267 O.3     
   4 N4             2.8247     2.8576    -2.4891 N.am    
   5 O5             1.2961     1.8716    -3.7627 O.2     
   6 C6             3.4197     4.2581    -4.4037 C.3     
   7 C7             3.7475     2.9858    -3.6196 C.3     
   8 C8             5.1841     3.0635    -3.0990 C.3     
   9 C9             6.1552     3.0718    -4.2813 C.3     
  10 N10            7.5317     3.0140    -3.7830 N.am    
  11 S11            8.5535     4.2950    -4.0225 S.o2    
  12 C12            8.3750     5.3704    -2.6382 C.ar    
  13 C13            9.1782     5.2019    -1.5254 C.ar    
  14 C14            9.0403     6.0437    -0.4387 C.ar    
  15 C15            8.0949     7.0588    -0.4647 C.ar    
  16 C16            7.2903     7.2257    -1.5824 C.ar    
  17 C17            7.4360     6.3848    -2.6688 C.ar    
  18 O18            9.8735     3.7730    -3.9576 O.2     
  19 O19            8.0522     5.0032    -5.1479 O.2     
  20 C20            8.0042     1.8230    -3.0729 C.3     
  21 C21            8.0619     0.6406    -4.0422 C.3     
  22 C22            9.0822     0.9338    -5.1441 C.3     
  23 C23            8.4789    -0.6209    -3.2836 C.3     
  24 O24            5.3507     4.2611    -2.3374 O.3     
  25 C25           -0.4065     0.0165    -1.6678 C.3     
  26 O26           -0.1505    -0.2972    -0.3025 O.3     
  27 C27           -1.0660     0.2394     0.6671 C.3     
  28 C28           -1.0324     1.7514     0.5153 C.3     
  29 C29           -1.5500     2.0546    -0.9200 C.3     
  30 C30           -2.0888     2.5207     1.3253 C.3     
  31 C31           -2.2907     3.7779     0.4333 C.3     
  32 O32           -1.8508     3.4340    -0.9010 O.3     
  33 C33            2.0503     4.1299    -5.0195 C.ar    
  34 C34            0.9354     4.5512    -4.3193 C.ar    
  35 C35           -0.3208     4.4336    -4.8841 C.ar    
  36 C36           -0.4621     3.8949    -6.1494 C.ar    
  37 C37            0.6529     3.4744    -6.8499 C.ar    
  38 C38            1.9095     3.5961    -6.2869 C.ar    
  39 O39            7.9570     7.8879     0.6032 O.3     
  40 C40            6.9635     8.9105     0.5065 C.3     
  41 H41           -0.8227     1.7414    -2.9145 H       
  42 H42            3.0819     3.1861    -1.6134 H       
  43 H43            3.4363     5.1146    -3.7298 H       
  44 H44            4.1601     4.4007    -5.1909 H       
  45 H45            3.6442     2.1196    -4.2731 H       
  46 H46            5.3887     2.1994    -2.4669 H       
  47 H47            5.9621     2.2072    -4.9162 H       
  48 H48            6.0161     3.9854    -4.8593 H       
  49 H49            9.9137     4.4114    -1.5055 H       
  50 H50            9.6676     5.9115     0.4304 H       
  51 H51            6.5536     8.0152    -1.6051 H       
  52 H52            6.8099     6.5143    -3.5391 H       
  53 H53            8.9993     2.0112    -2.6698 H       
  54 H54            7.3197     1.5909    -2.2571 H       
  55 H55            7.0791     0.4882    -4.4883 H       
  56 H56           10.0650     1.0862    -4.6980 H       
  57 H57            9.1233     0.0915    -5.8346 H       
  58 H58            8.7851     1.8325    -5.6845 H       
  59 H59            7.7521    -0.8298    -2.4986 H       
  60 H60            8.5200    -1.4633    -3.9742 H       
  61 H61            9.4617    -0.4685    -2.8376 H       
  62 H62            5.1842     5.0717    -2.8376 H       
  63 H63           -1.3420    -0.4532    -1.9715 H       
  64 H64            0.4036    -0.3777    -2.2814 H       
  65 H65           -2.0725    -0.1319     0.4743 H       
  66 H66           -0.7506    -0.0410     1.6720 H       
  67 H67           -0.0276     2.1434     0.6725 H       
  68 H68           -2.4786     1.5054    -1.0754 H       
  69 H69           -3.0120     1.9476     1.4106 H       
  70 H70           -1.7066     2.7945     2.3087 H       
  71 H71           -3.3448     4.0548     0.4161 H       
  72 H72           -1.6945     4.6052     0.8184 H       
  73 H73            1.0457     4.9720    -3.3308 H       
  74 H74           -1.1920     4.7621    -4.3368 H       
  75 H75           -1.4436     3.8023    -6.5904 H       
  76 H76            0.5426     3.0533    -7.8383 H       
  77 H77            2.7810     3.2709    -6.8357 H       
  78 H78            7.1904     9.5586    -0.3400 H       
  79 H79            5.9846     8.4535     0.3622 H       
  80 H80            6.9579     9.4995     1.4237 H       
@<TRIPOS>BOND
   1    1   25 1
   2    1    3 1
   3    1   29 1
   4    1   41 1
   5    2    3 1
   6    2    4 am
   7    2    5 2
   8    4    7 1
   9    4   42 1
  10    6    7 1
  11    6   33 1
  12    6   43 1
  13    6   44 1
  14    7    8 1
  15    7   45 1
  16    8    9 1
  17    8   24 1
  18    8   46 1
  19    9   10 1
  20    9   47 1
  21    9   48 1
  22   10   11 am
  23   10   20 1
  24   11   12 1
  25   11   18 2
  26   11   19 2
  27   12   13 ar
  28   12   17 ar
  29   13   14 ar
  30   13   49 1
  31   14   15 ar
  32   14   50 1
  33   15   16 ar
  34   15   39 1
  35   16   17 ar
  36   16   51 1
  37   17   52 1
  38   20   21 1
  39   20   53 1
  40   20   54 1
  41   21   22 1
  42   21   23 1
  43   21   55 1
  44   22   56 1
  45   22   57 1
  46   22   58 1
  47   23   59 1
  48   23   60 1
  49   23   61 1
  50   24   62 1
  51   25   26 1
  52   25   63 1
  53   25   64 1
  54   26   27 1
  55   27   28 1
  56   27   65 1
  57   27   66 1
  58   28   29 1
  59   28   30 1
  60   28   67 1
  61   29   32 1
  62   29   68 1
  63   30   31 1
  64   30   69 1
  65   30   70 1
  66   31   32 1
  67   31   71 1
  68   31   72 1
  69   33   34 ar
  70   33   38 ar
  71   34   35 ar
  72   34   73 1
  73   35   36 ar
  74   35   74 1
  75   36   37 ar
  76   36   75 1
  77   37   38 ar
  78   37   76 1
  79   38   77 1
  80   39   40 1
  81   40   78 1
  82   40   79 1
  83   40   80 1

#	End of record

