#	Name: ASD07300224
#	Creating user name:	WinNT
#	Creation time:	15. 06. 2019 21:09

#	Modifying user name:	WinNT
#	Modification time:	15. 06. 2019 21:09

#	Program:	/corina/corina34_cracker 3.40 0067  02.08.2006

@<TRIPOS>MOLECULE
ASD07300224
  45   49    0    0    0
SMALL
NO_CHARGES


@<TRIPOS>ATOM
   1 C1            -0.4142     1.2421    -0.7437 C.ar    
   2 C2            -0.4867    -0.1242    -1.0319 C.ar    
   3 C3             0.6756    -0.8807    -1.0368 C.ar    
   4 C4             1.8746    -0.2431    -0.7524 C.ar    
   5 C5             1.8726     1.1112    -0.4762 C.ar    
   6 N6             0.7522     1.8071    -0.4787 N.ar    
   7 C7            -2.5393     0.7137    -1.1151 C.2     
   8 N8            -1.7142     1.7309    -0.8049 N.am    
   9 N9            -1.8268    -0.4193    -1.2641 N.am    
  10 O10           -3.7456     0.8051    -1.2460 O.2     
  11 C11           -2.1010     3.0608    -0.5811 C.ar    
  12 C12           -3.4391     3.4193    -0.6737 C.ar    
  13 C13           -3.8201     4.7277    -0.4531 C.ar    
  14 C14           -2.8647     5.6855    -0.1384 C.ar    
  15 C15           -1.5261     5.3265    -0.0458 C.ar    
  16 C16           -1.1464     4.0169    -0.2614 C.ar    
  17 N17           -3.2506     7.0124     0.0849 N.pl3   
  18 O18           -5.0109     8.5223     0.7582 O.3     
  19 C19           -4.4953     7.2892     0.6075 C.2     
  20 N20           -5.3481     6.3910     1.0287 N.2     
  21 C21           -6.4669     7.0266     1.4751 C.ar    
  22 C22           -6.2451     8.4009     1.2988 C.ar    
  23 C23           -7.6721     6.5849     2.0215 C.ar    
  24 C24           -8.6355     7.5011     2.3839 C.ar    
  25 C25           -8.4131     8.8598     2.2082 C.ar    
  26 C26           -7.2226     9.3099     1.6685 C.ar    
  27 F27           -9.3656     9.7479     2.5675 F       
  28 C28           -2.3699    -1.7371    -1.6028 C.3     
  29 C29           -2.7389    -2.4821    -0.3185 C.3     
  30 H30            0.6482    -1.9379    -1.2557 H       
  31 H31            2.8002    -0.7996    -0.7465 H       
  32 H32            2.8053     1.6086    -0.2546 H       
  33 H33           -4.1820     2.6747    -0.9187 H       
  34 H34           -4.8610     5.0067    -0.5255 H       
  35 H35           -0.7830     6.0711     0.1985 H       
  36 H36           -0.1061     3.7368    -0.1850 H       
  37 H37           -2.6420     7.7369    -0.1281 H       
  38 H38           -7.8495     5.5285     2.1596 H       
  39 H39           -9.5690     7.1600     2.8066 H       
  40 H40           -7.0553    10.3685     1.5346 H       
  41 H41           -3.2595    -1.6156    -2.2208 H       
  42 H42           -1.6214    -2.3083    -2.1520 H       
  43 H43           -1.8492    -2.6037     0.2995 H       
  44 H44           -3.4874    -1.9109     0.2307 H       
  45 H45           -3.1429    -3.4626    -0.5705 H       
@<TRIPOS>BOND
   1    1    2 ar
   2    1    6 ar
   3    1    8 1
   4    2    3 ar
   5    2    9 1
   6    3    4 ar
   7    3   30 1
   8    4    5 ar
   9    4   31 1
  10    5    6 ar
  11    5   32 1
  12    7    8 am
  13    7    9 am
  14    7   10 2
  15    8   11 1
  16    9   28 1
  17   11   12 ar
  18   11   16 ar
  19   12   13 ar
  20   12   33 1
  21   13   14 ar
  22   13   34 1
  23   14   15 ar
  24   14   17 1
  25   15   16 ar
  26   15   35 1
  27   16   36 1
  28   17   19 1
  29   17   37 1
  30   18   19 1
  31   18   22 1
  32   19   20 2
  33   20   21 1
  34   21   22 ar
  35   21   23 ar
  36   22   26 ar
  37   23   24 ar
  38   23   38 1
  39   24   25 ar
  40   24   39 1
  41   25   26 ar
  42   25   27 1
  43   26   40 1
  44   28   29 1
  45   28   41 1
  46   28   42 1
  47   29   43 1
  48   29   44 1
  49   29   45 1

#	End of record

