#	Name: ASD01410302
#	Creating user name:	WinNT
#	Creation time:	15. 06. 2019 19:17

#	Modifying user name:	WinNT
#	Modification time:	15. 06. 2019 19:17

#	Program:	/corina/corina34_cracker 3.40 0067  02.08.2006

@<TRIPOS>MOLECULE
ASD01410302
  58   62    0    0    0
SMALL
NO_CHARGES


@<TRIPOS>ATOM
   1 O1             0.1471     1.6423    -0.2441 O.3     
   2 C2             0.0793     0.3041    -0.2112 C.2     
   3 C3             1.3445    -0.1882    -0.1143 C.2     
   4 C4             2.2269     0.9855    -0.0891 C.2     
   5 C5             1.4212     2.0567    -0.1720 C.2     
   6 N6             2.6642    -2.2147    -0.8730 N.pl3   
   7 C7             1.7469    -1.6093    -0.0481 C.2     
   8 C8             1.2684    -2.5205     0.8378 C.2     
   9 C9             1.9021    -3.7576     0.5721 C.ar    
  10 C10            2.7789    -3.5426    -0.5111 C.ar    
  11 C11            1.8071    -5.0304     1.1541 C.ar    
  12 C12            2.5604    -6.0568     0.6739 C.ar    
  13 C13            3.4357    -5.8522    -0.4037 C.ar    
  14 C14            3.5420    -4.5927    -0.9937 C.ar    
  15 C15           -0.9730    -3.1585     1.6852 C.3     
  16 C16           -2.0124    -2.8946     2.7765 C.3     
  17 C17           -1.4025    -3.1995     4.1461 C.3     
  18 C18           -0.1849    -2.3014     4.3736 C.3     
  19 C19            0.8545    -2.5654     3.2823 C.3     
  20 C20            0.2446    -2.2605     1.9126 C.3     
  21 C21            2.6567    -1.7677    -3.2582 C.ar    
  22 C22            1.6302    -0.9094    -3.6107 C.ar    
  23 C23            0.9536    -1.0897    -4.7992 C.ar    
  24 C24            1.3067    -2.1413    -5.6473 C.ar    
  25 C25            2.3435    -3.0036    -5.2853 C.ar    
  26 C26            3.0117    -2.8118    -4.0939 C.ar    
  27 C27            3.3954    -1.5608    -1.9611 C.3     
  28 C28            4.2461    -6.9721    -0.9136 C.2     
  29 O29            5.0049    -6.7976    -1.8467 O.2     
  30 O30            4.1458    -8.1901    -0.3452 O.3     
  31 C31            0.5863    -2.3408    -6.9214 C.2     
  32 O32           -0.3155    -1.5892    -7.2334 O.2     
  33 O33            0.9295    -3.3563    -7.7373 O.3     
  34 H34           -0.8257    -0.2837    -0.2538 H       
  35 H35            3.3046     0.9868    -0.0184 H       
  36 H36            1.7467     3.0865    -0.1800 H       
  37 H37            1.1359    -5.1956     1.9839 H       
  38 H38            2.4844    -7.0350     1.1252 H       
  39 H39            4.2160    -4.4373    -1.8231 H       
  40 H40           -0.6655    -4.2036     1.7214 H       
  41 H41           -1.4075    -2.9413     0.7094 H       
  42 H42           -2.3199    -1.8495     2.7402 H       
  43 H43           -2.8799    -3.5344     2.6144 H       
  44 H44           -2.1430    -3.0115     4.9236 H       
  45 H45           -1.0950    -4.2446     4.1824 H       
  46 H46           -0.4924    -1.2563     4.3373 H       
  47 H47            0.2496    -2.5187     5.3494 H       
  48 H48            1.7220    -1.9256     3.4443 H       
  49 H49            1.1620    -3.6105     3.3186 H       
  50 H50           -0.0629    -1.2154     1.8764 H       
  51 H51            1.3579    -0.0967    -2.9536 H       
  52 H52            0.1524    -0.4193    -5.0730 H       
  53 H53            2.6214    -3.8192    -5.9365 H       
  54 H54            3.8139    -3.4781    -3.8127 H       
  55 H55            3.4755    -0.4934    -1.7549 H       
  56 H56            4.3935    -1.9918    -2.0386 H       
  57 H57            4.6973    -8.8934    -0.7142 H       
  58 H58            0.4294    -3.4466    -8.5601 H       
@<TRIPOS>BOND
   1    1    2 1
   2    1    5 1
   3    2    3 2
   4    2   34 1
   5    3    4 1
   6    3    7 1
   7    4    5 2
   8    4   35 1
   9    5   36 1
  10    6    7 1
  11    6   10 1
  12    6   27 1
  13    7    8 2
  14    8    9 1
  15    8   20 1
  16    9   10 ar
  17    9   11 ar
  18   10   14 ar
  19   11   12 ar
  20   11   37 1
  21   12   13 ar
  22   12   38 1
  23   13   14 ar
  24   13   28 1
  25   14   39 1
  26   15   16 1
  27   15   20 1
  28   15   40 1
  29   15   41 1
  30   16   17 1
  31   16   42 1
  32   16   43 1
  33   17   18 1
  34   17   44 1
  35   17   45 1
  36   18   19 1
  37   18   46 1
  38   18   47 1
  39   19   20 1
  40   19   48 1
  41   19   49 1
  42   20   50 1
  43   21   22 ar
  44   21   26 ar
  45   21   27 1
  46   22   23 ar
  47   22   51 1
  48   23   24 ar
  49   23   52 1
  50   24   25 ar
  51   24   31 1
  52   25   26 ar
  53   25   53 1
  54   26   54 1
  55   27   55 1
  56   27   56 1
  57   28   29 2
  58   28   30 1
  59   30   57 1
  60   31   32 2
  61   31   33 1
  62   33   58 1

#	End of record

