#	Name: ASD01914994
#	Creating user name:	WinNT
#	Creation time:	15. 06. 2019 20:04

#	Modifying user name:	WinNT
#	Modification time:	15. 06. 2019 20:04

#	Program:	/corina/corina34_cracker 3.40 0067  02.08.2006

@<TRIPOS>MOLECULE
ASD01914994
  44   47    0    0    0
SMALL
NO_CHARGES


@<TRIPOS>ATOM
   1 C1            -0.2252     1.4559    -1.1227 C.ar    
   2 C2            -0.2364     0.0833    -1.2781 C.ar    
   3 C3             0.9378    -0.6378    -1.1518 C.ar    
   4 C4             2.1251     0.0142    -0.8692 C.ar    
   5 C5             2.1402     1.3866    -0.7127 C.ar    
   6 C6             0.9642     2.1114    -0.8399 C.ar    
   7 O7             0.9773     3.4619    -0.6871 O.3     
   8 C8             2.2376     4.0698    -0.3970 C.3     
   9 C9             2.0575     5.5600    -0.2628 C.2     
  10 C10            0.8500     6.2593    -0.3922 C.2     
  11 N11            3.0031     6.4312     0.0016 N.2     
  12 C12            1.1766     7.5705    -0.1932 C.2     
  13 C13            0.3591     8.7932    -0.1945 C.2     
  14 N14            2.5302     7.6144     0.0589 N.pl3   
  15 C15            3.2069     8.8832     0.3537 C.3     
  16 C16            2.4819    10.0199    -0.3653 C.3     
  17 N17            1.0342     9.9680    -0.1750 N.am    
  18 O18           -0.8565     8.7521    -0.2125 O.2     
  19 C19            0.3296    11.1583     0.0375 C.ar    
  20 C20           -0.9555    12.5817     1.4774 C.ar    
  21 C21           -0.2610    11.4062     1.2697 C.ar    
  22 C22            0.2248    12.0958    -0.9817 C.ar    
  23 C23           -0.4706    13.2700    -0.7697 C.ar    
  24 C24           -1.0629    13.5131     0.4582 C.ar    
  25 F25           -1.7427    14.6623     0.6635 F       
  26 C26            3.1838     9.1360     1.8625 C.3     
  27 Cl27           0.9212    -2.3626    -1.3474 Cl      
  28 H28           -1.1411     2.0189    -1.2258 H       
  29 H29           -1.1623    -0.4274    -1.4980 H       
  30 H30            3.0405    -0.5504    -0.7706 H       
  31 H31            3.0670     1.8950    -0.4914 H       
  32 H32            2.6297     3.6657     0.5363 H       
  33 H33            2.9371     3.8598    -1.2062 H       
  34 H34           -0.1270     5.8501    -0.6034 H       
  35 H35            4.2395     8.8338     0.0081 H       
  36 H36            2.8532    10.9713     0.0154 H       
  37 H37            2.7013     9.9593    -1.4313 H       
  38 H38           -1.4153    12.7748     2.4354 H       
  39 H39           -0.1775    10.6802     2.0648 H       
  40 H40            0.6872    11.9069    -1.9393 H       
  41 H41           -0.5523    13.9993    -1.5620 H       
  42 H42            3.6977     8.3229     2.3751 H       
  43 H43            3.6864    10.0783     2.0807 H       
  44 H44            2.1508     9.1871     2.2065 H       
@<TRIPOS>BOND
   1    1    2 ar
   2    1    6 ar
   3    1   28 1
   4    2    3 ar
   5    2   29 1
   6    3    4 ar
   7    3   27 1
   8    4    5 ar
   9    4   30 1
  10    5    6 ar
  11    5   31 1
  12    6    7 1
  13    7    8 1
  14    8    9 1
  15    8   32 1
  16    8   33 1
  17    9   11 2
  18    9   10 1
  19   10   12 2
  20   10   34 1
  21   11   14 1
  22   12   14 1
  23   12   13 1
  24   13   17 am
  25   13   18 2
  26   14   15 1
  27   15   16 1
  28   15   26 1
  29   15   35 1
  30   16   17 1
  31   16   36 1
  32   16   37 1
  33   17   19 1
  34   19   22 ar
  35   19   21 ar
  36   20   21 ar
  37   20   24 ar
  38   20   38 1
  39   21   39 1
  40   22   23 ar
  41   22   40 1
  42   23   24 ar
  43   23   41 1
  44   24   25 1
  45   26   42 1
  46   26   43 1
  47   26   44 1

#	End of record

