#	Name: ASD01140101
#	Creating user name:	WinNT
#	Creation time:	15. 06. 2019 18:59

#	Modifying user name:	WinNT
#	Modification time:	15. 06. 2019 18:59

#	Program:	/corina/corina34_cracker 3.40 0067  02.08.2006

@<TRIPOS>MOLECULE
ASD01140101
  31   32    0    0    0
SMALL
NO_CHARGES


@<TRIPOS>ATOM
   1 C1             0.3676     1.6249     0.0808 C.3     
   2 C2             0.1041     0.1039     0.0825 C.3     
   3 C3             1.3897    -0.4735    -0.5500 C.3     
   4 C4             2.2437     0.7399    -0.8562 C.2     
   5 O5             1.8105     1.7598    -0.0928 O.3     
   6 O6             3.1554     0.7840    -1.6478 O.2     
   7 C7             2.0946    -1.3793     0.4264 C.2     
   8 N8            -0.0668    -0.3905     1.4510 N.pl3   
   9 C9            -1.3315    -0.3816     2.0439 C.ar    
  10 C10           -1.4953    -0.8500     3.3413 C.ar    
  11 C11           -2.7470    -0.8394     3.9247 C.ar    
  12 C12           -3.8366    -0.3633     3.2187 C.ar    
  13 C13           -3.6770     0.1037     1.9269 C.ar    
  14 C14           -2.4272     0.1009     1.3394 C.ar    
  15 C15            1.5662    -2.7671     0.6834 C.3     
  16 C16            3.1668    -0.9605     1.0519 C.2     
  17 H17           -0.1592     2.0994    -0.7471 H       
  18 H18            0.0577     2.0639     1.0291 H       
  19 H19           -0.7669    -0.1370    -0.5269 H       
  20 H20            1.1528    -1.0127    -1.4672 H       
  21 H21            0.6983    -0.7239     1.9453 H       
  22 H22           -0.6448    -1.2224     3.8931 H       
  23 H23           -2.8752    -1.2038     4.9333 H       
  24 H24           -4.8145    -0.3564     3.6771 H       
  25 H25           -4.5301     0.4749     1.3783 H       
  26 H26           -2.3032     0.4661     0.3306 H       
  27 H27            1.9678    -3.4527    -0.0626 H       
  28 H28            1.8706    -3.0933     1.6779 H       
  29 H29            0.4780    -2.7588     0.6209 H       
  30 H30            3.6720    -1.6097     1.7516 H       
  31 H31            3.5455     0.0341     0.8677 H       
@<TRIPOS>BOND
   1    1    2 1
   2    1    5 1
   3    1   17 1
   4    1   18 1
   5    2    3 1
   6    2    8 1
   7    2   19 1
   8    3    4 1
   9    3    7 1
  10    3   20 1
  11    4    5 1
  12    4    6 2
  13    7   15 1
  14    7   16 2
  15    8    9 1
  16    8   21 1
  17    9   10 ar
  18    9   14 ar
  19   10   11 ar
  20   10   22 1
  21   11   12 ar
  22   11   23 1
  23   12   13 ar
  24   12   24 1
  25   13   14 ar
  26   13   25 1
  27   14   26 1
  28   15   27 1
  29   15   28 1
  30   15   29 1
  31   16   30 1
  32   16   31 1

#	End of record

