#	Name: ASD04220040
#	Creating user name:	WinNT
#	Creation time:	15. 06. 2019 20:48

#	Modifying user name:	WinNT
#	Modification time:	15. 06. 2019 20:48

#	Program:	/corina/corina34_cracker 3.40 0067  02.08.2006

@<TRIPOS>MOLECULE
ASD04220040
 205  211    0    0    0
SMALL
NO_CHARGES


@<TRIPOS>ATOM
   1 S1            -0.5591     3.2778     0.2774 S.o2    
   2 S2             3.5544     3.2054     0.7600 S.o2    
   3 S3             0.3552    -3.0629     4.9074 S.o2    
   4 S4            -7.2726    -1.7505    -4.9255 S.o2    
   5 S5             0.5276     7.7500    12.4452 S.o2    
   6 S6             3.5586    11.2043     4.9736 S.o2    
   7 O7            -1.4973     0.6126     2.9728 O.3     
   8 O8            -4.3211    -3.4751     0.5261 O.3     
   9 O9            -1.8621    -0.8393     1.1826 O.3     
  10 O10            1.9292     0.8356     4.2512 O.3     
  11 O11            1.8608     3.1669     4.3315 O.3     
  12 O12           -5.9251    -2.7984    -1.0281 O.3     
  13 O13           -4.8796    -5.3321    -3.4597 O.3     
  14 O14            1.2668     5.4494     5.9277 O.3     
  15 O15           -5.5134    -2.0636     2.7096 O.3     
  16 O16           -0.1339     1.9239     0.8274 O.3     
  17 O17           -6.6302    -6.4560    -4.5172 O.3     
  18 O18           -3.6967    -0.5763     4.3433 O.3     
  19 O19            3.0431     6.4721     7.0435 O.3     
  20 O20            2.2637     3.3005     1.5610 O.3     
  21 O21           -5.8920    -6.9312    -1.3151 O.3     
  22 O22           -5.9099    -5.6675     1.2508 O.3     
  23 O23            4.4214     4.3517     6.6718 O.3     
  24 O24           -7.3568    -7.2851    -8.0115 O.3     
  25 O25            2.8251     5.4047     3.5444 O.3     
  26 O26           -3.6661    -4.8963    -6.0026 O.3     
  27 O27           -4.5844    -6.5894    -8.1172 O.3     
  28 O28            2.3011     9.6351     8.7375 O.3     
  29 O29            0.5869    -1.7097     4.2505 O.3     
  30 O30           -2.6661    -1.0645    -1.4676 O.3     
  31 O31           -0.6737    -2.2047    -1.0481 O.3     
  32 O32           -6.8642    -2.6016    -3.7317 O.3     
  33 O33           -6.9795    -9.5571    -8.3880 O.3     
  34 O34            1.6895     5.5924     9.4047 O.3     
  35 O35            0.4560     2.1654     7.3317 O.3     
  36 O36           -0.7167     4.1815     7.4061 O.3     
  37 O37            1.7525     7.4199    11.6041 O.3     
  38 O38           -7.5679    -6.8359   -10.7701 O.3     
  39 O39           -9.8480    -8.5116   -11.1883 O.3     
  40 O40            3.5800    10.5598     6.3522 O.3     
  41 O41            0.7109     4.0602    -0.0251 O.3     
  42 O42            3.2282     2.4751    -0.5349 O.3     
  43 O43           -1.1822     3.0248    -0.9743 O.2     
  44 O44           -1.2056     3.9590     1.3439 O.2     
  45 O45            3.8991     4.5347     0.3951 O.2     
  46 O46            4.4206     2.3517     1.4949 O.2     
  47 O47           -1.1324    -3.3664     4.8016 O.3     
  48 O48           -6.7373    -2.4381    -6.1733 O.3     
  49 O49            1.0191    -4.0219     4.0957 O.2     
  50 O50            0.6322    -2.8902     6.2904 O.2     
  51 O51           -8.6896    -1.8231    -5.0040 O.2     
  52 O52           -6.5625    -0.5254    -4.8066 O.2     
  53 O53           -0.5738     6.7826    12.0360 O.3     
  54 O54            0.8647     7.4296    13.7879 O.2     
  55 O55            0.0982     9.0422    12.0388 O.2     
  56 O56            2.1618    11.7711     4.7629 O.3     
  57 O57            4.4382    12.3184     5.0378 O.2     
  58 O58            3.7090    10.1484     4.0346 O.2     
  59 C59           -3.8479    -2.1985     0.9601 C.3     
  60 C60           -0.0718     0.6851     2.9045 C.3     
  61 C61           -4.1063    -2.0402     2.4616 C.3     
  62 C62            0.3411     1.9668     2.1745 C.3     
  63 C63           -3.5256    -0.7024     2.9302 C.3     
  64 C64           -2.0339    -0.6551     2.5892 C.3     
  65 C65            1.8693     2.0724     2.1758 C.3     
  66 C66           -2.3437    -2.0934     0.6952 C.3     
  67 C67           -5.6434    -4.7767    -2.3872 C.3     
  68 C68            0.5079     0.7047     4.3213 C.3     
  69 C69            2.3740     2.0384     3.6208 C.3     
  70 C70           -5.4138    -5.5994    -1.1157 C.3     
  71 C71            2.4794     3.3846     5.6011 C.3     
  72 C72           -5.7120    -3.4990     0.1991 C.3     
  73 C73           -6.1752    -4.9499     0.0439 C.3     
  74 C74           -5.2008    -3.3325    -2.1382 C.3     
  75 C75            3.7688     4.1895     5.4109 C.3     
  76 C76            1.5264     4.1690     6.5068 C.3     
  77 C77            3.4188     5.5647     4.8343 C.3     
  78 C78            2.4295     6.2649     5.7696 C.3     
  79 C79           -5.6082    -5.4708    -4.6812 C.3     
  80 C80           -4.6553    -5.9068    -5.7973 C.3     
  81 C81           -5.4536    -6.1115    -7.0885 C.3     
  82 C82           -6.5602    -7.1397    -6.8341 C.3     
  83 C83           -2.0825    -2.1905    -0.8092 C.3     
  84 C84           -7.4394    -6.6560    -5.6780 C.3     
  85 C85            0.1503    -0.5994     5.0370 C.3     
  86 C86            2.3279     7.3707     7.8938 C.3     
  87 C87           -5.4826    -2.4904    -3.3841 C.3     
  88 C88            0.2123     3.3992     6.6531 C.3     
  89 C89            2.3637     6.8504     9.3340 C.3     
  90 C90            2.9825     8.7537     7.8427 C.3     
  91 C91           -6.8508    -8.2456    -8.9407 C.3     
  92 C92            1.6618     7.8599    10.2476 C.3     
  93 C93           -7.6476    -8.1627   -10.2454 C.3     
  94 C94           -8.5111    -7.7060    -5.3781 C.3     
  95 C95           -9.1115    -8.5148    -9.9637 C.3     
  96 C96            2.3421     9.2239    10.1055 C.3     
  97 C97           -9.1773    -9.9077    -9.3298 C.3     
  98 C98           -5.8694    -2.5908     3.9892 C.3     
  99 C99           -8.3215    -9.9232    -8.0606 C.3     
 100 C100           2.8971     9.3063     6.4185 C.3     
 101 C101          -3.8429     0.7722     4.7930 C.3     
 102 C102          -5.1847    -7.9211    -0.5656 C.3     
 103 C103          -6.9840    -5.6374     2.1929 C.3     
 104 C104           5.8443     4.4488     6.5816 C.3     
 105 C105           3.0665     6.4960     2.6540 C.3     
 106 C106          -2.4929    -5.0605    -5.2033 C.3     
 107 C107          -3.9737    -5.5538    -8.8896 C.3     
 108 C108          -8.3337   -11.3277    -7.4540 C.3     
 109 C109           2.1943     4.7184    10.4163 C.3     
 110 C110          -6.4671    -6.6268   -11.6570 C.3     
 111 C111         -11.2234    -8.1540   -11.0384 C.3     
 112 H112          -3.6229    -0.9914    -1.3483 H       
 113 H113          -0.2233    -2.9857    -0.6985 H       
 114 H114           1.0790     1.5825     6.8764 H       
 115 H115          -0.9933     4.9962     6.9648 H       
 116 H116           0.5523     4.9444    -0.3830 H       
 117 H117           3.9869     2.3599    -1.1233 H       
 118 H118          -1.3900    -4.2125     5.1925 H       
 119 H119          -6.9434    -1.9749    -6.9968 H       
 120 H120          -1.4046     6.9072    12.5149 H       
 121 H121           2.0391    12.2072     3.9086 H       
 122 H122          -4.3704    -1.4120     0.4157 H       
 123 H123           0.3115    -0.1810     2.3651 H       
 124 H124          -3.6272    -2.8565     3.0021 H       
 125 H125          -0.0858     2.8305     2.6843 H       
 126 H126          -4.0415     0.1150     2.4264 H       
 127 H127          -1.5130    -1.4480     3.1260 H       
 128 H128           2.2927     1.2350     1.6213 H       
 129 H129          -1.8268    -2.9051     1.2072 H       
 130 H130          -6.7020    -4.7947    -2.6465 H       
 131 H131           0.0920     1.5480     4.8726 H       
 132 H132           3.4636     2.0701     3.6260 H       
 133 H133          -4.3487    -5.6251    -0.8854 H       
 134 H134           2.7137     2.4249     6.0615 H       
 135 H135          -6.2809    -3.0188     0.9953 H       
 136 H136          -7.2446    -4.9704    -0.1656 H       
 137 H137          -4.1332    -3.3122    -1.9193 H       
 138 H138           4.4299     3.6619     4.7234 H       
 139 H139           1.9826     4.2996     7.4881 H       
 140 H140           4.3250     6.1641     4.7463 H       
 141 H141           2.1439     7.2263     5.3428 H       
 142 H142          -6.0629    -4.5156    -4.9438 H       
 143 H143          -4.1689    -6.8411    -5.5167 H       
 144 H144          -5.8975    -5.1649    -7.3968 H       
 145 H145          -6.1131    -8.0997    -6.5760 H       
 146 H146          -2.5259    -3.1079    -1.1964 H       
 147 H147          -7.9180    -5.7164    -5.9538 H       
 148 H148          -0.9296    -0.6539     5.1747 H       
 149 H149           0.6424    -0.6270     6.0092 H       
 150 H150           1.2933     7.4438     7.5585 H       
 151 H151          -4.8698    -2.8489    -4.2112 H       
 152 H152          -5.2423    -1.4471    -3.1794 H       
 153 H153          -0.2012     3.1952     5.6655 H       
 154 H154           3.3991     6.7275     9.6517 H       
 155 H155           4.0283     8.6720     8.1390 H       
 156 H156          -5.8000    -8.0377    -9.1425 H       
 157 H157           0.6134     7.9431     9.9609 H       
 158 H158          -7.2355    -8.8660   -10.9691 H       
 159 H159          -9.0655    -7.4148    -4.4859 H       
 160 H160          -9.1953    -7.7785    -6.2235 H       
 161 H161          -8.0360    -8.6727    -5.2112 H       
 162 H162          -9.5379    -7.7810    -9.2798 H       
 163 H163           3.3795     9.1484    10.4314 H       
 164 H164           1.8200     9.9564    10.7211 H       
 165 H165         -10.2106   -10.1436    -9.0753 H       
 166 H166          -8.7969   -10.6470   -10.0347 H       
 167 H167          -5.5111    -3.6169     4.0718 H       
 168 H168          -5.4150    -1.9832     4.7717 H       
 169 H169          -6.9536    -2.5745     4.1000 H       
 170 H170          -8.7267    -9.2125    -7.3403 H       
 171 H171           1.8513     9.4474     6.1456 H       
 172 H172           3.3612     8.6027     5.7273 H       
 173 H173          -4.7182     1.2194     4.3219 H       
 174 H174          -3.9680     0.7825     5.8758 H       
 175 H175          -2.9542     1.3432     4.5244 H       
 176 H176          -5.2737    -7.7034     0.4987 H       
 177 H177          -5.6078    -8.9042    -0.7721 H       
 178 H178          -4.1330    -7.9108    -0.8519 H       
 179 H179          -7.8733    -6.0802     1.7443 H       
 180 H180          -6.7044    -6.2044     3.0809 H       
 181 H181          -7.1936    -4.6049     2.4721 H       
 182 H182           6.2642     4.5701     7.5801 H       
 183 H183           6.2423     3.5412     6.1279 H       
 184 H184           6.1116     5.3091     5.9680 H       
 185 H185           2.5832     6.2980     1.6972 H       
 186 H186           2.6608     7.4120     3.0834 H       
 187 H187           4.1398     6.6103     2.5020 H       
 188 H188          -1.7915    -4.2541    -5.4176 H       
 189 H189          -2.7655    -5.0341    -4.1483 H       
 190 H190          -2.0269    -6.0184    -5.4344 H       
 191 H191          -3.3297    -5.9982    -9.6485 H       
 192 H192          -4.7470    -4.9572    -9.3734 H       
 193 H193          -3.3784    -4.9160    -8.2361 H       
 194 H194          -7.6559   -11.3611    -6.6010 H       
 195 H195          -9.3437   -11.5728    -7.1254 H       
 196 H196          -8.0102   -12.0500    -8.2036 H       
 197 H197           1.6304     3.7857    10.4053 H       
 198 H198           3.2465     4.5091    10.2236 H       
 199 H199           2.0912     5.1938    11.3917 H       
 200 H200          -5.5334    -6.8205   -11.1291 H       
 201 H201          -6.5514    -7.3042   -12.5067 H       
 202 H202          -6.4770    -5.5961   -12.0116 H       
 203 H203         -11.7125    -8.1751   -12.0122 H       
 204 H204         -11.7125    -8.8634   -10.3707 H       
 205 H205         -11.2943    -7.1510   -10.6178 H       
@<TRIPOS>BOND
   1    1   16 1
   2    1   41 1
   3    1   43 2
   4    1   44 2
   5    2   20 1
   6    2   42 1
   7    2   45 2
   8    2   46 2
   9    3   29 1
  10    3   47 1
  11    3   49 2
  12    3   50 2
  13    4   32 1
  14    4   48 1
  15    4   51 2
  16    4   52 2
  17    5   37 1
  18    5   53 1
  19    5   54 2
  20    5   55 2
  21    6   40 1
  22    6   56 1
  23    6   57 2
  24    6   58 2
  25    7   60 1
  26    7   64 1
  27    8   59 1
  28    8   72 1
  29    9   64 1
  30    9   66 1
  31   10   68 1
  32   10   69 1
  33   11   69 1
  34   11   71 1
  35   12   72 1
  36   12   74 1
  37   13   67 1
  38   13   79 1
  39   14   76 1
  40   14   78 1
  41   15   98 1
  42   15   61 1
  43   16   62 1
  44   17   79 1
  45   17   84 1
  46   18  101 1
  47   18   63 1
  48   19   78 1
  49   19   86 1
  50   20   65 1
  51   21  102 1
  52   21   70 1
  53   22  103 1
  54   22   73 1
  55   23  104 1
  56   23   75 1
  57   24   91 1
  58   24   82 1
  59   25  105 1
  60   25   77 1
  61   26  106 1
  62   26   80 1
  63   27  107 1
  64   27   81 1
  65   28   90 1
  66   28   96 1
  67   29   85 1
  68   30   83 1
  69   30  112 1
  70   31   83 1
  71   31  113 1
  72   32   87 1
  73   33   91 1
  74   33   99 1
  75   34  109 1
  76   34   89 1
  77   35   88 1
  78   35  114 1
  79   36   88 1
  80   36  115 1
  81   37   92 1
  82   38  110 1
  83   38   93 1
  84   39  111 1
  85   39   95 1
  86   40  100 1
  87   41  116 1
  88   42  117 1
  89   47  118 1
  90   48  119 1
  91   53  120 1
  92   56  121 1
  93   59   61 1
  94   59   66 1
  95   59  122 1
  96   60   62 1
  97   60   68 1
  98   60  123 1
  99   61   63 1
 100   61  124 1
 101   62   65 1
 102   62  125 1
 103   63   64 1
 104   63  126 1
 105   64  127 1
 106   65   69 1
 107   65  128 1
 108   66   83 1
 109   66  129 1
 110   67   70 1
 111   67   74 1
 112   67  130 1
 113   68   85 1
 114   68  131 1
 115   69  132 1
 116   70   73 1
 117   70  133 1
 118   71   75 1
 119   71   76 1
 120   71  134 1
 121   72   73 1
 122   72  135 1
 123   73  136 1
 124   74   87 1
 125   74  137 1
 126   75   77 1
 127   75  138 1
 128   76   88 1
 129   76  139 1
 130   77   78 1
 131   77  140 1
 132   78  141 1
 133   79   80 1
 134   79  142 1
 135   80   81 1
 136   80  143 1
 137   81   82 1
 138   81  144 1
 139   82   84 1
 140   82  145 1
 141   83  146 1
 142   84   94 1
 143   84  147 1
 144   85  148 1
 145   85  149 1
 146   86   89 1
 147   86   90 1
 148   86  150 1
 149   87  151 1
 150   87  152 1
 151   88  153 1
 152   89   92 1
 153   89  154 1
 154   90  100 1
 155   90  155 1
 156   91   93 1
 157   91  156 1
 158   92   96 1
 159   92  157 1
 160   93   95 1
 161   93  158 1
 162   94  159 1
 163   94  160 1
 164   94  161 1
 165   95   97 1
 166   95  162 1
 167   96  163 1
 168   96  164 1
 169   97   99 1
 170   97  165 1
 171   97  166 1
 172   98  167 1
 173   98  168 1
 174   98  169 1
 175   99  108 1
 176   99  170 1
 177  100  171 1
 178  100  172 1
 179  101  173 1
 180  101  174 1
 181  101  175 1
 182  102  176 1
 183  102  177 1
 184  102  178 1
 185  103  179 1
 186  103  180 1
 187  103  181 1
 188  104  182 1
 189  104  183 1
 190  104  184 1
 191  105  185 1
 192  105  186 1
 193  105  187 1
 194  106  188 1
 195  106  189 1
 196  106  190 1
 197  107  191 1
 198  107  192 1
 199  107  193 1
 200  108  194 1
 201  108  195 1
 202  108  196 1
 203  109  197 1
 204  109  198 1
 205  109  199 1
 206  110  200 1
 207  110  201 1
 208  110  202 1
 209  111  203 1
 210  111  204 1
 211  111  205 1

#	End of record

