#	Name: ASD01912238
#	Creating user name:	WinNT
#	Creation time:	15. 06. 2019 19:59

#	Modifying user name:	WinNT
#	Modification time:	15. 06. 2019 19:59

#	Program:	/corina/corina34_cracker 3.40 0067  02.08.2006

@<TRIPOS>MOLECULE
ASD01912238
  50   51    0    0    0
SMALL
NO_CHARGES


@<TRIPOS>ATOM
   1 N1            -0.0178     1.4650     0.0101 N.am    
   2 C2             0.0021    -0.0041     0.0020 C.3     
   3 C3             0.8803    -0.4916     1.1586 C.3     
   4 C4             2.2627     0.1563     1.0525 C.3     
   5 C5             2.1248     1.6768     1.1584 C.3     
   6 C6             1.2607     2.1889     0.0018 C.3     
   7 C7            -1.1868     2.1359     0.0193 C.2     
   8 O8            -2.2375     1.5256     0.0210 O.2     
   9 O9            -1.1902     3.4822     0.0266 O.3     
  10 C10            3.1537    -0.3549     2.1863 C.3     
  11 C11            4.4834     0.2681     2.0845 C.1     
  12 C12            5.5440     0.7651     2.0032 C.1     
  13 C13            6.8376     1.3712     1.9041 C.ar    
  14 C14            7.8244     1.0536     2.8381 C.ar    
  15 C15            9.0691     1.6476     2.7288 C.ar    
  16 C16            9.2884     2.5407     1.6889 C.ar    
  17 C17            8.2656     2.8100     0.7983 C.ar    
  18 N18            7.0906     2.2272     0.9207 N.ar    
  19 C19            8.5002     3.7795    -0.3314 C.3     
  20 O20            2.5648    -0.0177     3.4439 O.3     
  21 C21           -2.4856     4.1381     0.0364 C.3     
  22 C22           -3.2605     3.7182     1.2870 C.3     
  23 C23           -2.2890     5.6554     0.0437 C.3     
  24 C24           -3.2723     3.7317    -1.2114 C.3     
  25 H25           -1.0118    -0.3840     0.1278 H       
  26 H26            0.4128    -0.3587    -0.9433 H       
  27 H27            0.4202    -0.2139     2.1069 H       
  28 H28            0.9816    -1.5757     1.1066 H       
  29 H29            2.7120    -0.1016     0.0934 H       
  30 H30            1.6530     1.9341     2.1067 H       
  31 H31            3.1119     2.1361     1.1062 H       
  32 H32            1.7740     2.0131    -0.9436 H       
  33 H33            1.0772     3.2560     0.1274 H       
  34 H34            3.2530    -1.4377     2.1104 H       
  35 H35            7.6193     0.3543     3.6352 H       
  36 H36            9.8526     1.4218     3.4369 H       
  37 H37           10.2491     3.0211     1.5768 H       
  38 H38            8.8737     3.2398    -1.2016 H       
  39 H39            7.5630     4.2747    -0.5856 H       
  40 H40            9.2334     4.5251    -0.0240 H       
  41 H41            2.4460     0.9322     3.5805 H       
  42 H42           -2.7000     4.0076     2.1759 H       
  43 H43           -4.2329     4.2105     1.2943 H       
  44 H44           -3.4005     2.6372     1.2818 H       
  45 H45           -1.7370     5.9545    -0.8473 H       
  46 H46           -3.2615     6.1477     0.0510 H       
  47 H47           -1.7285     5.9448     0.9326 H       
  48 H48           -3.4124     2.6508    -1.2166 H       
  49 H49           -4.2448     4.2241    -1.2041 H       
  50 H50           -2.7203     4.0309    -2.1024 H       
@<TRIPOS>BOND
   1    1    2 1
   2    1    6 1
   3    1    7 am
   4    2    3 1
   5    2   25 1
   6    2   26 1
   7    3    4 1
   8    3   27 1
   9    3   28 1
  10    4    5 1
  11    4   10 1
  12    4   29 1
  13    5    6 1
  14    5   30 1
  15    5   31 1
  16    6   32 1
  17    6   33 1
  18    7    8 2
  19    7    9 1
  20    9   21 1
  21   10   11 1
  22   10   20 1
  23   10   34 1
  24   11   12 3
  25   12   13 1
  26   13   14 ar
  27   13   18 ar
  28   14   15 ar
  29   14   35 1
  30   15   16 ar
  31   15   36 1
  32   16   17 ar
  33   16   37 1
  34   17   18 ar
  35   17   19 1
  36   19   38 1
  37   19   39 1
  38   19   40 1
  39   20   41 1
  40   21   22 1
  41   21   24 1
  42   21   23 1
  43   22   42 1
  44   22   43 1
  45   22   44 1
  46   23   45 1
  47   23   46 1
  48   23   47 1
  49   24   48 1
  50   24   49 1
  51   24   50 1

#	End of record

