#	Name: ASD01810309
#	Creating user name:	WinNT
#	Creation time:	15. 06. 2019 19:24

#	Modifying user name:	WinNT
#	Modification time:	15. 06. 2019 19:24

#	Program:	/corina/corina34_cracker 3.40 0067  02.08.2006

@<TRIPOS>MOLECULE
ASD01810309
  52   55    0    0    0
SMALL
NO_CHARGES


@<TRIPOS>ATOM
   1 C1             0.1039     1.4773     0.3902 C.ar    
   2 C2             0.0850     0.0901     0.3821 C.ar    
   3 C3             1.2535    -0.6294     0.2402 C.ar    
   4 C4             2.4698     0.0389     0.1030 C.ar    
   5 C5             2.4841     1.4436     0.1117 C.ar    
   6 C6             1.2943     2.1571     0.2561 C.ar    
   7 N7             3.6452    -0.6678    -0.0386 N.pl3   
   8 C8             4.8374    -0.0735    -0.1722 C.2     
   9 C9             4.9781     1.2999    -0.1779 C.2     
  10 C10            3.7770     2.1382    -0.0343 C.2     
  11 O11            3.8480     3.3547    -0.0335 O.2     
  12 C12            3.5871    -2.1316    -0.0427 C.3     
  13 C13            3.4445    -2.6248    -1.4595 C.ar    
  14 C14            4.5665    -2.7659    -2.2562 C.ar    
  15 C15            4.4419    -3.2172    -3.5545 C.ar    
  16 C16            3.1827    -3.5312    -4.0623 C.ar    
  17 C17            2.0559    -3.3875    -3.2551 C.ar    
  18 C18            2.1928    -2.9400    -1.9568 C.ar    
  19 C19            3.0424    -4.0162    -5.4573 C.ar    
  20 C20            6.3050     1.9144    -0.3259 C.2     
  21 O21            6.4294     3.2567    -0.3300 O.3     
  22 O22            7.2902     1.2122    -0.4446 O.2     
  23 F23            1.2196    -1.9800     0.2346 F       
  24 C24            4.1629    -4.1619    -6.2696 C.ar    
  25 N25            4.0435    -4.5920    -7.5099 N.ar    
  26 C26            2.8652    -4.9008    -8.0299 C.ar    
  27 C27            1.6994    -4.7807    -7.2782 C.ar    
  28 C28            1.7816    -4.3391    -5.9727 C.ar    
  29 N29            2.7916    -5.3500    -9.3424 N.pl3   
  30 C30            1.4931    -5.6942    -9.9270 C.3     
  31 C31            1.6909    -6.1569   -11.3719 C.3     
  32 O32            2.4449    -7.3708   -11.3844 O.3     
  33 H33           -0.8196     2.0267     0.4977 H       
  34 H34           -0.8544    -0.4321     0.4884 H       
  35 H35            1.3063     3.2370     0.2624 H       
  36 H36            5.7184    -0.6889    -0.2786 H       
  37 H37            4.5030    -2.5328     0.3913 H       
  38 H38            2.7311    -2.4629     0.5452 H       
  39 H39            5.5419    -2.5223    -1.8615 H       
  40 H40            5.3185    -3.3263    -4.1758 H       
  41 H41            1.0776    -3.6291    -3.6438 H       
  42 H42            1.3203    -2.8286    -1.3302 H       
  43 H43            7.3222     3.6145    -0.4300 H       
  44 H44            5.1406    -3.9196    -5.8799 H       
  45 H45            0.7424    -5.0343    -7.7099 H       
  46 H46            0.8937    -4.2366    -5.3666 H       
  47 H47            3.5999    -5.4357    -9.8718 H       
  48 H48            1.0352    -6.4963    -9.3481 H       
  49 H49            0.8441    -4.8187    -9.9115 H       
  50 H50            0.7191    -6.3281   -11.8349 H       
  51 H51            2.2286    -5.3895   -11.9288 H       
  52 H52            2.6088    -7.7229   -12.2699 H       
@<TRIPOS>BOND
   1    1    2 ar
   2    1    6 ar
   3    1   33 1
   4    2    3 ar
   5    2   34 1
   6    3    4 ar
   7    3   23 1
   8    4    5 ar
   9    4    7 1
  10    5    6 ar
  11    5   10 1
  12    6   35 1
  13    7    8 1
  14    7   12 1
  15    8    9 2
  16    8   36 1
  17    9   10 1
  18    9   20 1
  19   10   11 2
  20   12   13 1
  21   12   37 1
  22   12   38 1
  23   13   14 ar
  24   13   18 ar
  25   14   15 ar
  26   14   39 1
  27   15   16 ar
  28   15   40 1
  29   16   17 ar
  30   16   19 1
  31   17   18 ar
  32   17   41 1
  33   18   42 1
  34   19   24 ar
  35   19   28 ar
  36   20   21 1
  37   20   22 2
  38   21   43 1
  39   24   25 ar
  40   24   44 1
  41   25   26 ar
  42   26   27 ar
  43   26   29 1
  44   27   28 ar
  45   27   45 1
  46   28   46 1
  47   29   30 1
  48   29   47 1
  49   30   31 1
  50   30   48 1
  51   30   49 1
  52   31   32 1
  53   31   50 1
  54   31   51 1
  55   32   52 1

#	End of record

