#	Name: ASD01708045
#	Creating user name:	WinNT
#	Creation time:	15. 06. 2019 19:22

#	Modifying user name:	WinNT
#	Modification time:	15. 06. 2019 19:22

#	Program:	/corina/corina34_cracker 3.40 0067  02.08.2006

@<TRIPOS>MOLECULE
ASD01708045
  62   66    0    0    0
SMALL
NO_CHARGES


@<TRIPOS>ATOM
   1 C1            -0.0162     1.3436     0.0094 C.2     
   2 N2            -0.0071    -0.0042     0.0037 N.am    
   3 O3             1.0325     1.9585     0.0194 O.2     
   4 C4             1.2495    -0.7612    -0.1215 C.3     
   5 C5            -1.2480    -0.7761     0.1281 C.3     
   6 C6            -1.0460    -1.9100     1.1026 C.ar    
   7 C7             0.2009    -2.2657     1.5698 C.ar    
   8 C8             1.4552    -1.5460     1.1730 C.3     
   9 C9            -2.1733    -2.6035     1.5268 C.ar    
  10 C10           -2.0625    -3.6554     2.4098 C.ar    
  11 C11           -0.8011    -4.0284     2.8825 C.ar    
  12 C12            0.3258    -3.3271     2.4564 C.ar    
  13 Cl13           1.8964    -3.7841     3.0379 Cl      
  14 Cl14          -3.4798    -4.5111     2.9321 Cl      
  15 C15           -0.6632    -5.1565     3.8257 C.2     
  16 N16           -0.7191    -4.9350     5.1539 N.am    
  17 O17           -0.4994    -6.2849     3.4040 O.2     
  18 C18           -0.5823    -6.0541     6.0895 C.3     
  19 C19           -1.9247    -6.7094     6.2885 C.2     
  20 O20           -2.0413    -7.7644     7.1102 O.3     
  21 O21           -2.8960    -6.2853     5.7082 O.2     
  22 C22           -1.3002     2.0735    -0.0026 C.ar    
  23 C23           -0.0639    -5.5356     7.4324 C.3     
  24 C24            1.3300    -4.9906     7.2563 C.2     
  25 C25            1.6444    -3.7207     6.9434 C.2     
  26 C26           -1.4218     3.2844     0.6950 C.ar    
  27 C27           -2.5981     3.9682     0.6932 C.ar    
  28 C28           -3.7021     3.4643    -0.0100 C.ar    
  29 C29           -3.5883     2.2484    -0.7139 C.ar    
  30 C30           -2.3821     1.5602    -0.7102 C.ar    
  31 C31           -5.0256     3.9261    -0.2009 C.2     
  32 N32           -5.6619     3.0732    -0.9510 N.2     
  33 N33           -4.8105     2.0158    -1.2938 N.pl3   
  34 O34            2.4692    -5.6891     7.3907 O.3     
  35 C35            3.5185    -4.8828     7.1616 C.2     
  36 C36            3.0551    -3.6518     6.8800 C.2     
  37 S37            5.2146    -5.3560     7.2239 S.o2    
  38 O38            5.2007    -6.7482     6.9395 O.2     
  39 O39            5.8667    -4.4378     6.3574 O.2     
  40 C40            5.7034    -5.0630     8.9461 C.3     
  41 H41            1.1829    -1.4498    -0.9638 H       
  42 H42            2.0813    -0.0730    -0.2717 H       
  43 H43           -2.0451    -0.1258     0.4885 H       
  44 H44           -1.5231    -1.1799    -0.8463 H       
  45 H45            2.2530    -2.2732     1.0218 H       
  46 H46            1.7425    -0.8604     1.9702 H       
  47 H47           -3.1472    -2.3144     1.1603 H       
  48 H48           -0.8498    -4.0347     5.4904 H       
  49 H49            0.1210    -6.7819     5.6851 H       
  50 H50           -2.9225    -8.1511     7.2058 H       
  51 H51           -0.7204    -4.7443     7.7943 H       
  52 H52           -0.0463    -6.3518     8.1547 H       
  53 H53            0.9521    -2.9095     6.7732 H       
  54 H54           -0.5749     3.6771     1.2382 H       
  55 H55           -2.6819     4.8993     1.2339 H       
  56 H56           -2.2868     0.6282    -1.2474 H       
  57 H57           -5.4399     4.8357     0.2084 H       
  58 H58           -5.0436     1.2525    -1.8451 H       
  59 H59            3.6471    -2.7785     6.6491 H       
  60 H60            5.0866    -5.6716     9.6074 H       
  61 H61            6.7515    -5.3321     9.0771 H       
  62 H62            5.5658    -4.0093     9.1885 H       
@<TRIPOS>BOND
   1    1    2 am
   2    1    3 2
   3    1   22 1
   4    2    4 1
   5    2    5 1
   6    4    8 1
   7    4   41 1
   8    4   42 1
   9    5    6 1
  10    5   43 1
  11    5   44 1
  12    6    7 ar
  13    6    9 ar
  14    7    8 1
  15    7   12 ar
  16    8   45 1
  17    8   46 1
  18    9   10 ar
  19    9   47 1
  20   10   11 ar
  21   10   14 1
  22   11   12 ar
  23   11   15 1
  24   12   13 1
  25   15   16 am
  26   15   17 2
  27   16   18 1
  28   16   48 1
  29   18   19 1
  30   18   23 1
  31   18   49 1
  32   19   20 1
  33   19   21 2
  34   20   50 1
  35   22   26 ar
  36   22   30 ar
  37   23   24 1
  38   23   51 1
  39   23   52 1
  40   24   25 2
  41   24   34 1
  42   25   36 1
  43   25   53 1
  44   26   27 ar
  45   26   54 1
  46   27   28 ar
  47   27   55 1
  48   28   29 ar
  49   28   31 1
  50   29   30 ar
  51   29   33 1
  52   30   56 1
  53   31   32 2
  54   31   57 1
  55   32   33 1
  56   33   58 1
  57   34   35 1
  58   35   36 2
  59   35   37 1
  60   36   59 1
  61   37   38 2
  62   37   39 2
  63   37   40 1
  64   40   60 1
  65   40   61 1
  66   40   62 1

#	End of record

