#	Name: ASD01881309
#	Creating user name:	WinNT
#	Creation time:	15. 06. 2019 19:42

#	Modifying user name:	WinNT
#	Modification time:	15. 06. 2019 19:42

#	Program:	/corina/corina34_cracker 3.40 0067  02.08.2006

@<TRIPOS>MOLECULE
ASD01881309
  59   60    0    0    0
SMALL
NO_CHARGES


@<TRIPOS>ATOM
   1 C1            -0.2726     1.2840     0.4440 C.2     
   2 C2            -0.1738    -0.1741     0.6602 C.ar    
   3 C3             1.0237    -0.8416     0.3981 C.ar    
   4 C4             1.1086    -2.2081     0.6031 C.ar    
   5 C5             0.0050    -2.9110     1.0681 C.ar    
   6 C6            -1.1819    -2.2514     1.3282 C.ar    
   7 C7            -1.2762    -0.8886     1.1329 C.ar    
   8 O8             0.6894     1.9043     0.0373 O.2     
   9 O9            -1.4312     1.9248     0.6925 O.3     
  10 O10            2.2725    -2.8621     0.3487 O.3     
  11 C11            2.2891    -4.2717     0.5825 C.3     
  12 C12            3.6730    -4.8288     0.2427 C.3     
  13 C13            3.6908    -6.3381     0.4930 C.3     
  14 C14            5.0747    -6.8951     0.1531 C.3     
  15 O15            5.0913    -8.3048     0.3869 O.3     
  16 C16            6.2531    -8.9575     0.1330 C.ar    
  17 C17            6.3361   -10.3304     0.3397 C.ar    
  18 C18            7.5022   -10.9949     0.0864 C.ar    
  19 C19            8.6200   -10.2941    -0.3831 C.ar    
  20 C20            8.5369    -8.9118    -0.5914 C.ar    
  21 C21            7.3553    -8.2525    -0.3385 C.ar    
  22 C22            9.8751   -11.0062    -0.6557 C.2     
  23 C23           11.1133   -10.2339    -1.0315 C.3     
  24 C24           12.2716   -11.2071    -1.2602 C.3     
  25 C25           11.9634   -12.0914    -2.4701 C.3     
  26 O26            9.9150   -12.2161    -0.5784 O.2     
  27 C27           13.5568   -10.4183    -1.5192 C.3     
  28 C28            7.5861   -12.4825     0.3128 C.3     
  29 C29            5.1352   -11.0874     0.8454 C.3     
  30 H30            1.8812    -0.2938     0.0361 H       
  31 H31            0.0740    -3.9771     1.2268 H       
  32 H32           -2.0366    -2.8038     1.6897 H       
  33 H33           -2.2034    -0.3757     1.3417 H       
  34 H34           -1.4475     2.8789     0.5361 H       
  35 H35            2.0656    -4.4688     1.6310 H       
  36 H36            1.5395    -4.7530    -0.0456 H       
  37 H37            3.8966    -4.6317    -0.8058 H       
  38 H38            4.4227    -4.3475     0.8707 H       
  39 H39            3.4672    -6.5351     1.5414 H       
  40 H40            2.9411    -6.8194    -0.1351 H       
  41 H41            5.2982    -6.6980    -0.8953 H       
  42 H42            5.8243    -6.4138     0.7812 H       
  43 H43            9.3955    -8.3657    -0.9535 H       
  44 H44            7.2854    -7.1873    -0.5023 H       
  45 H45           10.9265    -9.6702    -1.9456 H       
  46 H46           11.3706    -9.5457    -0.2264 H       
  47 H47           12.4007   -11.8322    -0.3767 H       
  48 H48           12.7886   -12.7847    -2.6330 H       
  49 H49           11.0478   -12.6533    -2.2856 H       
  50 H50           11.8343   -11.4662    -3.3536 H       
  51 H51           13.7764    -9.7883    -0.6572 H       
  52 H52           14.3820   -11.1116    -1.6821 H       
  53 H53           13.4277    -9.7932    -2.4027 H       
  54 H54            7.4161   -13.0035    -0.6293 H       
  55 H55            8.5746   -12.7366     0.6953 H       
  56 H56            6.8282   -12.7832     1.0362 H       
  57 H57            4.5415   -11.4340    -0.0005 H       
  58 H58            5.4664   -11.9442     1.4322 H       
  59 H59            4.5290   -10.4316     1.4703 H       
@<TRIPOS>BOND
   1    1    2 1
   2    1    8 2
   3    1    9 1
   4    2    3 ar
   5    2    7 ar
   6    3    4 ar
   7    3   30 1
   8    4    5 ar
   9    4   10 1
  10    5    6 ar
  11    5   31 1
  12    6    7 ar
  13    6   32 1
  14    7   33 1
  15    9   34 1
  16   10   11 1
  17   11   12 1
  18   11   35 1
  19   11   36 1
  20   12   13 1
  21   12   37 1
  22   12   38 1
  23   13   14 1
  24   13   39 1
  25   13   40 1
  26   14   15 1
  27   14   41 1
  28   14   42 1
  29   15   16 1
  30   16   17 ar
  31   16   21 ar
  32   17   18 ar
  33   17   29 1
  34   18   19 ar
  35   18   28 1
  36   19   20 ar
  37   19   22 1
  38   20   21 ar
  39   20   43 1
  40   21   44 1
  41   22   23 1
  42   22   26 2
  43   23   24 1
  44   23   45 1
  45   23   46 1
  46   24   25 1
  47   24   27 1
  48   24   47 1
  49   25   48 1
  50   25   49 1
  51   25   50 1
  52   27   51 1
  53   27   52 1
  54   27   53 1
  55   28   54 1
  56   28   55 1
  57   28   56 1
  58   29   57 1
  59   29   58 1
  60   29   59 1

#	End of record

