#	Name: ASD01884175
#	Creating user name:	WinNT
#	Creation time:	15. 06. 2019 19:47

#	Modifying user name:	WinNT
#	Modification time:	15. 06. 2019 19:47

#	Program:	/corina/corina34_cracker 3.40 0067  02.08.2006

@<TRIPOS>MOLECULE
ASD01884175
  29   30    0    0    0
SMALL
NO_CHARGES


@<TRIPOS>ATOM
   1 Cl1            0.0021    -0.0041     0.0020 Cl      
   2 C2            -0.0215     1.7317     0.0116 C.ar    
   3 C3             1.1689     2.4368     0.0040 C.ar    
   4 C4             1.1508     3.8177     0.0116 C.ar    
   5 C5            -0.0847     4.4845     0.0270 C.ar    
   6 C6            -1.2349     3.6919     0.0337 C.ar    
   7 N7            -1.1752     2.3733     0.0205 N.ar    
   8 N8            -0.3227     5.8464     0.0361 N.am    
   9 C9            -1.5892     6.2736     0.0501 C.2     
  10 S10           -2.5999     4.8189     0.0522 S.3     
  11 C11            0.7890     6.8005     0.0310 C.3     
  12 C12            1.1631     7.1400    -1.4132 C.3     
  13 C13           -0.0439     7.7596    -2.1204 C.3     
  14 C14            2.3241     8.1365    -1.4184 C.3     
  15 O15           -1.9710     7.4292     0.0601 O.2     
  16 C16            1.5831     5.8637    -2.1448 C.3     
  17 H17            2.1107     1.9082    -0.0075 H       
  18 H18            2.0746     4.3772     0.0061 H       
  19 H19            0.4898     7.7098     0.5523 H       
  20 H20            1.6489     6.3591     0.5349 H       
  21 H21           -0.3432     8.6689    -1.5992 H       
  22 H22            0.2226     8.0015    -3.1493 H       
  23 H23           -0.8710     7.0497    -2.1167 H       
  24 H24            3.1840     7.6951    -0.9146 H       
  25 H25            2.5906     8.3784    -2.4473 H       
  26 H26            2.0249     9.0458    -0.8972 H       
  27 H27            0.7560     5.1538    -2.1410 H       
  28 H28            1.8496     6.1056    -3.1736 H       
  29 H29            2.4430     5.4223    -1.6409 H       
@<TRIPOS>BOND
   1    1    2 1
   2    2    3 ar
   3    2    7 ar
   4    3    4 ar
   5    3   17 1
   6    4    5 ar
   7    4   18 1
   8    5    6 ar
   9    5    8 1
  10    6    7 ar
  11    6   10 1
  12    8    9 am
  13    8   11 1
  14    9   10 1
  15    9   15 2
  16   11   12 1
  17   11   19 1
  18   11   20 1
  19   12   13 1
  20   12   14 1
  21   12   16 1
  22   13   21 1
  23   13   22 1
  24   13   23 1
  25   14   24 1
  26   14   25 1
  27   14   26 1
  28   16   27 1
  29   16   28 1
  30   16   29 1

#	End of record

