#	Name: ASD03731468
#	Creating user name:	WinNT
#	Creation time:	15. 06. 2019 20:45

#	Modifying user name:	WinNT
#	Modification time:	15. 06. 2019 20:45

#	Program:	/corina/corina34_cracker 3.40 0067  02.08.2006

@<TRIPOS>MOLECULE
ASD03731468
  63   67    0    0    0
SMALL
NO_CHARGES


@<TRIPOS>ATOM
   1 C1            -0.0184     1.5028     0.0103 C.2     
   2 C2             0.0021    -0.0041     0.0020 C.3     
   3 C3             1.4513    -0.4944    -0.0145 C.3     
   4 C4             1.4720    -2.0242    -0.0229 C.3     
   5 C5             2.9213    -2.5145    -0.0393 C.3     
   6 C6             2.9420    -4.0444    -0.0478 C.3     
   7 C7             4.3912    -4.5347    -0.0642 C.3     
   8 O8             1.0236     2.1234     0.0037 O.2     
   9 N9            -1.1946     2.1607     0.0195 N.am    
  10 C10           -1.2145     3.6256     0.0275 C.3     
  11 C11           -2.6637     4.1159     0.0371 C.3     
  12 C12           -2.6845     5.6457     0.0455 C.3     
  13 O13           -8.8979     2.7393     2.1988 O.3     
  14 C14          -10.3150     2.7928     2.4481 C.3     
  15 O15          -10.5201     4.1171     2.9744 O.3     
  16 C16           -9.5165     4.8794     2.4484 C.ar    
  17 C17           -8.5189     4.0315     1.9726 C.ar    
  18 C18           -9.3717     6.2503     2.3343 C.ar    
  19 C19           -8.2322     6.7925     1.7475 C.ar    
  20 C20           -7.2388     5.9357     1.2835 C.ar    
  21 C21           -7.3830     4.5682     1.3902 C.ar    
  22 O22           -7.9033     8.0972     1.5243 O.3     
  23 C23           -6.1403     6.8084     0.7378 C.3     
  24 C24           -6.4846     8.1968     1.2939 C.3     
  25 N25           -4.0722     6.1152     0.0546 N.am    
  26 C26           -4.7795     6.3508     1.1777 C.2     
  27 C27           -6.0970     6.8011    -0.7615 C.ar    
  28 C28           -7.0126     7.1140    -1.7413 C.ar    
  29 C29           -6.6642     7.0046    -3.0758 C.ar    
  30 C30           -5.3947     6.5797    -3.4231 C.ar    
  31 C31           -4.4744     6.2642    -2.4454 C.ar    
  32 C32           -4.8162     6.3718    -1.0995 C.ar    
  33 O33           -4.3925     6.2192     2.3196 O.2     
  34 H34           -0.4983    -0.3791     0.8948 H       
  35 H35           -0.5153    -0.3696    -0.8850 H       
  36 H36            1.9516    -0.1193    -0.9073 H       
  37 H37            1.9686    -0.1289     0.8726 H       
  38 H38            0.9717    -2.3993     0.8699 H       
  39 H39            0.9547    -2.3897    -0.9099 H       
  40 H40            3.4216    -2.1395    -0.9321 H       
  41 H41            3.4386    -2.1490     0.8477 H       
  42 H42            2.4417    -4.4194     0.8450 H       
  43 H43            2.4247    -4.4099    -0.9348 H       
  44 H44            4.8916    -4.1596    -0.9570 H       
  45 H45            4.9085    -4.1692     0.8228 H       
  46 H46            4.4060    -5.6246    -0.0702 H       
  47 H47           -2.0280     1.6644     0.0207 H       
  48 H48           -0.7014     3.9910     0.9171 H       
  49 H49           -0.7098     4.0007    -0.8628 H       
  50 H50           -3.1768     3.7505    -0.8525 H       
  51 H51           -3.1683     3.7408     0.9274 H       
  52 H52           -2.1714     6.0112     0.9350 H       
  53 H53           -2.1798     6.0209    -0.8449 H       
  54 H54          -10.8722     2.6586     1.5209 H       
  55 H55          -10.6034     2.0402     3.1818 H       
  56 H56          -10.1480     6.9043     2.7032 H       
  57 H57           -6.6078     3.9142     1.0188 H       
  58 H58           -6.2650     8.9729     0.5607 H       
  59 H59           -5.9530     8.3828     2.2271 H       
  60 H60           -8.0034     7.4455    -1.4678 H       
  61 H61           -7.3818     7.2508    -3.8445 H       
  62 H62           -5.1228     6.4942    -4.4648 H       
  63 H63           -3.4852     5.9325    -2.7244 H       
@<TRIPOS>BOND
   1    1    2 1
   2    1    8 2
   3    1    9 am
   4    2    3 1
   5    2   34 1
   6    2   35 1
   7    3    4 1
   8    3   36 1
   9    3   37 1
  10    4    5 1
  11    4   38 1
  12    4   39 1
  13    5    6 1
  14    5   40 1
  15    5   41 1
  16    6    7 1
  17    6   42 1
  18    6   43 1
  19    7   44 1
  20    7   45 1
  21    7   46 1
  22    9   10 1
  23    9   47 1
  24   10   11 1
  25   10   48 1
  26   10   49 1
  27   11   12 1
  28   11   50 1
  29   11   51 1
  30   12   25 1
  31   12   52 1
  32   12   53 1
  33   13   14 1
  34   13   17 1
  35   14   15 1
  36   14   54 1
  37   14   55 1
  38   15   16 1
  39   16   17 ar
  40   16   18 ar
  41   17   21 ar
  42   18   19 ar
  43   18   56 1
  44   19   20 ar
  45   19   22 1
  46   20   21 ar
  47   20   23 1
  48   21   57 1
  49   22   24 1
  50   23   24 1
  51   23   26 1
  52   23   27 1
  53   24   58 1
  54   24   59 1
  55   25   26 am
  56   25   32 1
  57   26   33 2
  58   27   28 ar
  59   27   32 ar
  60   28   29 ar
  61   28   60 1
  62   29   30 ar
  63   29   61 1
  64   30   31 ar
  65   30   62 1
  66   31   32 ar
  67   31   63 1

#	End of record

