#	Name: ASD00170441
#	Creating user name:	WinNT
#	Creation time:	15. 06. 2019 18:32

#	Modifying user name:	WinNT
#	Modification time:	15. 06. 2019 18:32

#	Program:	/corina/corina34_cracker 3.40 0067  02.08.2006

@<TRIPOS>MOLECULE
ASD00170441
  68   70    0    0    0
SMALL
NO_CHARGES


@<TRIPOS>ATOM
   1 C1             0.3028     1.7673     0.7347 C.2     
   2 C2             0.3401     0.3913     0.7957 C.2     
   3 C3            -0.9564    -0.2128     0.6012 C.2     
   4 C4            -1.9279     0.6865     0.4017 C.2     
   5 S5            -1.2847     2.3181     0.4516 S.3     
   6 C6            -1.1918    -1.7012     0.6199 C.3     
   7 N7             1.4000     2.5874     0.8878 N.pl3   
   8 C8             1.5637    -0.3760     1.0325 C.2     
   9 C9             2.3433    -0.8959    -0.1112 C.ar    
  10 O10            1.9398    -0.5862     2.1715 O.2     
  11 C11            3.4466    -1.7224     0.1104 C.ar    
  12 C12            4.1695    -2.2046    -0.9603 C.ar    
  13 C13            3.8030    -1.8705    -2.2536 C.ar    
  14 C14            2.7095    -1.0510    -2.4798 C.ar    
  15 C15            1.9757    -0.5670    -1.4174 C.ar    
  16 Cl16           4.7183    -2.4810    -3.5965 Cl      
  17 C17           -3.3491     0.3509     0.1755 C.ar    
  18 C18           -4.3431     0.9492     0.9521 C.ar    
  19 C19           -5.6679     0.6314     0.7357 C.ar    
  20 C20           -6.0126    -0.2781    -0.2484 C.ar    
  21 C21           -5.0325    -0.8751    -1.0214 C.ar    
  22 C22           -3.7043    -0.5616    -0.8197 C.ar    
  23 N23           -1.3255    -2.1584     2.0096 N.3     
  24 C24           -2.5359    -1.6053     2.6316 C.3     
  25 C25           -1.3187    -3.6255     2.0841 C.3     
  26 C26           -2.4436    -1.7577     4.1512 C.3     
  27 C27           -3.7147    -1.2031     4.7975 C.3     
  28 C28            0.1101    -4.1391     1.8955 C.3     
  29 C29            0.1385    -5.6549     2.1013 C.3     
  30 C30           -3.6224    -1.3555     6.3171 C.3     
  31 C31            1.5674    -6.1685     1.9127 C.3     
  32 C32            1.5958    -7.6843     2.1186 C.3     
  33 C33           -4.8934    -0.8010     6.9634 C.3     
  34 H34           -2.1056    -1.9315     0.0722 H       
  35 H35           -0.3490    -2.2083     0.1501 H       
  36 H36            2.2605     2.2071     1.1241 H       
  37 H37            1.3116     3.5447     0.7592 H       
  38 H38            3.7335    -1.9832     1.1184 H       
  39 H39            5.0233    -2.8437    -0.7901 H       
  40 H40            2.4287    -0.7937    -3.4904 H       
  41 H41            1.1230     0.0716    -1.5949 H       
  42 H42           -4.0753     1.6591     1.7208 H       
  43 H43           -6.4378     1.0933     1.3360 H       
  44 H44           -7.0513    -0.5234    -0.4137 H       
  45 H45           -5.3082    -1.5844    -1.7877 H       
  46 H46           -2.9402    -1.0282    -1.4237 H       
  47 H47           -2.6250    -0.5491     2.3771 H       
  48 H48           -3.4107    -2.1424     2.2651 H       
  49 H49           -1.6928    -3.9415     3.0579 H       
  50 H50           -1.9574    -4.0321     1.3000 H       
  51 H51           -2.3374    -2.8124     4.4048 H       
  52 H52           -1.5784    -1.2065     4.5197 H       
  53 H53           -3.8208    -0.1484     4.5439 H       
  54 H54           -4.5798    -1.7543     4.4290 H       
  55 H55            0.4511    -3.9028     0.8875 H       
  56 H56            0.7669    -3.6613     2.6225 H       
  57 H57           -0.2024    -5.8911     3.1093 H       
  58 H58           -0.5182    -6.1326     1.3743 H       
  59 H59           -3.5162    -2.4103     6.5707 H       
  60 H60           -2.7572    -0.8044     6.6857 H       
  61 H61            1.9083    -5.9323     0.9047 H       
  62 H62            2.2241    -5.6908     2.6397 H       
  63 H63            1.2548    -7.9206     3.1266 H       
  64 H64            0.9390    -8.1621     1.3916 H       
  65 H65            2.6137    -8.0502     1.9842 H       
  66 H66           -4.8277    -0.9096     8.0460 H       
  67 H67           -4.9996     0.2537     6.7099 H       
  68 H68           -5.7586    -1.3522     6.5949 H       
@<TRIPOS>BOND
   1    1    2 2
   2    1    7 1
   3    1    5 1
   4    2    3 1
   5    2    8 1
   6    3    4 2
   7    3    6 1
   8    4    5 1
   9    4   17 1
  10    6   23 1
  11    6   34 1
  12    6   35 1
  13    7   36 1
  14    7   37 1
  15    8    9 1
  16    8   10 2
  17    9   11 ar
  18    9   15 ar
  19   11   12 ar
  20   11   38 1
  21   12   13 ar
  22   12   39 1
  23   13   14 ar
  24   13   16 1
  25   14   15 ar
  26   14   40 1
  27   15   41 1
  28   17   18 ar
  29   17   22 ar
  30   18   19 ar
  31   18   42 1
  32   19   20 ar
  33   19   43 1
  34   20   21 ar
  35   20   44 1
  36   21   22 ar
  37   21   45 1
  38   22   46 1
  39   23   24 1
  40   23   25 1
  41   24   26 1
  42   24   47 1
  43   24   48 1
  44   25   28 1
  45   25   49 1
  46   25   50 1
  47   26   27 1
  48   26   51 1
  49   26   52 1
  50   27   30 1
  51   27   53 1
  52   27   54 1
  53   28   29 1
  54   28   55 1
  55   28   56 1
  56   29   31 1
  57   29   57 1
  58   29   58 1
  59   30   33 1
  60   30   59 1
  61   30   60 1
  62   31   32 1
  63   31   61 1
  64   31   62 1
  65   32   63 1
  66   32   64 1
  67   32   65 1
  68   33   66 1
  69   33   67 1
  70   33   68 1

#	End of record

