#	Name: ASD01816243
#	Creating user name:	WinNT
#	Creation time:	15. 06. 2019 19:34

#	Modifying user name:	WinNT
#	Modification time:	15. 06. 2019 19:34

#	Program:	/corina/corina34_cracker 3.40 0067  02.08.2006

@<TRIPOS>MOLECULE
ASD01816243
  57   62    0    0    0
SMALL
NO_CHARGES


@<TRIPOS>ATOM
   1 C1            -0.0167     1.3813     0.0096 C.ar    
   2 C2             0.0021    -0.0041     0.0020 C.ar    
   3 C3             1.1984    -0.6909    -0.0131 C.ar    
   4 C4             2.4015     0.0059    -0.0203 C.ar    
   5 C5             2.3790     1.4106    -0.0126 C.ar    
   6 C6             1.1663     2.0916     0.0022 C.ar    
   7 N7             3.6053    -0.6772    -0.0345 N.pl3   
   8 C8             4.7970    -0.0586    -0.0420 C.2     
   9 C9             4.9000     1.3103    -0.0361 C.2     
  10 C10            3.6670     2.1301    -0.0205 C.2     
  11 C11            5.9971     2.2729    -0.0415 C.2     
  12 N12            5.4246     3.4960    -0.0304 N.am    
  13 N13            4.0323     3.3799    -0.0179 N.2     
  14 C14            6.1265     4.7082    -0.0309 C.ar    
  15 C15            5.8873     5.6525     0.9617 C.ar    
  16 C16            7.0667     4.9675    -1.0190 C.ar    
  17 C17            7.7574     6.1637    -1.0169 C.ar    
  18 C18            7.5143     7.1036    -0.0320 C.ar    
  19 C19            6.5827     6.8481     0.9573 C.ar    
  20 F20            4.9771     5.4027     1.9283 F       
  21 O21            7.1914     2.0229    -0.0529 O.2     
  22 C22            3.5779    -2.1419    -0.0411 C.3     
  23 C23            3.5555    -2.6375    -1.4641 C.ar    
  24 C24            4.7451    -2.8864    -2.1255 C.ar    
  25 C25            4.7317    -3.3402    -3.4281 C.ar    
  26 C26            3.5144    -3.5487    -4.0788 C.ar    
  27 C27            2.3179    -3.2961    -3.4056 C.ar    
  28 C28            2.3455    -2.8471    -2.1014 C.ar    
  29 C29            3.4925    -4.0343    -5.4745 C.2     
  30 C30            2.3900    -4.2753    -6.2139 C.2     
  31 N31            2.6386    -4.7029    -7.4331 N.2     
  32 C32            3.8845    -4.8381    -7.7694 C.2     
  33 S33            4.9016    -4.3933    -6.4693 S.3     
  34 N34            4.3283    -5.2766    -9.0096 N.am    
  35 O35            2.2490    -5.5033    -9.7491 O.2     
  36 C36            3.4379    -5.5976    -9.9691 C.2     
  37 C37            3.9197    -6.0736   -11.3153 C.3     
  38 H38           -0.9602     1.9068     0.0169 H       
  39 H39           -0.9289    -0.5516     0.0083 H       
  40 H40            1.2004    -1.7709    -0.0189 H       
  41 H41            1.1506     3.1715     0.0084 H       
  42 H42            5.6983    -0.6536    -0.0527 H       
  43 H43            7.2583     4.2342    -1.7884 H       
  44 H44            8.4887     6.3652    -1.7856 H       
  45 H45            8.0566     8.0375    -0.0330 H       
  46 H46            6.3950     7.5844     1.7248 H       
  47 H47            4.4656    -2.5242     0.4629 H       
  48 H48            2.6860    -2.4910     0.4793 H       
  49 H49            5.6862    -2.7247    -1.6209 H       
  50 H50            5.6610    -3.5334    -3.9435 H       
  51 H51            1.3728    -3.4553    -3.9033 H       
  52 H52            1.4205    -2.6516    -1.5793 H       
  53 H53            1.3885    -4.1299    -5.8368 H       
  54 H54            5.2793    -5.3521    -9.1856 H       
  55 H55            5.0094    -6.0932   -11.3252 H       
  56 H56            3.5365    -7.0763   -11.5046 H       
  57 H57            3.5615    -5.3955   -12.0900 H       
@<TRIPOS>BOND
   1    1    2 ar
   2    1    6 ar
   3    1   38 1
   4    2    3 ar
   5    2   39 1
   6    3    4 ar
   7    3   40 1
   8    4    5 ar
   9    4    7 1
  10    5    6 ar
  11    5   10 1
  12    6   41 1
  13    7    8 1
  14    7   22 1
  15    8    9 2
  16    8   42 1
  17    9   10 1
  18    9   11 1
  19   10   13 2
  20   11   12 am
  21   11   21 2
  22   12   13 1
  23   12   14 1
  24   14   15 ar
  25   14   16 ar
  26   15   20 1
  27   15   19 ar
  28   16   17 ar
  29   16   43 1
  30   17   18 ar
  31   17   44 1
  32   18   19 ar
  33   18   45 1
  34   19   46 1
  35   22   23 1
  36   22   47 1
  37   22   48 1
  38   23   24 ar
  39   23   28 ar
  40   24   25 ar
  41   24   49 1
  42   25   26 ar
  43   25   50 1
  44   26   27 ar
  45   26   29 1
  46   27   28 ar
  47   27   51 1
  48   28   52 1
  49   29   30 2
  50   29   33 1
  51   30   31 1
  52   30   53 1
  53   31   32 2
  54   32   33 1
  55   32   34 1
  56   34   36 am
  57   34   54 1
  58   35   36 2
  59   36   37 1
  60   37   55 1
  61   37   56 1
  62   37   57 1

#	End of record

