#	Name: ASD01914145
#	Creating user name:	WinNT
#	Creation time:	15. 06. 2019 20:02

#	Modifying user name:	WinNT
#	Modification time:	15. 06. 2019 20:02

#	Program:	/corina/corina34_cracker 3.40 0067  02.08.2006

@<TRIPOS>MOLECULE
ASD01914145
  48   51    0    0    0
SMALL
NO_CHARGES


@<TRIPOS>ATOM
   1 C1            -2.8133    -0.1204    -1.2943 C.2     
   2 C2            -2.1809    -1.3928    -0.8881 C.2     
   3 N3            -2.8009    -2.4534    -0.3191 N.2     
   4 C4            -1.8645    -3.3491    -0.1318 C.2     
   5 O5            -0.7201    -2.8244    -0.5816 O.3     
   6 N6            -0.9158    -1.7090    -1.0160 N.2     
   7 C7            -2.0432    -4.7157     0.4776 C.3     
   8 C8            -1.6278    -5.7850    -0.5354 C.3     
   9 C9            -0.1693    -5.5645    -0.9433 C.3     
  10 C10            0.7274    -5.6944     0.2919 C.3     
  11 N11            0.2439    -4.7701     1.3266 N.am    
  12 C12           -1.1677    -4.8360     1.7289 C.3     
  13 C13            2.1682    -5.3390    -0.0806 C.3     
  14 C14            1.0793    -3.8788     1.8959 C.2     
  15 C15            0.5552    -2.8819     2.8561 C.ar    
  16 C16           -0.7351    -2.3562     2.7149 C.ar    
  17 C17           -1.1869    -1.4296     3.6307 C.ar    
  18 N18           -0.4238    -1.0341     4.6318 N.ar    
  19 C19            0.7994    -1.5008     4.8068 C.ar    
  20 C20            1.3326    -2.4435     3.9323 C.ar    
  21 O21            2.2630    -3.8937     1.6207 O.2     
  22 C22           -2.1811     0.9429    -1.8668 C.2     
  23 C23           -3.1488     1.9351    -2.0882 C.2     
  24 C24           -4.3352     1.4570    -1.6496 C.2     
  25 N25           -4.1418     0.1979    -1.1674 N.pl3   
  26 Cl26          -2.8723     3.4956    -2.7967 Cl      
  27 F27            2.5841    -2.9187     4.1142 F       
  28 O28            1.5428    -1.0600     5.8533 O.3     
  29 C29            0.9383    -0.0963     6.7182 C.3     
  30 H30           -3.0889    -4.8589     0.7495 H       
  31 H31           -1.7338    -6.7722    -0.0855 H       
  32 H32           -2.2655    -5.7175    -1.4168 H       
  33 H33            0.1188    -6.3122    -1.6823 H       
  34 H34           -0.0577    -4.5681    -1.3707 H       
  35 H35            0.6864    -6.7169     0.6673 H       
  36 H36           -1.3917    -4.0164     2.4117 H       
  37 H37           -1.3632    -5.7885     2.2215 H       
  38 H38            2.2276    -4.2803    -0.3329 H       
  39 H39            2.8241    -5.5486     0.7643 H       
  40 H40            2.4792    -5.9351    -0.9386 H       
  41 H41           -1.3681    -2.6722     1.8989 H       
  42 H42           -2.1812    -1.0208     3.5267 H       
  43 H43           -1.1299     1.0097    -2.1056 H       
  44 H44           -5.2779     1.9830    -1.6806 H       
  45 H45           -4.8277    -0.3755    -0.7908 H       
  46 H46            0.6810     0.7949     6.1457 H       
  47 H47            0.0349    -0.5189     7.1580 H       
  48 H48            1.6378     0.1702     7.5105 H       
@<TRIPOS>BOND
   1    1    2 1
   2    1   22 2
   3    1   25 1
   4    2    3 1
   5    2    6 2
   6    3    4 2
   7    4    5 1
   8    4    7 1
   9    5    6 1
  10    7    8 1
  11    7   12 1
  12    7   30 1
  13    8    9 1
  14    8   31 1
  15    8   32 1
  16    9   10 1
  17    9   33 1
  18    9   34 1
  19   10   11 1
  20   10   13 1
  21   10   35 1
  22   11   12 1
  23   11   14 am
  24   12   36 1
  25   12   37 1
  26   13   38 1
  27   13   39 1
  28   13   40 1
  29   14   15 1
  30   14   21 2
  31   15   16 ar
  32   15   20 ar
  33   16   17 ar
  34   16   41 1
  35   17   18 ar
  36   17   42 1
  37   18   19 ar
  38   19   20 ar
  39   19   28 1
  40   20   27 1
  41   22   23 1
  42   22   43 1
  43   23   24 2
  44   23   26 1
  45   24   25 1
  46   24   44 1
  47   25   45 1
  48   28   29 1
  49   29   46 1
  50   29   47 1
  51   29   48 1

#	End of record

