#	Name: ASD03090163
#	Creating user name:	WinNT
#	Creation time:	15. 06. 2019 20:28

#	Modifying user name:	WinNT
#	Modification time:	15. 06. 2019 20:28

#	Program:	/corina/corina34_cracker 3.40 0067  02.08.2006

@<TRIPOS>MOLECULE
ASD03090163
  42   44    0    0    0
SMALL
NO_CHARGES


@<TRIPOS>ATOM
   1 N1             0.4488     1.5147     1.4702 N.ar    
   2 C2             0.4105     0.1968     1.4357 C.ar    
   3 C3             1.5372    -0.5370     1.1246 C.ar    
   4 C4             2.7298     0.1378     0.8435 C.ar    
   5 C5             2.7243     1.5362     0.8913 C.ar    
   6 C6             1.5524     2.1899     1.2117 C.ar    
   7 C7             3.9634    -0.6068     0.5054 C.2     
   8 N8             5.7415    -3.4560    -0.5311 N.pl3   
   9 C9             4.8145    -4.4455    -0.8748 C.ar    
  10 C10            3.5978    -4.0913    -1.4427 C.ar    
  11 C11            2.6838    -5.0702    -1.7813 C.ar    
  12 C12            2.9799    -6.4035    -1.5544 C.ar    
  13 C13            4.1928    -6.7590    -0.9881 C.ar    
  14 C14            5.1120    -5.7842    -0.6538 C.ar    
  15 N15            4.0274    -1.8629     0.1119 N.2     
  16 C16            5.2987    -2.2022    -0.1053 C.2     
  17 N17            6.0673    -1.1671     0.1463 N.2     
  18 N18            5.2226    -0.1166     0.5400 N.pl3   
  19 C19            5.6266     1.2392     0.9205 C.3     
  20 C20            5.7311     2.1108    -0.3326 C.3     
  21 C21            6.1371     3.4731     0.0496 C.1     
  22 N22            6.4504     4.5244     0.3447 N.1     
  23 C23           -0.8809    -0.5175     1.7407 C.3     
  24 F24            2.0842    -7.3591    -1.8855 F       
  25 C25            4.5120    -8.2111    -0.7420 C.3     
  26 F26            5.7831    -8.3183    -0.1675 F       
  27 F27            3.5604    -8.7571     0.1261 F       
  28 F28            4.4888    -8.9059    -1.9560 F       
  29 H29            1.4988    -1.6160     1.0990 H       
  30 H30            3.6241     2.0953     0.6813 H       
  31 H31            1.5381     3.2691     1.2512 H       
  32 H32            6.6920    -3.6409    -0.5886 H       
  33 H33            3.3661    -3.0513    -1.6192 H       
  34 H34            1.7374    -4.7952    -2.2229 H       
  35 H35            6.0578    -6.0619    -0.2125 H       
  36 H36            4.8846     1.6631     1.5971 H       
  37 H37            6.5949     1.2031     1.4197 H       
  38 H38            6.4732     1.6869    -1.0092 H       
  39 H39            4.7628     2.1469    -0.8319 H       
  40 H40           -1.4458    -0.6564     0.8189 H       
  41 H41           -0.6628    -1.4895     2.1831 H       
  42 H42           -1.4683     0.0767     2.4407 H       
@<TRIPOS>BOND
   1    1    2 ar
   2    1    6 ar
   3    2    3 ar
   4    2   23 1
   5    3    4 ar
   6    3   29 1
   7    4    5 ar
   8    4    7 1
   9    5    6 ar
  10    5   30 1
  11    6   31 1
  12    7   15 2
  13    7   18 1
  14    8    9 1
  15    8   16 1
  16    8   32 1
  17    9   10 ar
  18    9   14 ar
  19   10   11 ar
  20   10   33 1
  21   11   12 ar
  22   11   34 1
  23   12   13 ar
  24   12   24 1
  25   13   14 ar
  26   13   25 1
  27   14   35 1
  28   15   16 1
  29   16   17 2
  30   17   18 1
  31   18   19 1
  32   19   20 1
  33   19   36 1
  34   19   37 1
  35   20   21 1
  36   20   38 1
  37   20   39 1
  38   21   22 3
  39   23   40 1
  40   23   41 1
  41   23   42 1
  42   25   26 1
  43   25   27 1
  44   25   28 1

#	End of record

