#	Name: ASD03740203
#	Creating user name:	WinNT
#	Creation time:	15. 06. 2019 20:46

#	Modifying user name:	WinNT
#	Modification time:	15. 06. 2019 20:46

#	Program:	/corina/corina34_cracker 3.40 0067  02.08.2006

@<TRIPOS>MOLECULE
ASD03740203
  53   54    0    0    0
SMALL
NO_CHARGES


@<TRIPOS>ATOM
   1 Cl1            0.7451    -5.3018     0.9796 Cl      
   2 C2            -0.9881     2.6014    -0.2095 C.3     
   3 C3            -0.4079     1.1899    -0.1003 C.3     
   4 C4            -1.5466     0.1818     0.0666 C.3     
   5 N5            -2.3709     0.1684    -1.1492 N.3     
   6 C6            -3.5856    -0.6340    -0.9530 C.3     
   7 C7            -4.3234    -0.1456     0.2953 C.3     
   8 C8            -4.4963    -0.4876    -2.1736 C.3     
   9 C9            -3.8173    -1.0810    -3.3810 C.2     
  10 O10           -2.7136    -1.5726    -3.2756 O.2     
  11 N11           -4.4365    -1.0655    -4.5780 N.am    
  12 C12           -3.7764    -1.6423    -5.7518 C.3     
  13 C13           -4.6871    -1.4959    -6.9725 C.3     
  14 N14           -4.0252    -2.0744    -8.1494 N.3     
  15 C15           -0.9716    -1.1917     0.2988 C.ar    
  16 C16           -0.8019    -2.0583    -0.7649 C.ar    
  17 C17           -0.2747    -3.3193    -0.5558 C.ar    
  18 C18            0.0843    -3.7178     0.7186 C.ar    
  19 C19           -0.0845    -2.8507     1.7890 C.ar    
  20 O20            0.2680    -3.2398     3.0431 O.3     
  21 C21            1.5384    -2.9896     3.4552 C.ar    
  22 C22            1.9440    -3.3685     4.7270 C.ar    
  23 C23            3.2362    -3.1133     5.1432 C.ar    
  24 C24            4.1251    -2.4805     4.2940 C.ar    
  25 C25            3.7236    -2.1019     3.0262 C.ar    
  26 C26            2.4342    -2.3598     2.6029 C.ar    
  27 C27           -0.6087    -1.5823     1.5755 C.ar    
  28 F28           -0.7691    -0.7331     2.6139 F       
  29 H29           -0.1754     3.3272    -0.2368 H       
  30 H30           -1.5782     2.6820    -1.1225 H       
  31 H31           -1.6242     2.8004     0.6530 H       
  32 H32            0.1539     0.9570    -1.0049 H       
  33 H33            0.2551     1.1354     0.7632 H       
  34 H34           -2.1622     0.4670     0.9198 H       
  35 H35           -3.3125    -1.6817    -0.8269 H       
  36 H36           -4.4779     0.9313     0.2279 H       
  37 H37           -5.2884    -0.6474     0.3666 H       
  38 H38           -3.7294    -0.3727     1.1805 H       
  39 H39           -5.4352    -1.0104    -1.9912 H       
  40 H40           -4.6974     0.5686    -2.3524 H       
  41 H41           -5.3192    -0.6723    -4.6624 H       
  42 H42           -2.8375    -1.1195    -5.9342 H       
  43 H43           -3.5753    -2.6986    -5.5731 H       
  44 H44           -5.6260    -2.0187    -6.7901 H       
  45 H45           -4.8882    -0.4397    -7.1512 H       
  46 H46           -4.6071    -1.9900    -8.9694 H       
  47 H47           -1.0821    -1.7498    -1.7613 H       
  48 H48           -0.1434    -3.9939    -1.3889 H       
  49 H49            1.2498    -3.8621     5.3909 H       
  50 H50            3.5523    -3.4080     6.1330 H       
  51 H51            5.1348    -2.2813     4.6216 H       
  52 H52            4.4198    -1.6075     2.3649 H       
  53 H53            2.1224    -2.0679     1.6109 H       
@<TRIPOS>BOND
   1    1   18 1
   2    2    3 1
   3    2   29 1
   4    2   30 1
   5    2   31 1
   6    3    4 1
   7    3   32 1
   8    3   33 1
   9    4    5 1
  10    4   15 1
  11    4   34 1
  12    5    6 1
  13    6    7 1
  14    6    8 1
  15    6   35 1
  16    7   36 1
  17    7   37 1
  18    7   38 1
  19    8    9 1
  20    8   39 1
  21    8   40 1
  22    9   10 2
  23    9   11 am
  24   11   12 1
  25   11   41 1
  26   12   13 1
  27   12   42 1
  28   12   43 1
  29   13   14 1
  30   13   44 1
  31   13   45 1
  32   14   46 1
  33   15   16 ar
  34   15   27 ar
  35   16   17 ar
  36   16   47 1
  37   17   18 ar
  38   17   48 1
  39   18   19 ar
  40   19   20 1
  41   19   27 ar
  42   20   21 1
  43   21   22 ar
  44   21   26 ar
  45   22   23 ar
  46   22   49 1
  47   23   24 ar
  48   23   50 1
  49   24   25 ar
  50   24   51 1
  51   25   26 ar
  52   25   52 1
  53   26   53 1
  54   27   28 1

#	End of record

