#	Name: ASD03180027
#	Creating user name:	WinNT
#	Creation time:	15. 06. 2019 20:33

#	Modifying user name:	WinNT
#	Modification time:	15. 06. 2019 20:33

#	Program:	/corina/corina34_cracker 3.40 0067  02.08.2006

@<TRIPOS>MOLECULE
ASD03180027
  54   56    0    0    0
SMALL
NO_CHARGES


@<TRIPOS>ATOM
   1 C1             7.4414     3.6366     1.7861 C.ar    
   2 C2             7.2000     4.9756     2.0307 C.ar    
   3 C3             5.9923     5.5387     1.6629 C.ar    
   4 C4             5.0261     4.7629     1.0500 C.ar    
   5 C5             5.2678     3.4242     0.8046 C.ar    
   6 C6             6.4750     2.8608     1.1737 C.ar    
   7 S7             4.0358     2.4351     0.0245 S.o2    
   8 O8             2.7830     3.0140     0.3628 O.2     
   9 N9             4.2143     2.6291    -1.6104 N.am    
  10 O10            4.3688     1.0828     0.3068 O.2     
  11 C11            3.4093     3.6249    -2.3221 C.3     
  12 C12            5.1772     1.8048    -2.3451 C.3     
  13 C13            4.4593     0.6458    -2.9873 C.ar    
  14 C14            4.1917     4.9067    -2.4477 C.2     
  15 N15            3.6471     5.9704    -3.0708 N.am    
  16 C16            4.4089     7.1284    -3.2752 C.ar    
  17 O17            5.3117     4.9811    -1.9879 O.2     
  18 C18            4.0095     0.7478    -4.2904 C.ar    
  19 C19            3.3510    -0.3153    -4.8795 C.ar    
  20 C20            3.1427    -1.4806    -4.1656 C.ar    
  21 C21            3.5934    -1.5829    -2.8628 C.ar    
  22 C22            4.2557    -0.5214    -2.2752 C.ar    
  23 C23            4.2328     7.8811    -4.4286 C.ar    
  24 C24            4.9836     9.0225    -4.6292 C.ar    
  25 C25            5.9137     9.4172    -3.6787 C.ar    
  26 C26            6.0906     8.6654    -2.5263 C.ar    
  27 C27            5.3363     7.5269    -2.3218 C.ar    
  28 O28            6.6527    10.5412    -3.8768 O.3     
  29 C29            7.5916    10.8884    -2.8570 C.3     
  30 C30            8.2533     5.8213     2.6988 C.3     
  31 H31            8.3866     3.1978     2.0694 H       
  32 H32            5.8035     6.5846     1.8547 H       
  33 H33            4.0823     5.2027     0.7633 H       
  34 H34            6.6636     1.8147     0.9822 H       
  35 H35            3.1634     3.2505    -3.3158 H       
  36 H36            2.4902     3.8131    -1.7671 H       
  37 H37            5.6573     2.4072    -3.1162 H       
  38 H38            5.9327     1.4274    -1.6560 H       
  39 H39            2.7277     5.9343    -3.3779 H       
  40 H40            4.1722     1.6582    -4.8481 H       
  41 H41            2.9989    -0.2353    -5.8974 H       
  42 H42            2.6276    -2.3109    -4.6257 H       
  43 H43            3.4304    -2.4932    -2.3050 H       
  44 H44            4.6111    -0.6027    -1.2586 H       
  45 H45            3.5089     7.5737    -5.1688 H       
  46 H46            4.8469     9.6079    -5.5264 H       
  47 H47            6.8154     8.9728    -1.7870 H       
  48 H48            5.4707     6.9443    -1.4224 H       
  49 H49            7.0644    11.0466    -1.9163 H       
  50 H50            8.3136    10.0806    -2.7375 H       
  51 H51            8.1132    11.8030    -3.1395 H       
  52 H52            8.8990     6.2638     1.9403 H       
  53 H53            7.7729     6.6129     3.2738 H       
  54 H54            8.8500     5.1988     3.3656 H       
@<TRIPOS>BOND
   1    1    2 ar
   2    1    6 ar
   3    1   31 1
   4    2    3 ar
   5    2   30 1
   6    3    4 ar
   7    3   32 1
   8    4    5 ar
   9    4   33 1
  10    5    6 ar
  11    5    7 1
  12    6   34 1
  13    7    8 2
  14    7    9 am
  15    7   10 2
  16    9   11 1
  17    9   12 1
  18   11   14 1
  19   11   35 1
  20   11   36 1
  21   12   13 1
  22   12   37 1
  23   12   38 1
  24   13   18 ar
  25   13   22 ar
  26   14   15 am
  27   14   17 2
  28   15   16 1
  29   15   39 1
  30   16   23 ar
  31   16   27 ar
  32   18   19 ar
  33   18   40 1
  34   19   20 ar
  35   19   41 1
  36   20   21 ar
  37   20   42 1
  38   21   22 ar
  39   21   43 1
  40   22   44 1
  41   23   24 ar
  42   23   45 1
  43   24   25 ar
  44   24   46 1
  45   25   26 ar
  46   25   28 1
  47   26   27 ar
  48   26   47 1
  49   27   48 1
  50   28   29 1
  51   29   49 1
  52   29   50 1
  53   29   51 1
  54   30   52 1
  55   30   53 1
  56   30   54 1

#	End of record

