#	Name: ASD01410516
#	Creating user name:	WinNT
#	Creation time:	15. 06. 2019 19:18

#	Modifying user name:	WinNT
#	Modification time:	15. 06. 2019 19:18

#	Program:	/corina/corina34_cracker 3.40 0067  02.08.2006

@<TRIPOS>MOLECULE
ASD01410516
  73   76    0    0    0
SMALL
NO_CHARGES


@<TRIPOS>ATOM
   1 C1             1.4184     3.5054    -1.7735 C.ar    
   2 C2             2.0114     3.2019    -2.9911 C.ar    
   3 C3             3.1621     2.4385    -3.0106 C.ar    
   4 N4             3.7001     1.9976    -1.8897 N.ar    
   5 C5             3.1644     2.2659    -0.7100 C.ar    
   6 C6             2.0071     3.0280    -0.6153 C.ar    
   7 O7             3.7511     1.7920     0.4177 O.3     
   8 C8             4.8221     0.9649     0.2811 C.ar    
   9 C9             6.0848     1.4988     0.0364 C.ar    
  10 C10            7.1796     0.6662    -0.1039 C.ar    
  11 C11            7.0258    -0.7088    -0.0019 C.ar    
  12 C12            5.7549    -1.2523     0.2447 C.ar    
  13 C13            4.6549    -0.4019     0.3912 C.ar    
  14 F14            6.2407     2.8370    -0.0648 F       
  15 N15            8.1287    -1.5476    -0.1442 N.am    
  16 C16            8.8016    -1.9668     0.9457 C.2     
  17 C17            8.5573    -1.9742    -1.4786 C.3     
  18 O18            9.8045    -2.6414     0.8186 O.2     
  19 C19            8.3191    -1.6055     2.2980 C.ar    
  20 N20            7.1653    -0.9628     2.4351 N.ar    
  21 C21            6.7007    -0.6235     3.6171 C.ar    
  22 C22            7.4053    -0.9275     4.7733 C.ar    
  23 C23            8.6156    -1.5984     4.6749 C.ar    
  24 C24            9.0769    -1.9479     3.4160 C.ar    
  25 C25            1.4058     3.6996    -4.2782 C.3     
  26 C26            7.4911    -1.5860    -2.5050 C.3     
  27 C27            9.8792    -1.2900    -1.8327 C.3     
  28 Cl28           6.7789    -0.4722     6.3271 Cl      
  29 C29            5.2351    -2.0481    -3.1700 C.3     
  30 O30            6.2998    -2.3366    -2.2615 O.3     
  31 O31           10.9107    -1.7705    -0.9683 O.3     
  32 C32            1.9885     5.0468    -4.6196 C.ar    
  33 C33            2.5834     5.2411    -5.8515 C.ar    
  34 N34            1.9198     6.0282    -3.7412 N.ar    
  35 C35            2.4154     7.2231    -3.9965 C.ar    
  36 C36            3.0297     7.4902    -5.2056 C.ar    
  37 C37            3.1161     6.4847    -6.1560 C.ar    
  38 C38            2.3103     8.3103    -2.9582 C.3     
  39 C39           12.1934    -1.1915    -1.2163 C.3     
  40 C40            5.5825    -2.7105     0.3545 C.2     
  41 O41            6.5531    -3.4412     0.3240 O.2     
  42 O42            4.3482    -3.2349     0.4888 O.3     
  43 C43            1.4005     3.3311     0.7305 C.3     
  44 F44            0.2501     4.1085     0.5591 F       
  45 F45            1.0630     2.1336     1.3703 F       
  46 F46            2.3252     4.0326     1.5116 F       
  47 H47            0.5207     4.1043    -1.7304 H       
  48 H48            3.6272     2.1993    -3.9555 H       
  49 H49            8.1560     1.0868    -0.2935 H       
  50 H50            3.6746    -0.8133     0.5814 H       
  51 H51            8.6939    -3.0556    -1.4879 H       
  52 H52            5.7583    -0.1010     3.6893 H       
  53 H53            9.1831    -1.8466     5.5597 H       
  54 H54           10.0150    -2.4709     3.3023 H       
  55 H55            1.6261     2.9947    -5.0798 H       
  56 H56            0.3259     3.7900    -4.1605 H       
  57 H57            7.2739    -0.5214    -2.4183 H       
  58 H58            7.8575    -1.8015    -3.5087 H       
  59 H59           10.1385    -1.5142    -2.8674 H       
  60 H60            9.7748    -0.2121    -1.7096 H       
  61 H61            5.5547    -2.2732    -4.1875 H       
  62 H62            4.3675    -2.6580    -2.9183 H       
  63 H63            4.9711    -0.9931    -3.0971 H       
  64 H64            2.6332     4.4346    -6.5681 H       
  65 H65            3.4337     8.4709    -5.4088 H       
  66 H66            3.5908     6.6644    -7.1093 H       
  67 H67            3.1882     8.2823    -2.3127 H       
  68 H68            2.2534     9.2802    -3.4523 H       
  69 H69            1.4134     8.1547    -2.3587 H       
  70 H70           12.9209    -1.6079    -0.5195 H       
  71 H71           12.5008    -1.4136    -2.2383 H       
  72 H72           12.1370    -0.1115    -1.0805 H       
  73 H73            4.2852    -4.1975     0.5572 H       
@<TRIPOS>BOND
   1    1    2 ar
   2    1    6 ar
   3    1   47 1
   4    2    3 ar
   5    2   25 1
   6    3    4 ar
   7    3   48 1
   8    4    5 ar
   9    5    6 ar
  10    5    7 1
  11    6   43 1
  12    7    8 1
  13    8    9 ar
  14    8   13 ar
  15    9   10 ar
  16    9   14 1
  17   10   11 ar
  18   10   49 1
  19   11   12 ar
  20   11   15 1
  21   12   13 ar
  22   12   40 1
  23   13   50 1
  24   15   16 am
  25   15   17 1
  26   16   18 2
  27   16   19 1
  28   17   27 1
  29   17   26 1
  30   17   51 1
  31   19   20 ar
  32   19   24 ar
  33   20   21 ar
  34   21   22 ar
  35   21   52 1
  36   22   23 ar
  37   22   28 1
  38   23   24 ar
  39   23   53 1
  40   24   54 1
  41   25   32 1
  42   25   55 1
  43   25   56 1
  44   26   30 1
  45   26   57 1
  46   26   58 1
  47   27   31 1
  48   27   59 1
  49   27   60 1
  50   29   30 1
  51   29   61 1
  52   29   62 1
  53   29   63 1
  54   31   39 1
  55   32   33 ar
  56   32   34 ar
  57   33   37 ar
  58   33   64 1
  59   34   35 ar
  60   35   36 ar
  61   35   38 1
  62   36   37 ar
  63   36   65 1
  64   37   66 1
  65   38   67 1
  66   38   68 1
  67   38   69 1
  68   39   70 1
  69   39   71 1
  70   39   72 1
  71   40   41 2
  72   40   42 1
  73   42   73 1
  74   43   44 1
  75   43   45 1
  76   43   46 1

#	End of record

