#	Name: ASD01910870
#	Creating user name:	WinNT
#	Creation time:	15. 06. 2019 19:56

#	Modifying user name:	WinNT
#	Modification time:	15. 06. 2019 19:56

#	Program:	/corina/corina34_cracker 3.40 0067  02.08.2006

@<TRIPOS>MOLECULE
ASD01910870
  53   56    0    0    0
SMALL
NO_CHARGES


@<TRIPOS>ATOM
   1 C1             0.0754     1.7558    -0.3711 C.ar    
   2 C2             0.0178     0.3712    -0.3972 C.ar    
   3 N3             1.1432    -0.3224    -0.3514 N.ar    
   4 C4             2.3150     0.2920    -0.2813 C.ar    
   5 N5             2.4047     1.6137    -0.2546 N.ar    
   6 C6             1.3177     2.3661    -0.2975 C.ar    
   7 N7             3.4729    -0.4648    -0.2344 N.3     
   8 C8             4.6614     0.3954    -0.1595 C.3     
   9 C9             5.9025    -0.4729     0.0727 C.3     
  10 N10            5.9495    -1.5091    -0.9701 N.am    
  11 C11            4.7452    -2.3222    -1.1980 C.3     
  12 C12            3.5497    -1.3810    -1.3801 C.3     
  13 C13            7.0665    -1.7084    -1.6974 C.2     
  14 C14            7.1353    -2.8346    -2.6532 C.ar    
  15 C15            7.7574    -2.6640    -3.8920 C.ar    
  16 C16            7.8229    -3.7143    -4.7865 C.ar    
  17 C17            7.2751    -4.9393    -4.4641 C.ar    
  18 C18            6.6488    -5.1246    -3.2275 C.ar    
  19 C19            6.5849    -4.0696    -2.3175 C.ar    
  20 C20            6.0802    -6.3959    -2.8940 C.1     
  21 O21            8.0174    -0.9625    -1.5676 O.2     
  22 C22            5.6140    -7.4381    -2.6206 C.1     
  23 C23            5.0454    -8.7093    -2.2871 C.ar    
  24 C24            4.4174    -8.9056    -1.0547 C.ar    
  25 N25            3.8948   -10.0750    -0.7488 N.ar    
  26 C26            3.9406   -11.0979    -1.5805 C.ar    
  27 C27            4.5451   -10.9852    -2.8201 C.ar    
  28 C28            5.1042    -9.7766    -3.1937 C.ar    
  29 C29           -1.3108    -0.3355    -0.4764 C.3     
  30 C30            1.4286     3.8687    -0.2672 C.3     
  31 H31           -0.8279     2.3464    -0.4117 H       
  32 H32            4.7719     0.9454    -1.0940 H       
  33 H33            4.5499     1.0986     0.6659 H       
  34 H34            6.7981     0.1456     0.0149 H       
  35 H35            5.8418    -0.9435     1.0540 H       
  36 H36            4.8758    -2.9263    -2.0958 H       
  37 H37            4.5733    -2.9706    -0.3388 H       
  38 H38            2.6320    -1.9662    -1.4400 H       
  39 H39            3.6757    -0.8063    -2.2977 H       
  40 H40            8.1879    -1.7081    -4.1512 H       
  41 H41            8.3049    -3.5762    -5.7431 H       
  42 H42            7.3299    -5.7564    -5.1682 H       
  43 H43            6.1025    -4.2066    -1.3610 H       
  44 H44            4.3603    -8.0918    -0.3470 H       
  45 H45            3.4991   -12.0394    -1.2888 H       
  46 H46            4.5759   -11.8311    -3.4908 H       
  47 H47            5.5822    -9.6609    -4.1553 H       
  48 H48           -1.5792    -0.4887    -1.5216 H       
  49 H49           -1.2396    -1.3004     0.0256 H       
  50 H50           -2.0747     0.2715     0.0097 H       
  51 H51            1.5075     4.2478    -1.2860 H       
  52 H52            0.5429     4.2889     0.2093 H       
  53 H53            2.3157     4.1562     0.2972 H       
@<TRIPOS>BOND
   1    1    2 ar
   2    1    6 ar
   3    1   31 1
   4    2    3 ar
   5    2   29 1
   6    3    4 ar
   7    4    5 ar
   8    4    7 1
   9    5    6 ar
  10    6   30 1
  11    7    8 1
  12    7   12 1
  13    8    9 1
  14    8   32 1
  15    8   33 1
  16    9   10 1
  17    9   34 1
  18    9   35 1
  19   10   11 1
  20   10   13 am
  21   11   12 1
  22   11   36 1
  23   11   37 1
  24   12   38 1
  25   12   39 1
  26   13   14 1
  27   13   21 2
  28   14   15 ar
  29   14   19 ar
  30   15   16 ar
  31   15   40 1
  32   16   17 ar
  33   16   41 1
  34   17   18 ar
  35   17   42 1
  36   18   19 ar
  37   18   20 1
  38   19   43 1
  39   20   22 3
  40   22   23 1
  41   23   24 ar
  42   23   28 ar
  43   24   25 ar
  44   24   44 1
  45   25   26 ar
  46   26   27 ar
  47   26   45 1
  48   27   28 ar
  49   27   46 1
  50   28   47 1
  51   29   48 1
  52   29   49 1
  53   29   50 1
  54   30   51 1
  55   30   52 1
  56   30   53 1

#	End of record

