#	Name: ASD08070147
#	Creating user name:	WinNT
#	Creation time:	15. 06. 2019 21:14

#	Modifying user name:	WinNT
#	Modification time:	15. 06. 2019 21:14

#	Program:	/corina/corina34_cracker 3.40 0067  02.08.2006

@<TRIPOS>MOLECULE
ASD08070147
  41   43    0    0    0
SMALL
NO_CHARGES


@<TRIPOS>ATOM
   1 C1            -0.0167     1.3808     0.0096 C.ar    
   2 C2             0.0021    -0.0041     0.0020 C.ar    
   3 C3             1.2035    -0.6865    -0.0126 C.ar    
   4 C4             2.4012     0.0145    -0.0203 C.ar    
   5 C5             2.3854     1.4157    -0.0131 C.ar    
   6 C6             1.1635     2.0925     0.0022 C.ar    
   7 O7             3.5819    -0.6538    -0.0342 O.3     
   8 N8             3.6327     3.5195    -0.0136 N.am    
   9 C9             3.6522     2.1719    -0.0206 C.2     
  10 C10            5.2614     3.3248    -2.2826 C.ar    
  11 C11            5.3680     4.4257    -1.4415 C.ar    
  12 C12            4.8906     4.2704    -0.0211 C.3     
  13 C13            5.6862     3.3977    -3.5918 C.ar    
  14 C14            6.2273     4.5808    -4.0744 C.ar    
  15 C15            6.3323     5.6778    -3.2367 C.ar    
  16 C16            5.8996     5.6026    -1.9197 C.ar    
  17 C17            6.0289     6.8387    -1.0684 C.3     
  18 C18            5.9262     6.4838     0.4135 C.3     
  19 C19            4.6651     5.6371     0.6221 C.3     
  20 O20            4.7139     1.5794    -0.0331 O.2     
  21 Cl21           1.2147    -2.4225    -0.0209 Cl      
  22 O22            6.6525     4.6620    -5.3626 O.3     
  23 C23            6.5126     3.4893    -6.1671 C.3     
  24 H24           -0.9607     1.9055     0.0169 H       
  25 H25           -0.9276    -0.5537     0.0079 H       
  26 H26            1.1437     3.1723     0.0075 H       
  27 H27            3.9161    -0.8433    -0.9216 H       
  28 H28            2.7857     3.9922    -0.0037 H       
  29 H29            4.8460     2.4019    -1.9057 H       
  30 H30            5.6392     3.7232     0.5519 H       
  31 H31            5.5986     2.5376    -4.2391 H       
  32 H32            6.7543     6.5990    -3.6103 H       
  33 H33            6.9942     7.3074    -1.2596 H       
  34 H34            5.2333     7.5376    -1.3264 H       
  35 H35            6.8049     5.9142     0.7163 H       
  36 H36            5.8578     7.3963     1.0056 H       
  37 H37            3.8121     6.1274     0.1530 H       
  38 H38            4.4777     5.5144     1.6889 H       
  39 H39            5.4604     3.2103    -6.2230 H       
  40 H40            6.8891     3.6897    -7.1702 H       
  41 H41            7.0817     2.6732    -5.7218 H       
@<TRIPOS>BOND
   1    1    2 ar
   2    1    6 ar
   3    1   24 1
   4    2    3 ar
   5    2   25 1
   6    3    4 ar
   7    3   21 1
   8    4    5 ar
   9    4    7 1
  10    5    6 ar
  11    5    9 1
  12    6   26 1
  13    7   27 1
  14    8    9 am
  15    8   12 1
  16    8   28 1
  17    9   20 2
  18   10   11 ar
  19   10   13 ar
  20   10   29 1
  21   11   12 1
  22   11   16 ar
  23   12   19 1
  24   12   30 1
  25   13   14 ar
  26   13   31 1
  27   14   15 ar
  28   14   22 1
  29   15   16 ar
  30   15   32 1
  31   16   17 1
  32   17   18 1
  33   17   33 1
  34   17   34 1
  35   18   19 1
  36   18   35 1
  37   18   36 1
  38   19   37 1
  39   19   38 1
  40   22   23 1
  41   23   39 1
  42   23   40 1
  43   23   41 1

#	End of record

