#	Name: ASD01840116
#	Creating user name:	WinNT
#	Creation time:	15. 06. 2019 19:37

#	Modifying user name:	WinNT
#	Modification time:	15. 06. 2019 19:37

#	Program:	/corina/corina34_cracker 3.40 0067  02.08.2006

@<TRIPOS>MOLECULE
ASD01840116
  29   31    0    0    0
SMALL
NO_CHARGES


@<TRIPOS>ATOM
   1 N1            -0.2324     1.3184     0.4270 N.3     
   2 C2            -0.2539    -0.1339     0.6938 C.3     
   3 C3             0.8784    -0.4869     1.6602 C.3     
   4 C4             0.7677     0.3593     2.9319 C.3     
   5 C5             0.7132     1.8444     2.5276 C.3     
   6 C6             1.8244     2.0689     1.4707 C.3     
   7 C7             1.1587     1.7306     0.1232 C.3     
   8 C8            -0.5813     2.0252     1.6892 C.3     
   9 O9             2.2564     3.4309     1.4844 O.3     
  10 N10            4.5929    -0.3312     1.4815 N.pl3   
  11 N11            3.5514     0.3587     0.8478 N.2     
  12 C12            2.9874     1.1456     1.7279 C.2     
  13 C13            3.6506     0.9823     2.9485 C.2     
  14 C14            4.6330     0.0691     2.7696 C.2     
  15 H15           -1.2106    -0.4080     1.1384 H       
  16 H16           -0.1173    -0.6776    -0.2410 H       
  17 H17            0.8140    -1.5430     1.9220 H       
  18 H18            1.8373    -0.2933     1.1796 H       
  19 H19           -0.1415     0.0930     3.4710 H       
  20 H20            1.6372     0.1839     3.5654 H       
  21 H21            0.7872     2.5212     3.3789 H       
  22 H22            1.6924     0.9134    -0.3619 H       
  23 H23            1.1550     2.6092    -0.5220 H       
  24 H24           -0.7802     3.0805     1.5024 H       
  25 H25           -1.4318     1.5508     2.1788 H       
  26 H26            2.9518     3.6295     0.8424 H       
  27 H27            5.1791    -0.9844     1.0684 H       
  28 H28            3.4192     1.4943     3.8708 H       
  29 H29            5.3252    -0.2773     3.5228 H       
@<TRIPOS>BOND
   1    1    2 1
   2    1    7 1
   3    1    8 1
   4    2    3 1
   5    2   15 1
   6    2   16 1
   7    3    4 1
   8    3   17 1
   9    3   18 1
  10    4    5 1
  11    4   19 1
  12    4   20 1
  13    5    6 1
  14    5    8 1
  15    5   21 1
  16    6    7 1
  17    6    9 1
  18    6   12 1
  19    7   22 1
  20    7   23 1
  21    8   24 1
  22    8   25 1
  23    9   26 1
  24   10   11 1
  25   10   14 1
  26   10   27 1
  27   11   12 2
  28   12   13 1
  29   13   14 2
  30   13   28 1
  31   14   29 1

#	End of record

