#	Name: ASD01208679
#	Creating user name:	WinNT
#	Creation time:	15. 06. 2019 19:10

#	Modifying user name:	WinNT
#	Modification time:	15. 06. 2019 19:10

#	Program:	/corina/corina34_cracker 3.40 0067  02.08.2006

@<TRIPOS>MOLECULE
ASD01208679
  58   61    0    0    0
SMALL
NO_CHARGES


@<TRIPOS>ATOM
   1 C1            -0.2606     1.7846     0.5497 C.2     
   2 C2            -0.2287     0.3242     0.3231 C.ar    
   3 C3             0.9397    -0.2878    -0.1329 C.ar    
   4 C4             0.9653    -1.6563    -0.3439 C.ar    
   5 C5            -0.1686    -2.4188    -0.1031 C.ar    
   6 C6            -1.3323    -1.8146     0.3503 C.ar    
   7 C7            -1.3648    -0.4469     0.5700 C.ar    
   8 O8             0.7317     2.4542     0.3388 O.2     
   9 N9            -1.3917     2.3745     0.9847 N.am    
  10 S10           -2.7833     4.6231     1.7461 S.3     
  11 C11           -1.4217     3.7467     1.1976 C.2     
  12 N12           -0.4210     4.5494     1.0098 N.2     
  13 C13           -0.6256     5.8285     1.2628 C.2     
  14 C14           -1.8575     6.1207     1.6845 C.2     
  15 O15           -2.4402    -2.5659     0.5842 O.3     
  16 C16           -3.4383    -2.5339    -0.3364 C.ar    
  17 C17           -4.6098    -3.2464    -0.1132 C.ar    
  18 C18           -5.6247    -3.2165    -1.0449 C.ar    
  19 C19           -5.4746    -2.4684    -2.2143 C.ar    
  20 C20           -4.2958    -1.7532    -2.4349 C.ar    
  21 C21           -3.2873    -1.7843    -1.4962 C.ar    
  22 O22           -6.5511    -1.7581    -4.3825 O.3     
  23 C23           -6.5603    -2.4341    -3.2161 C.2     
  24 N24           -7.7136    -3.0561    -3.1363 N.2     
  25 N25           -8.4085    -2.7979    -4.1879 N.2     
  26 C26           -7.7325    -2.0078    -4.9740 C.2     
  27 C27           -8.1921    -1.4711    -6.3051 C.3     
  28 C28           -8.4756    -2.6369    -7.2546 C.3     
  29 C29           -9.4682    -0.6497    -6.1107 C.3     
  30 O30            2.1027    -2.2532    -0.7879 O.3     
  31 C31            3.1083    -4.0013    -2.1195 C.3     
  32 C32            2.0258    -3.6459    -1.0985 C.3     
  33 C33            2.2382    -4.4652     0.1761 C.3     
  34 C34            2.8354    -3.3041    -3.3869 C.1     
  35 N35            2.6247    -2.7660    -4.3649 N.1     
  36 H36            1.8226     0.3050    -0.3213 H       
  37 H37           -0.1453    -3.4857    -0.2693 H       
  38 H38           -2.2697     0.0221     0.9271 H       
  39 H39           -2.1847     1.8408     1.1492 H       
  40 H40            0.1420     6.5781     1.1386 H       
  41 H41           -2.2231     7.1035     1.9430 H       
  42 H42           -4.7251    -3.8248     0.7915 H       
  43 H43           -6.5349    -3.7712    -0.8710 H       
  44 H44           -4.1759    -1.1738    -3.3383 H       
  45 H45           -2.3768    -1.2283    -1.6643 H       
  46 H46           -7.4134    -0.8376    -6.7299 H       
  47 H47           -7.5665    -3.2221    -7.3930 H       
  48 H48           -9.2543    -3.2704    -6.8298 H       
  49 H49           -8.8080    -2.2487    -8.2173 H       
  50 H50           -9.2662     0.1808    -5.4343 H       
  51 H51           -9.8006    -0.2616    -7.0735 H       
  52 H52          -10.2469    -1.2832    -5.6859 H       
  53 H53            4.0822    -3.6942    -1.7383 H       
  54 H54            3.1078    -5.0780    -2.2898 H       
  55 H55            1.0445    -3.8714    -1.5160 H       
  56 H56            2.1795    -5.5275    -0.0608 H       
  57 H57            3.2195    -4.2397     0.5936 H       
  58 H58            1.4670    -4.2120     0.9036 H       
@<TRIPOS>BOND
   1    1    2 1
   2    1    8 2
   3    1    9 am
   4    2    3 ar
   5    2    7 ar
   6    3    4 ar
   7    3   36 1
   8    4    5 ar
   9    4   30 1
  10    5    6 ar
  11    5   37 1
  12    6    7 ar
  13    6   15 1
  14    7   38 1
  15    9   11 1
  16    9   39 1
  17   10   11 1
  18   10   14 1
  19   11   12 2
  20   12   13 1
  21   13   14 2
  22   13   40 1
  23   14   41 1
  24   15   16 1
  25   16   17 ar
  26   16   21 ar
  27   17   18 ar
  28   17   42 1
  29   18   19 ar
  30   18   43 1
  31   19   20 ar
  32   19   23 1
  33   20   21 ar
  34   20   44 1
  35   21   45 1
  36   22   23 1
  37   22   26 1
  38   23   24 2
  39   24   25 1
  40   25   26 2
  41   26   27 1
  42   27   28 1
  43   27   29 1
  44   27   46 1
  45   28   47 1
  46   28   48 1
  47   28   49 1
  48   29   50 1
  49   29   51 1
  50   29   52 1
  51   30   32 1
  52   31   32 1
  53   31   34 1
  54   31   53 1
  55   31   54 1
  56   32   33 1
  57   32   55 1
  58   33   56 1
  59   33   57 1
  60   33   58 1
  61   34   35 3

#	End of record

