#	Name: ASD05940092
#	Creating user name:	WinNT
#	Creation time:	15. 06. 2019 21:04

#	Modifying user name:	WinNT
#	Modification time:	15. 06. 2019 21:04

#	Program:	/corina/corina34_cracker 3.40 0067  02.08.2006

@<TRIPOS>MOLECULE
ASD05940092
  68   71    0    0    0
SMALL
NO_CHARGES


@<TRIPOS>ATOM
   1 N1             5.9647     1.3931     2.4539 N.ar    
   2 C2             5.2564     0.3757     2.9141 C.ar    
   3 N3             4.4481    -0.3284     2.1375 N.ar    
   4 C4             4.3205    -0.0305     0.8477 C.ar    
   5 C5             5.0401     1.0451     0.3293 C.ar    
   6 C6             5.8847     1.7585     1.1741 C.ar    
   7 N7             6.6281     2.8286     0.6946 N.pl3   
   8 O8             5.3619     0.0427     4.2235 O.3     
   9 C9             6.2463     0.8297     5.0239 C.3     
  10 C10            6.2331     0.3079     6.4621 C.3     
  11 N11            3.5076    -0.7821     0.0173 N.3     
  12 C12            2.2328    -0.1168    -0.2679 C.3     
  13 C13            2.4592     1.3585    -0.5857 C.3     
  14 C14            3.6341     1.5246    -1.5121 C.2     
  15 N15            4.8873     1.3995    -1.0223 N.am    
  16 O16            3.4575     1.7682    -2.6873 O.2     
  17 C17            3.2884    -2.1253     0.5702 C.3     
  18 C18            2.3236    -2.8790    -0.3086 C.ar    
  19 C19            2.7844    -3.5440    -1.4292 C.ar    
  20 C20            1.8992    -4.2354    -2.2354 C.ar    
  21 C21            0.5537    -4.2618    -1.9206 C.ar    
  22 C22            0.0929    -3.5973    -0.7992 C.ar    
  23 C23            0.9784    -2.9098     0.0092 C.ar    
  24 C24            7.1800     1.1505     7.3190 C.3     
  25 C25            7.1668     0.6288     8.7572 C.3     
  26 N26           -1.6508    -4.7734     0.4113 N.am    
  27 C27           -1.5711    -4.6408     1.7502 C.2     
  28 C28           -1.3743    -3.6257    -0.4562 C.3     
  29 C29           -2.0140    -6.0652    -0.1765 C.3     
  30 C30           -3.5337    -6.1443    -0.3349 C.3     
  31 C31           -4.1073    -7.3738    -1.0421 C.3     
  32 C32           -4.2732    -7.2145     0.4705 C.3     
  33 C33           -1.8556    -5.8213     2.6426 C.3     
  34 O34           -1.2705    -3.5713     2.2368 O.2     
  35 H35            6.5618     3.0859    -0.2383 H       
  36 H36            7.2137     3.3189     1.2925 H       
  37 H37            7.2573     0.7619     4.6221 H       
  38 H38            5.9194     1.8694     5.0115 H       
  39 H39            5.2221     0.3757     6.8639 H       
  40 H40            6.5601    -0.7318     6.4745 H       
  41 H41            1.7580    -0.6000    -1.1218 H       
  42 H42            1.5805    -0.2016     0.6013 H       
  43 H43            1.5664     1.7652    -1.0607 H       
  44 H44            2.6518     1.9005     0.3402 H       
  45 H45            5.6606     1.5505    -1.5882 H       
  46 H46            4.2370    -2.6607     0.6110 H       
  47 H47            2.8750    -2.0415     1.5752 H       
  48 H48            3.8358    -3.5234    -1.6752 H       
  49 H49            2.2591    -4.7545    -3.1114 H       
  50 H50           -0.1379    -4.8013    -2.5508 H       
  51 H51            0.6185    -2.3906     0.8852 H       
  52 H52            8.1910     1.0828     6.9172 H       
  53 H53            6.8531     2.1903     7.3067 H       
  54 H54            7.4938    -0.4109     8.7696 H       
  55 H55            7.8414     1.2291     9.3677 H       
  56 H56            6.1558     0.6966     9.1590 H       
  57 H57           -1.6442    -2.7054     0.0617 H       
  58 H58           -1.9598    -3.7127    -1.3715 H       
  59 H59           -1.5412    -6.1657    -1.1534 H       
  60 H60           -1.6744    -6.8696     0.4760 H       
  61 H61           -4.0403    -5.1918    -0.4910 H       
  62 H62           -4.9914    -7.2303    -1.6633 H       
  63 H63           -3.4019    -8.1263    -1.3946 H       
  64 H64           -3.6771    -7.8623     1.1131 H       
  65 H65           -5.2665    -6.9663     0.8444 H       
  66 H66           -0.9316    -6.3701     2.8248 H       
  67 H67           -2.2627    -5.4703     3.5908 H       
  68 H68           -2.5783    -6.4776     2.1576 H       
@<TRIPOS>BOND
   1    1    2 ar
   2    1    6 ar
   3    2    3 ar
   4    2    8 1
   5    3    4 ar
   6    4    5 ar
   7    4   11 1
   8    5    6 ar
   9    5   15 1
  10    6    7 1
  11    7   35 1
  12    7   36 1
  13    8    9 1
  14    9   10 1
  15    9   37 1
  16    9   38 1
  17   10   24 1
  18   10   39 1
  19   10   40 1
  20   11   12 1
  21   11   17 1
  22   12   13 1
  23   12   41 1
  24   12   42 1
  25   13   14 1
  26   13   43 1
  27   13   44 1
  28   14   15 am
  29   14   16 2
  30   15   45 1
  31   17   18 1
  32   17   46 1
  33   17   47 1
  34   18   19 ar
  35   18   23 ar
  36   19   20 ar
  37   19   48 1
  38   20   21 ar
  39   20   49 1
  40   21   22 ar
  41   21   50 1
  42   22   23 ar
  43   22   28 1
  44   23   51 1
  45   24   25 1
  46   24   52 1
  47   24   53 1
  48   25   54 1
  49   25   55 1
  50   25   56 1
  51   26   27 am
  52   26   28 1
  53   26   29 1
  54   27   33 1
  55   27   34 2
  56   28   57 1
  57   28   58 1
  58   29   30 1
  59   29   59 1
  60   29   60 1
  61   30   31 1
  62   30   32 1
  63   30   61 1
  64   31   32 1
  65   31   62 1
  66   31   63 1
  67   32   64 1
  68   32   65 1
  69   33   66 1
  70   33   67 1
  71   33   68 1

#	End of record

