#	Name: ASD01900821
#	Creating user name:	WinNT
#	Creation time:	15. 06. 2019 19:52

#	Modifying user name:	WinNT
#	Modification time:	15. 06. 2019 19:52

#	Program:	/corina/corina34_cracker 3.40 0067  02.08.2006

@<TRIPOS>MOLECULE
ASD01900821
  42   44    0    0    0
SMALL
NO_CHARGES


@<TRIPOS>ATOM
   1 N1             0.5007     1.4839    -0.2424 N.am    
   2 C2             0.8333     0.1309    -0.3793 C.ar    
   3 C3             2.4792    -1.5754    -0.7445 C.ar    
   4 C4             2.1512    -0.2405    -0.6100 C.ar    
   5 C5            -0.1541    -0.8408    -0.2785 C.ar    
   6 C6             0.1751    -2.1756    -0.4132 C.ar    
   7 C7             1.4927    -2.5454    -0.6492 C.ar    
   8 Cl8           -1.0582    -3.3908    -0.2868 Cl      
   9 C9             1.1282     2.4112    -0.9926 C.2     
  10 C10            0.7047     3.8246    -0.9264 C.ar    
  11 O11            2.0428     2.0843    -1.7240 O.2     
  12 C12            1.2756     4.7643    -1.7954 C.ar    
  13 C13            0.8612     6.0943    -1.7159 C.ar    
  14 C14           -0.0989     6.4296    -0.7793 C.ar    
  15 C15           -0.6193     5.4444     0.0481 C.ar    
  16 N16           -0.2190     4.1967    -0.0469 N.ar    
  17 N17            2.2376     4.3785    -2.7196 N.pl3   
  18 O18            1.8165    -3.8595    -0.7821 O.3     
  19 C19            1.6201    -4.4439    -1.9882 C.ar    
  20 N20            1.0423    -3.7498    -2.9555 N.ar    
  21 N21            2.0155    -5.6934    -2.1722 N.ar    
  22 C22            1.8394    -6.2941    -3.3376 C.ar    
  23 C23            1.2328    -5.5984    -4.3715 C.ar    
  24 C24            0.8358    -4.2899    -4.1454 C.ar    
  25 C25            1.0151    -6.2483    -5.7137 C.3     
  26 C26           -0.3487    -6.9416    -5.7294 C.3     
  27 H27           -0.1841     1.7535     0.3894 H       
  28 H28            3.5043    -1.8639    -0.9243 H       
  29 H29            2.9198     0.5146    -0.6847 H       
  30 H30           -1.1786    -0.5529    -0.0946 H       
  31 H31            1.2807     6.8441    -2.3703 H       
  32 H32           -0.4411     7.4502    -0.6920 H       
  33 H33           -1.3690     5.7071     0.7797 H       
  34 H34            2.4309     3.4375    -2.8543 H       
  35 H35            2.7164     5.0499    -3.2304 H       
  36 H36            2.1646    -7.3139    -3.4817 H       
  37 H37            0.3638    -3.7182    -4.9308 H       
  38 H38            1.0454    -5.4884    -6.4945 H       
  39 H39            1.7990    -6.9844    -5.8923 H       
  40 H40           -0.5061    -7.4117    -6.7002 H       
  41 H41           -0.3790    -7.7015    -4.9486 H       
  42 H42           -1.1325    -6.2056    -5.5508 H       
@<TRIPOS>BOND
   1    1    2 1
   2    1    9 am
   3    1   27 1
   4    2    5 ar
   5    2    4 ar
   6    3    4 ar
   7    3    7 ar
   8    3   28 1
   9    4   29 1
  10    5    6 ar
  11    5   30 1
  12    6    7 ar
  13    6    8 1
  14    7   18 1
  15    9   10 1
  16    9   11 2
  17   10   12 ar
  18   10   16 ar
  19   12   13 ar
  20   12   17 1
  21   13   14 ar
  22   13   31 1
  23   14   15 ar
  24   14   32 1
  25   15   16 ar
  26   15   33 1
  27   17   34 1
  28   17   35 1
  29   18   19 1
  30   19   21 ar
  31   19   20 ar
  32   20   24 ar
  33   21   22 ar
  34   22   23 ar
  35   22   36 1
  36   23   24 ar
  37   23   25 1
  38   24   37 1
  39   25   26 1
  40   25   38 1
  41   25   39 1
  42   26   40 1
  43   26   41 1
  44   26   42 1

#	End of record

