#	Name: ASD00069406
#	Creating user name:	WinNT
#	Creation time:	15. 06. 2019 18:29

#	Modifying user name:	WinNT
#	Modification time:	15. 06. 2019 18:29

#	Program:	/corina/corina34_cracker 3.40 0067  02.08.2006

@<TRIPOS>MOLECULE
ASD00069406
  81   84    0    0    0
SMALL
NO_CHARGES


@<TRIPOS>ATOM
   1 C1             0.0276     1.2658     0.9152 C.2     
   2 C2             0.0337    -0.0365     0.5358 C.2     
   3 C3             2.0939     0.6042     0.5999 C.2     
   4 N4             1.2970    -0.4136     0.3510 N.2     
   5 Br5           -1.4921    -1.1302     0.3086 Br      
   6 C6             3.5644     0.5911     0.5081 C.2     
   7 O7             4.1986     1.5973     0.7629 O.2     
   8 N8             4.2068    -0.5357     0.1417 N.am    
   9 C9             5.5929    -0.5183    -0.0573 C.ar    
  10 C10            6.3144    -1.7109    -0.0531 C.ar    
  11 C11            6.2509     0.6857    -0.2648 C.ar    
  12 C12            7.6187     0.7016    -0.4610 C.ar    
  13 C13            8.3370    -0.4804    -0.4515 C.ar    
  14 C14            7.6890    -1.6865    -0.2510 C.ar    
  15 N15            5.6554    -2.9301     0.1506 N.3     
  16 C16            6.0979    -3.5654     1.3982 C.3     
  17 C17            5.2219    -4.7893     1.6857 C.3     
  18 C18            5.2906    -5.7412     0.4936 C.3     
  19 C19            4.9462    -5.0604    -0.8292 C.3     
  20 C20            5.8349    -3.8239    -1.0004 C.3     
  21 F21            8.3937    -2.8391    -0.2418 F       
  22 C22            6.5799    -6.5715     0.4418 C.3     
  23 C23            4.5488    -7.0653     0.7176 C.3     
  24 N24            1.3239     1.6752     0.9574 N.pl3   
  25 Si25           0.2550     7.7258     2.7809 Si      
  26 C26           -0.2149     5.9874     2.3034 C.3     
  27 C27            1.0499     5.1839     1.9942 C.3     
  28 O28            0.6895     3.8505     1.6279 O.3     
  29 C29            1.1730     8.5299     1.3732 C.3     
  30 C30           -1.2850     8.7042     3.1573 C.3     
  31 C31            1.3470     7.6817     4.2897 C.3     
  32 C32            1.8040     3.0117     1.3174 C.3     
  33 N33            5.7107    -7.7056     0.0688 N.am    
  34 O34            4.8733    -9.7123    -0.7770 O.3     
  35 C35            5.1516   -10.9384    -1.5033 C.3     
  36 C36            6.2226   -11.7395    -0.7602 C.3     
  37 C37            3.8723   -11.7712    -1.6073 C.3     
  38 C38            5.6532   -10.5966    -2.9078 C.3     
  39 C39            5.9013    -8.8618    -0.5970 C.2     
  40 O40            7.0010    -9.1365    -1.0348 O.2     
  41 H41           -0.8427     1.8656     1.1373 H       
  42 H42            3.7090    -1.3586     0.0158 H       
  43 H43            5.6937     1.6108    -0.2734 H       
  44 H44            8.1284     1.6399    -0.6227 H       
  45 H45            9.4058    -0.4624    -0.6057 H       
  46 H46            7.1373    -3.8778     1.2982 H       
  47 H47            6.0094    -2.8542     2.2195 H       
  48 H48            5.5860    -5.2967     2.5791 H       
  49 H49            4.1907    -4.4716     1.8398 H       
  50 H50            5.1222    -5.7528    -1.6524 H       
  51 H51            3.8989    -4.7586    -0.8222 H       
  52 H52            5.5561    -3.2998    -1.9146 H       
  53 H53            6.8786    -4.1322    -1.0619 H       
  54 H54            7.2679    -6.2668    -0.3468 H       
  55 H55            7.0660    -6.6899     1.4102 H       
  56 H56            4.4302    -7.3307     1.7682 H       
  57 H57            3.6235    -7.1528     0.1480 H       
  58 H58           -0.7519     5.5170     3.1270 H       
  59 H59           -0.8538     6.0132     1.4206 H       
  60 H60            1.5870     5.6544     1.1706 H       
  61 H61            1.6888     5.1581     2.8769 H       
  62 H62            0.5341     8.5557     0.4905 H       
  63 H63            1.4479     9.5470     1.6526 H       
  64 H64            2.0740     7.9574     1.1530 H       
  65 H65           -1.8221     8.2337     3.9809 H       
  66 H66           -1.0101     9.7213     3.4367 H       
  67 H67           -1.9239     8.7300     2.2746 H       
  68 H68            2.2481     7.1092     4.0694 H       
  69 H69            1.6219     8.6988     4.5691 H       
  70 H70            0.8099     7.2112     5.1133 H       
  71 H71            2.4585     2.9408     2.1861 H       
  72 H72            2.3567     3.4370     0.4798 H       
  73 H73            5.8653   -11.9830     0.2404 H       
  74 H74            6.4316   -12.6599    -1.3054 H       
  75 H75            7.1340   -11.1462    -0.6861 H       
  76 H76            3.1093   -11.2006    -2.1367 H       
  77 H77            4.0813   -12.6916    -2.1525 H       
  78 H78            3.5150   -12.0147    -0.6067 H       
  79 H79            6.5646   -10.0033    -2.8337 H       
  80 H80            5.8621   -11.5171    -3.4530 H       
  81 H81            4.8902   -10.0260    -3.4372 H       
@<TRIPOS>BOND
   1    1    2 2
   2    1   24 1
   3    1   41 1
   4    2    5 1
   5    2    4 1
   6    3    4 2
   7    3    6 1
   8    3   24 1
   9    6    7 2
  10    6    8 am
  11    8    9 1
  12    8   42 1
  13    9   10 ar
  14    9   11 ar
  15   10   15 1
  16   10   14 ar
  17   11   12 ar
  18   11   43 1
  19   12   13 ar
  20   12   44 1
  21   13   14 ar
  22   13   45 1
  23   14   21 1
  24   15   16 1
  25   15   20 1
  26   16   17 1
  27   16   46 1
  28   16   47 1
  29   17   18 1
  30   17   48 1
  31   17   49 1
  32   18   19 1
  33   18   22 1
  34   18   23 1
  35   19   20 1
  36   19   50 1
  37   19   51 1
  38   20   52 1
  39   20   53 1
  40   22   33 1
  41   22   54 1
  42   22   55 1
  43   23   33 1
  44   23   56 1
  45   23   57 1
  46   24   32 1
  47   25   26 1
  48   25   29 1
  49   25   30 1
  50   25   31 1
  51   26   27 1
  52   26   58 1
  53   26   59 1
  54   27   28 1
  55   27   60 1
  56   27   61 1
  57   28   32 1
  58   29   62 1
  59   29   63 1
  60   29   64 1
  61   30   65 1
  62   30   66 1
  63   30   67 1
  64   31   68 1
  65   31   69 1
  66   31   70 1
  67   32   71 1
  68   32   72 1
  69   33   39 am
  70   34   35 1
  71   34   39 1
  72   35   36 1
  73   35   37 1
  74   35   38 1
  75   36   73 1
  76   36   74 1
  77   36   75 1
  78   37   76 1
  79   37   77 1
  80   37   78 1
  81   38   79 1
  82   38   80 1
  83   38   81 1
  84   39   40 2

#	End of record

