#	Name: ASD00311456
#	Creating user name:	WinNT
#	Creation time:	15. 06. 2019 18:34

#	Modifying user name:	WinNT
#	Modification time:	15. 06. 2019 18:34

#	Program:	/corina/corina34_cracker 3.40 0067  02.08.2006

@<TRIPOS>MOLECULE
ASD00311456
  47   51    0    0    0
SMALL
NO_CHARGES


@<TRIPOS>ATOM
   1 C1            -0.0167     1.3777     0.0096 C.2     
   2 C2             0.0021    -0.0041     0.0020 C.2     
   3 C3             1.2588    -0.6767    -0.0131 C.2     
   4 C4             2.4316     0.0672    -0.0199 C.2     
   5 C5             2.3574     1.4752    -0.0117 C.2     
   6 N6             1.1648     2.0903     0.0022 N.am    
   7 C7            -1.3432    -0.5752     0.0118 C.2     
   8 C8            -2.3228     0.3261     0.0260 C.2     
   9 S9            -1.6793     1.9562     0.0358 S.3     
  10 O10            3.3823     2.1373    -0.0175 O.2     
  11 C11            3.7477    -0.6120    -0.0352 C.ar    
  12 C12            4.5938    -0.4746    -1.1354 C.ar    
  13 C13            5.8189    -1.1095    -1.1435 C.ar    
  14 C14            6.2082    -1.8815    -0.0635 C.ar    
  15 C15            5.3733    -2.0216     1.0307 C.ar    
  16 C16            4.1483    -1.3870     1.0531 C.ar    
  17 C17           -2.0687    -4.7664    -0.0057 C.ar    
  18 C18           -2.7057    -3.9524     0.9308 C.ar    
  19 C19           -2.4709    -2.5954     0.9369 C.ar    
  20 C20           -1.5956    -2.0347     0.0059 C.ar    
  21 C21           -0.9585    -2.8494    -0.9310 C.ar    
  22 C22           -1.1937    -4.2063    -0.9365 C.ar    
  23 C23           -2.3170    -6.2282    -0.0081 C.ar    
  24 C24           -1.6811    -7.0434    -0.9435 C.ar    
  25 C25           -1.9138    -8.4026    -0.9427 C.ar    
  26 C26           -2.7807    -8.9594    -0.0121 C.ar    
  27 C27           -3.4158    -8.1504     0.9204 C.ar    
  28 C28           -3.1825    -6.7913     0.9289 C.ar    
  29 O29           -3.0082   -10.2990    -0.0142 O.3     
  30 O30            1.3087    -2.0292    -0.0204 O.3     
  31 H31            1.1326     3.0597     0.0073 H       
  32 H32           -3.3754     0.0846     0.0347 H       
  33 H33            4.2907     0.1272    -1.9794 H       
  34 H34            6.4750    -1.0039    -1.9948 H       
  35 H35            7.1678    -2.3770    -0.0747 H       
  36 H36            5.6826    -2.6258     1.8707 H       
  37 H37            3.4993    -1.4935     1.9097 H       
  38 H38           -3.3835    -4.3863     1.6511 H       
  39 H39           -2.9645    -1.9652     1.6619 H       
  40 H40           -0.2813    -2.4158    -1.6519 H       
  41 H41           -0.7004    -4.8369    -1.6613 H       
  42 H42           -1.0073    -6.6107    -1.6682 H       
  43 H43           -1.4216    -9.0345    -1.6671 H       
  44 H44           -4.0898    -8.5865     1.6428 H       
  45 H45           -3.6734    -6.1630     1.6574 H       
  46 H46           -2.3998   -10.8022     0.5441 H       
  47 H47            2.2060    -2.3896    -0.0307 H       
@<TRIPOS>BOND
   1    1    2 2
   2    1    6 1
   3    1    9 1
   4    2    3 1
   5    2    7 1
   6    3    4 2
   7    3   30 1
   8    4    5 1
   9    4   11 1
  10    5    6 am
  11    5   10 2
  12    6   31 1
  13    7    8 2
  14    7   20 1
  15    8    9 1
  16    8   32 1
  17   11   12 ar
  18   11   16 ar
  19   12   13 ar
  20   12   33 1
  21   13   14 ar
  22   13   34 1
  23   14   15 ar
  24   14   35 1
  25   15   16 ar
  26   15   36 1
  27   16   37 1
  28   17   18 ar
  29   17   22 ar
  30   17   23 1
  31   18   19 ar
  32   18   38 1
  33   19   20 ar
  34   19   39 1
  35   20   21 ar
  36   21   22 ar
  37   21   40 1
  38   22   41 1
  39   23   24 ar
  40   23   28 ar
  41   24   25 ar
  42   24   42 1
  43   25   26 ar
  44   25   43 1
  45   26   27 ar
  46   26   29 1
  47   27   28 ar
  48   27   44 1
  49   28   45 1
  50   29   46 1
  51   30   47 1

#	End of record

