#	Name: ASD03331198
#	Creating user name:	WinNT
#	Creation time:	15. 06. 2019 20:38

#	Modifying user name:	WinNT
#	Modification time:	15. 06. 2019 20:38

#	Program:	/corina/corina34_cracker 3.40 0067  02.08.2006

@<TRIPOS>MOLECULE
ASD03331198
  54   57    0    0    0
SMALL
NO_CHARGES


@<TRIPOS>ATOM
   1 N1            -0.0998     1.7466     0.4498 N.am    
   2 C2            -0.0483     0.4282     1.0997 C.3     
   3 C3             0.5274    -0.5836     0.1032 C.3     
   4 N4             1.8150    -0.0897    -0.4026 N.3     
   5 C5             1.6491     1.1662    -1.1464 C.3     
   6 C6             1.1194     2.2497    -0.2011 C.3     
   7 C7            -1.2357     2.4720     0.4460 C.2     
   8 O8            -2.2608     1.9987     0.8970 O.2     
   9 N9            -1.2352     3.7220    -0.0579 N.am    
  10 C10           -2.4402     4.4191    -0.2012 C.ar    
  11 C11           -2.4699     5.7980    -0.0392 C.ar    
  12 C12           -3.6607     6.4831    -0.1817 C.ar    
  13 C13           -4.8224     5.7974    -0.4855 C.ar    
  14 C14           -4.7962     4.4244    -0.6476 C.ar    
  15 C15           -3.6077     3.7341    -0.5115 C.ar    
  16 C16            2.4814    -1.1061    -1.2277 C.3     
  17 C17            3.6665    -0.4892    -1.9248 C.ar    
  18 C18            4.9082    -0.5014    -1.3166 C.ar    
  19 C19            5.9962     0.0633    -1.9534 C.ar    
  20 C20            5.8422     0.6432    -3.2046 C.ar    
  21 C21            4.5950     0.6541    -3.8127 C.ar    
  22 C22            3.5115     0.0830    -3.1740 C.ar    
  23 O23            6.9107     1.1998    -3.8329 O.3     
  24 C24            8.1327     1.0650    -3.2540 C.ar    
  25 C25            8.8131    -0.1413    -3.3398 C.ar    
  26 C26            8.7048     2.1350    -2.5809 C.ar    
  27 C27            9.9470     1.9953    -1.9933 C.ar    
  28 C28           10.6206     0.7905    -2.0757 C.ar    
  29 C29           10.0551    -0.2758    -2.7504 C.ar    
  30 H30            0.5916     0.4790     1.9807 H       
  31 H31           -1.0536     0.1240     1.3909 H       
  32 H32            0.6757    -1.5414     0.6020 H       
  33 H33           -0.1659    -0.7097    -0.7285 H       
  34 H34            2.6109     1.4774    -1.5539 H       
  35 H35            0.9402     1.0157    -1.9607 H       
  36 H36            0.8861     3.1497    -0.7699 H       
  37 H37            1.8715     2.4756     0.5549 H       
  38 H38           -0.3997     4.1385    -0.3212 H       
  39 H39           -1.5630     6.3340     0.1985 H       
  40 H40           -3.6845     7.5554    -0.0555 H       
  41 H41           -5.7524     6.3354    -0.5962 H       
  42 H42           -5.7052     3.8917    -0.8848 H       
  43 H43           -3.5869     2.6623    -0.6426 H       
  44 H44            2.8192    -1.9252    -0.5928 H       
  45 H45            1.7809    -1.4874    -1.9707 H       
  46 H46            5.0275    -0.9526    -0.3426 H       
  47 H47            6.9658     0.0538    -1.4777 H       
  48 H48            4.4725     1.1049    -4.7865 H       
  49 H49            2.5407     0.0909    -3.6471 H       
  50 H50            8.3718    -0.9744    -3.8667 H       
  51 H51            8.1794     3.0764    -2.5168 H       
  52 H52           10.3928     2.8278    -1.4692 H       
  53 H53           11.5920     0.6834    -1.6159 H       
  54 H54           10.5831    -1.2158    -2.8131 H       
@<TRIPOS>BOND
   1    1    2 1
   2    1    6 1
   3    1    7 am
   4    2    3 1
   5    2   30 1
   6    2   31 1
   7    3    4 1
   8    3   32 1
   9    3   33 1
  10    4    5 1
  11    4   16 1
  12    5    6 1
  13    5   34 1
  14    5   35 1
  15    6   36 1
  16    6   37 1
  17    7    8 2
  18    7    9 am
  19    9   10 1
  20    9   38 1
  21   10   11 ar
  22   10   15 ar
  23   11   12 ar
  24   11   39 1
  25   12   13 ar
  26   12   40 1
  27   13   14 ar
  28   13   41 1
  29   14   15 ar
  30   14   42 1
  31   15   43 1
  32   16   17 1
  33   16   44 1
  34   16   45 1
  35   17   18 ar
  36   17   22 ar
  37   18   19 ar
  38   18   46 1
  39   19   20 ar
  40   19   47 1
  41   20   21 ar
  42   20   23 1
  43   21   22 ar
  44   21   48 1
  45   22   49 1
  46   23   24 1
  47   24   25 ar
  48   24   26 ar
  49   25   29 ar
  50   25   50 1
  51   26   27 ar
  52   26   51 1
  53   27   28 ar
  54   27   52 1
  55   28   29 ar
  56   28   53 1
  57   29   54 1

#	End of record

