#	Name: ASD03092078
#	Creating user name:	WinNT
#	Creation time:	15. 06. 2019 20:31

#	Modifying user name:	WinNT
#	Modification time:	15. 06. 2019 20:31

#	Program:	/corina/corina34_cracker 3.40 0067  02.08.2006

@<TRIPOS>MOLECULE
ASD03092078
  50   52    0    0    0
SMALL
NO_CHARGES


@<TRIPOS>ATOM
   1 N1             0.0741     1.0912    -0.1145 N.pl3   
   2 C2             0.0479    -0.2718    -0.0943 C.2     
   3 C3            -1.2598    -0.6572    -0.1771 C.2     
   4 C4            -2.0437     0.5012    -0.2491 C.2     
   5 N5            -1.2479     1.5447    -0.2056 N.2     
   6 N6            -3.4402     0.5400    -0.3448 N.pl3   
   7 C7            -4.0940     1.7608    -0.5281 C.ar    
   8 C8            -3.4723     2.7842    -1.2329 C.ar    
   9 C9            -4.1192     3.9913    -1.4140 C.ar    
  10 C10           -5.3855     4.1843    -0.8955 C.ar    
  11 C11           -5.3686     1.9513    -0.0110 C.ar    
  12 C12            1.2205    -1.1686    -0.0001 C.ar    
  13 C13            1.2718     1.9321    -0.0465 C.3     
  14 C14            2.4361    -0.7105     0.5201 C.ar    
  15 C15            3.5040    -1.5810     0.5901 C.ar    
  16 N16            3.3897    -2.8282     0.1751 N.ar    
  17 C17            2.2620    -3.3003    -0.3217 C.ar    
  18 C18            1.1432    -2.5006    -0.4233 C.ar    
  19 C19            2.1944    -4.7345    -0.7794 C.3     
  20 O20            1.0819     3.0975    -0.8513 O.3     
  21 C21           -6.0117     3.1655    -0.1905 C.ar    
  22 C22            1.5204     2.3492     1.4044 C.3     
  23 C23            2.8377     3.1222     1.4943 C.3     
  24 C24           -3.4424     5.1001    -2.1779 C.3     
  25 F25           -3.7604     4.9923    -3.5360 F       
  26 F26           -3.8819     6.3365    -1.6928 F       
  27 F27           -2.0566     5.0008    -2.0142 F       
  28 O28           -7.2568     3.3572     0.3191 O.3     
  29 C29           -7.8406     2.2659     1.0334 C.3     
  30 H30           -1.6243    -1.6738    -0.1859 H       
  31 H31           -3.9535    -0.2808    -0.2839 H       
  32 H32           -2.4826     2.6359    -1.6391 H       
  33 H33           -5.8886     5.1291    -1.0388 H       
  34 H34           -5.8561     1.1561     0.5334 H       
  35 H35            2.1307     1.3716    -0.4157 H       
  36 H36            2.5369     0.3092     0.8613 H       
  37 H37            4.4464    -1.2367     0.9896 H       
  38 H38            0.2236    -2.8937    -0.8309 H       
  39 H39            1.8832    -5.3670     0.0520 H       
  40 H40            1.4740    -4.8228    -1.5926 H       
  41 H41            3.1772    -5.0512    -1.1287 H       
  42 H42            0.3328     3.6454    -0.5796 H       
  43 H43            0.7026     2.9842     1.7451 H       
  44 H44            1.5769     1.4607     2.0333 H       
  45 H45            3.6556     2.4873     1.1535 H       
  46 H46            2.7813     4.0107     0.8653 H       
  47 H47            3.0148     3.4194     2.5279 H       
  48 H48           -7.9240     1.4026     0.3731 H       
  49 H49           -7.2111     2.0115     1.8861 H       
  50 H50           -8.8319     2.5509     1.3858 H       
@<TRIPOS>BOND
   1    1    2 1
   2    1   13 1
   3    1    5 1
   4    2    3 2
   5    2   12 1
   6    3    4 1
   7    3   30 1
   8    4    5 2
   9    4    6 1
  10    6    7 1
  11    6   31 1
  12    7    8 ar
  13    7   11 ar
  14    8    9 ar
  15    8   32 1
  16    9   10 ar
  17    9   24 1
  18   10   21 ar
  19   10   33 1
  20   11   21 ar
  21   11   34 1
  22   12   14 ar
  23   12   18 ar
  24   13   20 1
  25   13   22 1
  26   13   35 1
  27   14   15 ar
  28   14   36 1
  29   15   16 ar
  30   15   37 1
  31   16   17 ar
  32   17   18 ar
  33   17   19 1
  34   18   38 1
  35   19   39 1
  36   19   40 1
  37   19   41 1
  38   20   42 1
  39   21   28 1
  40   22   23 1
  41   22   43 1
  42   22   44 1
  43   23   45 1
  44   23   46 1
  45   23   47 1
  46   24   25 1
  47   24   26 1
  48   24   27 1
  49   28   29 1
  50   29   48 1
  51   29   49 1
  52   29   50 1

#	End of record

