#	Name: ASD01813032
#	Creating user name:	WinNT
#	Creation time:	15. 06. 2019 19:29

#	Modifying user name:	WinNT
#	Modification time:	15. 06. 2019 19:29

#	Program:	/corina/corina34_cracker 3.40 0067  02.08.2006

@<TRIPOS>MOLECULE
ASD01813032
  53   56    0    0    0
SMALL
NO_CHARGES


@<TRIPOS>ATOM
   1 N1             0.0026     1.3185    -0.2218 N.ar    
   2 C2             0.0318     0.0058    -0.3454 C.ar    
   3 C3             1.2339    -0.6842    -0.3686 C.ar    
   4 C4             2.4112     0.0206    -0.2603 C.ar    
   5 C5             2.3614     1.4133    -0.1298 C.ar    
   6 C6             1.1073     2.0396    -0.1145 C.ar    
   7 C7             3.8681    -0.3579    -0.2449 C.3     
   8 N8             4.6152     0.8977    -0.0994 N.am    
   9 C9             3.7395     1.9164    -0.0335 C.2     
  10 C10            6.0736     1.0206    -0.0368 C.3     
  11 C11            6.6231     1.1972    -1.4289 C.ar    
  12 O12            1.0259     3.3855     0.0104 O.3     
  13 O13            4.0443     3.0872     0.0876 O.2     
  14 C14            6.7688     2.4671    -1.9545 C.ar    
  15 C15            7.2720     2.6360    -3.2318 C.ar    
  16 C16            7.6333     1.5178    -3.9894 C.ar    
  17 C17            7.4827     0.2388    -3.4491 C.ar    
  18 C18            6.9846     0.0867    -2.1727 C.ar    
  19 C19           -0.2022     3.9617    -0.0794 C.ar    
  20 C20           -1.0087     4.0612     1.0480 C.ar    
  21 C21           -2.2571     4.6484     0.9529 C.ar    
  22 C22           -2.7020     5.1358    -0.2625 C.ar    
  23 C23           -1.9011     5.0372    -1.3847 C.ar    
  24 C24           -0.6501     4.4565    -1.2946 C.ar    
  25 C25           -4.0628     5.7753    -0.3636 C.3     
  26 F26           -0.5739     3.5845     2.2350 F       
  27 C27            8.1711     1.6883    -5.3544 C.2     
  28 O28            8.3006     2.8030    -5.8218 O.2     
  29 N29            8.5183     0.6080    -6.0817 N.am    
  30 C30            9.0517     0.7772    -7.4356 C.3     
  31 C31            9.3633    -0.5951    -8.0361 C.3     
  32 F32            7.4135     3.8774    -3.7458 F       
  33 H33           -0.8960    -0.5406    -0.4296 H       
  34 H34            1.2465    -1.7594    -0.4699 H       
  35 H35            4.0753    -1.0172     0.5980 H       
  36 H36            4.1379    -0.8484    -1.1802 H       
  37 H37            6.3396     1.8853     0.5712 H       
  38 H38            6.4954     0.1196     0.4087 H       
  39 H39            6.4888     3.3290    -1.3670 H       
  40 H40            7.7595    -0.6294    -4.0288 H       
  41 H41            6.8718    -0.9020    -1.7532 H       
  42 H42           -2.8851     4.7260     1.8281 H       
  43 H43           -2.2516     5.4181    -2.3325 H       
  44 H44           -0.0252     4.3804    -2.1722 H       
  45 H45           -3.9767     6.8449    -0.1725 H       
  46 H46           -4.4656     5.6162    -1.3639 H       
  47 H47           -4.7304     5.3272     0.3724 H       
  48 H48            8.4150    -0.2814    -5.7087 H       
  49 H49            8.3140     1.2862    -8.0558 H       
  50 H50            9.9644     1.3717    -7.3949 H       
  51 H51           10.1011    -1.1041    -7.4159 H       
  52 H52            8.4506    -1.1896    -8.0768 H       
  53 H53            9.7602    -0.4693    -9.0435 H       
@<TRIPOS>BOND
   1    1    2 ar
   2    1    6 ar
   3    2    3 ar
   4    2   33 1
   5    3    4 ar
   6    3   34 1
   7    4    7 1
   8    4    5 ar
   9    5    6 ar
  10    5    9 1
  11    6   12 1
  12    7    8 1
  13    7   35 1
  14    7   36 1
  15    8    9 am
  16    8   10 1
  17    9   13 2
  18   10   11 1
  19   10   37 1
  20   10   38 1
  21   11   14 ar
  22   11   18 ar
  23   12   19 1
  24   14   15 ar
  25   14   39 1
  26   15   16 ar
  27   15   32 1
  28   16   17 ar
  29   16   27 1
  30   17   18 ar
  31   17   40 1
  32   18   41 1
  33   19   20 ar
  34   19   24 ar
  35   20   21 ar
  36   20   26 1
  37   21   22 ar
  38   21   42 1
  39   22   23 ar
  40   22   25 1
  41   23   24 ar
  42   23   43 1
  43   24   44 1
  44   25   45 1
  45   25   46 1
  46   25   47 1
  47   27   28 2
  48   27   29 am
  49   29   30 1
  50   29   48 1
  51   30   31 1
  52   30   49 1
  53   30   50 1
  54   31   51 1
  55   31   52 1
  56   31   53 1

#	End of record

