#	Name: ASD05420001
#	Creating user name:	WinNT
#	Creation time:	15. 06. 2019 20:59

#	Modifying user name:	WinNT
#	Modification time:	15. 06. 2019 20:59

#	Program:	/corina/corina34_cracker 3.40 0067  02.08.2006

@<TRIPOS>MOLECULE
ASD05420001
  57   60    0    0    0
SMALL
NO_CHARGES


@<TRIPOS>ATOM
   1 C1            -0.7853     0.8489     0.2220 C.3     
   2 C2            -0.3539    -0.5389    -0.2578 C.3     
   3 C3             0.7212    -1.0892     0.6846 C.3     
   4 N4             1.8165    -0.1140     0.7734 N.am    
   5 C5             1.4992     1.2733     1.1388 C.3     
   6 C6             0.4155     1.7972     0.1913 C.3     
   7 S7             3.3789    -0.5698     0.4681 S.o2    
   8 O8             4.2091     0.4024     1.0884 O.2     
   9 O9             3.4563    -1.9583     0.7605 O.2     
  10 C10            3.6387    -0.4116    -1.2674 C.ar    
  11 C11            4.3030     0.6920    -1.7691 C.ar    
  12 C12            4.5067     0.8162    -3.1307 C.ar    
  13 C13            4.0467    -0.1635    -3.9906 C.ar    
  14 C14            3.3832    -1.2676    -3.4889 C.ar    
  15 C15            3.1833    -1.3939    -2.1269 C.ar    
  16 C16            4.2679    -0.0277    -5.4751 C.3     
  17 C17            2.7361     2.1247     1.0115 C.2     
  18 O18            3.2675     2.2646    -0.0697 O.2     
  19 N19            3.2519     2.7308     2.0992 N.am    
  20 C20            4.3917     3.5154     1.9820 C.2     
  21 N21            5.0339     3.7289     0.8752 N.2     
  22 S22            5.1446     4.3435     3.2741 S.3     
  23 C23            6.3709     4.9687     2.1745 C.2     
  24 C24            6.0983     4.5006     0.9392 C.2     
  25 C25            7.4969     5.8540     2.5403 C.ar    
  26 C26            7.6599     6.2688     3.8631 C.ar    
  27 C27            8.7118     7.0942     4.2002 C.ar    
  28 C28            9.6078     7.5130     3.2259 C.ar    
  29 C29            9.4489     7.1031     1.9090 C.ar    
  30 C30            8.4034     6.2727     1.5648 C.ar    
  31 O31           10.6431     8.3269     3.5622 O.3     
  32 C32           11.5273     8.7199     2.5107 C.3     
  33 H33           -1.5678     1.2324    -0.4327 H       
  34 H34           -1.1665     0.7786     1.2408 H       
  35 H35           -1.2146    -1.2077    -0.2578 H       
  36 H36            0.0504    -0.4654    -1.2674 H       
  37 H37            0.2928    -1.2487     1.6742 H       
  38 H38            1.1025    -2.0323     0.2930 H       
  39 H39            1.1343     1.3065     2.1653 H       
  40 H40            0.8125     1.8487    -0.8226 H       
  41 H41            0.1023     2.7912     0.5108 H       
  42 H42            4.6624     1.4575    -1.0973 H       
  43 H43            5.0251     1.6788    -3.5227 H       
  44 H44            3.0235    -2.0329    -4.1607 H       
  45 H45            2.6650    -2.2565    -1.7349 H       
  46 H46            5.2163    -0.4923    -5.7451 H       
  47 H47            3.4564    -0.5209    -6.0100 H       
  48 H48            4.2913     1.0284    -5.7438 H       
  49 H49            2.8270     2.6190     2.9640 H       
  50 H50            6.7033     4.7371     0.0764 H       
  51 H51            6.9629     5.9441     4.6215 H       
  52 H52            8.8386     7.4156     5.2234 H       
  53 H53           10.1477     7.4317     1.1540 H       
  54 H54            8.2807     5.9540     0.5402 H       
  55 H55           10.9668     9.2593     1.7471 H       
  56 H56           12.3067     9.3665     2.9140 H       
  57 H57           11.9830     7.8338     2.0689 H       
@<TRIPOS>BOND
   1    1    2 1
   2    1    6 1
   3    1   33 1
   4    1   34 1
   5    2    3 1
   6    2   35 1
   7    2   36 1
   8    3    4 1
   9    3   37 1
  10    3   38 1
  11    4    5 1
  12    4    7 am
  13    5    6 1
  14    5   17 1
  15    5   39 1
  16    6   40 1
  17    6   41 1
  18    7    8 2
  19    7    9 2
  20    7   10 1
  21   10   11 ar
  22   10   15 ar
  23   11   12 ar
  24   11   42 1
  25   12   13 ar
  26   12   43 1
  27   13   14 ar
  28   13   16 1
  29   14   15 ar
  30   14   44 1
  31   15   45 1
  32   16   46 1
  33   16   47 1
  34   16   48 1
  35   17   18 2
  36   17   19 am
  37   19   20 1
  38   19   49 1
  39   20   21 2
  40   20   22 1
  41   21   24 1
  42   22   23 1
  43   23   24 2
  44   23   25 1
  45   24   50 1
  46   25   26 ar
  47   25   30 ar
  48   26   27 ar
  49   26   51 1
  50   27   28 ar
  51   27   52 1
  52   28   29 ar
  53   28   31 1
  54   29   30 ar
  55   29   53 1
  56   30   54 1
  57   31   32 1
  58   32   55 1
  59   32   56 1
  60   32   57 1

#	End of record

