#	Name: ASD02039269
#	Creating user name:	WinNT
#	Creation time:	15. 06. 2019 20:18

#	Modifying user name:	WinNT
#	Modification time:	15. 06. 2019 20:18

#	Program:	/corina/corina34_cracker 3.40 0067  02.08.2006

@<TRIPOS>MOLECULE
ASD02039269
  47   49    0    0    0
SMALL
NO_CHARGES


@<TRIPOS>ATOM
   1 C1            -0.0820     0.7932    -0.4618 C.ar    
   2 C2             0.2936    -0.5372    -0.4502 C.ar    
   3 C3            -0.6601    -1.5158    -0.6930 C.ar    
   4 C4            -1.9634    -1.1213    -0.9399 C.ar    
   5 C5            -2.2717     0.2375    -0.9363 C.ar    
   6 N6            -1.3314     1.1414    -0.6943 N.ar    
   7 C7            -3.6639     0.6768    -1.1996 C.ar    
   8 C8            -3.9813     2.0337    -1.1980 C.ar    
   9 C9            -5.2783     2.4367    -1.4436 C.ar    
  10 C10           -6.2622     1.4965    -1.6911 C.ar    
  11 C11           -5.9528     0.1483    -1.6939 C.ar    
  12 C12           -4.6581    -0.2658    -1.4553 C.ar    
  13 C13            0.9501     1.8593    -0.1987 C.3     
  14 N14            1.4752     2.3556    -1.4731 N.am    
  15 C15            0.8301     3.4897    -2.1393 C.3     
  16 C16            2.5519     1.7689    -2.0326 C.2     
  17 C17            3.0176     2.1995    -3.3623 C.2     
  18 C18            4.0098     1.6183    -4.0964 C.2     
  19 C19            1.5707     4.7799    -1.7818 C.3     
  20 N20            2.5337     3.2433    -4.0829 N.2     
  21 C21            3.1879     3.3190    -5.2057 C.2     
  22 N22            4.1125     2.3245    -5.2468 N.pl3   
  23 C23            0.8970     5.9643    -2.4776 C.3     
  24 O24            3.1389     0.8839    -1.4398 O.2     
  25 C25            5.0527     2.0637    -6.3396 C.3     
  26 H26            1.3195    -0.8123    -0.2545 H       
  27 H27           -0.3911    -2.5618    -0.6896 H       
  28 H28           -2.7308    -1.8563    -1.1330 H       
  29 H29           -3.2139     2.7686    -1.0046 H       
  30 H30           -5.5255     3.4880    -1.4423 H       
  31 H31           -7.2759     1.8162    -1.8825 H       
  32 H32           -6.7251    -0.5815    -1.8874 H       
  33 H33           -4.4175    -1.3186    -1.4580 H       
  34 H34            0.4912     2.6817     0.3501 H       
  35 H35            1.7647     1.4388     0.3909 H       
  36 H36            0.8591     3.3414    -3.2188 H       
  37 H37           -0.2065     3.5627    -1.8103 H       
  38 H38            4.6005     0.7595    -3.8138 H       
  39 H39            1.5418     4.9282    -0.7023 H       
  40 H40            2.6073     4.7069    -2.1108 H       
  41 H41            3.0205     4.0521    -5.9809 H       
  42 H42            0.9259     5.8160    -3.5571 H       
  43 H43           -0.1396     6.0373    -2.1485 H       
  44 H44            1.4246     6.8834    -2.2228 H       
  45 H45            5.9737     2.6206    -6.1673 H       
  46 H46            5.2752     0.9974    -6.3808 H       
  47 H47            4.6087     2.3789    -7.2839 H       
@<TRIPOS>BOND
   1    1    2 ar
   2    1   13 1
   3    1    6 ar
   4    2    3 ar
   5    2   26 1
   6    3    4 ar
   7    3   27 1
   8    4    5 ar
   9    4   28 1
  10    5    6 ar
  11    5    7 1
  12    7    8 ar
  13    7   12 ar
  14    8    9 ar
  15    8   29 1
  16    9   10 ar
  17    9   30 1
  18   10   11 ar
  19   10   31 1
  20   11   12 ar
  21   11   32 1
  22   12   33 1
  23   13   14 1
  24   13   34 1
  25   13   35 1
  26   14   15 1
  27   14   16 am
  28   15   19 1
  29   15   36 1
  30   15   37 1
  31   16   17 1
  32   16   24 2
  33   17   18 2
  34   17   20 1
  35   18   22 1
  36   18   38 1
  37   19   23 1
  38   19   39 1
  39   19   40 1
  40   20   21 2
  41   21   22 1
  42   21   41 1
  43   22   25 1
  44   23   42 1
  45   23   43 1
  46   23   44 1
  47   25   45 1
  48   25   46 1
  49   25   47 1

#	End of record

