#	Name: ASD01418020
#	Creating user name:	WinNT
#	Creation time:	15. 06. 2019 19:20

#	Modifying user name:	WinNT
#	Modification time:	15. 06. 2019 19:20

#	Program:	/corina/corina34_cracker 3.40 0067  02.08.2006

@<TRIPOS>MOLECULE
ASD01418020
  45   48    0    0    0
SMALL
NO_CHARGES


@<TRIPOS>ATOM
   1 N1            -0.0169     1.3938     0.0097 N.pl3   
   2 C2             0.0021    -0.0041     0.0020 C.2     
   3 C3             1.3323    -0.3896    -0.0128 C.2     
   4 C4             2.1184     0.7829    -0.0140 C.2     
   5 C5             1.2753     1.8489    -0.0002 C.2     
   6 C6            -0.8810    -1.0739     0.0047 C.2     
   7 C7            -0.3010    -2.3034    -0.0074 C.2     
   8 S8             1.4479    -2.1454    -0.0233 S.3     
   9 C9            -1.0274    -3.5722    -0.0078 C.2     
  10 O10           -2.2440    -3.5767     0.0034 O.2     
  11 O11           -0.3484    -4.7384    -0.0205 O.3     
  12 C12            1.6858     3.2685     0.0031 C.ar    
  13 C13            1.0522     4.1836    -0.8397 C.ar    
  14 C14            1.4404     5.5073    -0.8317 C.ar    
  15 C15            2.4555     5.9287     0.0088 C.ar    
  16 C16            3.0877     5.0270     0.8466 C.ar    
  17 C17            2.7052     3.7017     0.8531 C.ar    
  18 C18           -1.2182     2.2322     0.0202 C.3     
  19 C19            3.6242     0.8421    -0.0276 C.3     
  20 C20            4.1737     0.1344     1.2127 C.3     
  21 C21            5.7024     0.1945     1.1989 C.3     
  22 C22            6.2287    -0.4991    -0.0592 C.3     
  23 C23            5.6793     0.2085    -1.2995 C.3     
  24 C24            4.1505     0.1484    -1.2856 C.3     
  25 H25           -1.9526    -0.9396     0.0160 H       
  26 H26           -0.9139    -5.5228    -0.0196 H       
  27 H27            0.2602     3.8558    -1.4967 H       
  28 H28            0.9511     6.2162    -1.4831 H       
  29 H29            2.7561     6.9660     0.0106 H       
  30 H30            3.8796     5.3625     1.4999 H       
  31 H31            3.1963     2.9998     1.5107 H       
  32 H32           -1.5108     2.4349     1.0505 H       
  33 H33           -1.0095     3.1726    -0.4899 H       
  34 H34           -2.0282     1.7129    -0.4921 H       
  35 H35            3.9469     1.8832    -0.0247 H       
  36 H36            3.7987     0.6286     2.1090 H       
  37 H37            3.8509    -0.9067     1.2098 H       
  38 H38            6.0251     1.2356     1.2017 H       
  39 H39            6.0938    -0.3096     2.0825 H       
  40 H40            7.3178    -0.4563    -0.0691 H       
  41 H41            5.9060    -1.5403    -0.0620 H       
  42 H42            6.0020     1.2496    -1.2966 H       
  43 H43            6.0542    -0.2857    -2.1957 H       
  44 H44            3.8278    -0.8927    -1.2885 H       
  45 H45            3.7591     0.6525    -2.1692 H       
@<TRIPOS>BOND
   1    1    2 1
   2    1    5 1
   3    1   18 1
   4    2    3 2
   5    2    6 1
   6    3    4 1
   7    3    8 1
   8    4    5 2
   9    4   19 1
  10    5   12 1
  11    6    7 2
  12    6   25 1
  13    7    8 1
  14    7    9 1
  15    9   10 2
  16    9   11 1
  17   11   26 1
  18   12   13 ar
  19   12   17 ar
  20   13   14 ar
  21   13   27 1
  22   14   15 ar
  23   14   28 1
  24   15   16 ar
  25   15   29 1
  26   16   17 ar
  27   16   30 1
  28   17   31 1
  29   18   32 1
  30   18   33 1
  31   18   34 1
  32   19   20 1
  33   19   24 1
  34   19   35 1
  35   20   21 1
  36   20   36 1
  37   20   37 1
  38   21   22 1
  39   21   38 1
  40   21   39 1
  41   22   23 1
  42   22   40 1
  43   22   41 1
  44   23   24 1
  45   23   42 1
  46   23   43 1
  47   24   44 1
  48   24   45 1

#	End of record

