#	Name: ASD01209008
#	Creating user name:	WinNT
#	Creation time:	15. 06. 2019 19:10

#	Modifying user name:	WinNT
#	Modification time:	15. 06. 2019 19:10

#	Program:	/corina/corina34_cracker 3.40 0067  02.08.2006

@<TRIPOS>MOLECULE
ASD01209008
  56   60    0    0    0
SMALL
NO_CHARGES


@<TRIPOS>ATOM
   1 S1            -0.3466     0.9666     0.5167 S.o2    
   2 C2            -3.7529    -2.3984    -5.8298 C.3     
   3 C3            -3.6051    -0.9643    -5.3122 C.3     
   4 C4            -3.1586    -0.0604    -6.4654 C.3     
   5 C5            -1.8534    -0.6034    -7.0531 C.3     
   6 C6            -2.4247    -2.8510    -6.4419 C.3     
   7 C7            -4.9493    -0.4750    -4.7694 C.3     
   8 C8            -4.7655     0.8932    -4.1098 C.3     
   9 C9            -6.1073     1.4283    -3.6806 C.2     
  10 O10           -6.3659     1.5419    -2.5011 O.2     
  11 N11           -3.8964     0.7576    -2.9382 N.pl3   
  12 C12           -2.6963     1.3955    -2.7601 C.ar    
  13 C13           -2.1999     0.9839    -1.5078 C.ar    
  14 C14           -3.1882     0.0602    -0.9592 C.2     
  15 N15           -4.1611    -0.0388    -1.8193 N.2     
  16 N16           -7.0200     1.7808    -4.6076 N.am    
  17 C17           -1.9586     2.2909    -3.5291 C.ar    
  18 C18           -0.7505     2.7649    -3.0564 C.ar    
  19 C19           -0.2645     2.3538    -1.8161 C.ar    
  20 C20           -0.9737     1.4774    -1.0487 C.ar    
  21 C21           -8.2191     2.3667    -4.2154 C.2     
  22 S22           -9.5076     2.8812    -5.3009 S.3     
  23 C23          -10.4523     3.4249    -3.9160 C.2     
  24 C24           -9.7477     3.1828    -2.8085 C.2     
  25 N25           -8.5695     2.6163    -2.9911 N.2     
  26 O26           -2.0519    -1.9504    -7.4869 O.3     
  27 F27          -11.6784     3.9900    -3.9667 F       
  28 C28           -1.5350     1.6270     1.7176 C.3     
  29 C29           -1.2097     1.4526     3.2025 C.3     
  30 C30           -1.0995     2.8331     2.5523 C.3     
  31 O31           -0.0296     3.6392    -3.8066 O.3     
  32 O32           -0.4153    -0.4521     0.4757 O.2     
  33 O33            0.9013     1.6367     0.6299 O.2     
  34 H34           -4.0168    -3.0585    -5.0035 H       
  35 H35           -4.5344    -2.4330    -6.5888 H       
  36 H36           -2.8586    -0.9382    -4.5184 H       
  37 H37           -3.9281    -0.0478    -7.2373 H       
  38 H38           -2.9975     0.9515    -6.0938 H       
  39 H39           -1.5533     0.0114    -7.9017 H       
  40 H40           -1.0737    -0.5778    -6.2918 H       
  41 H41           -1.6524    -2.8549    -5.6727 H       
  42 H42           -2.5362    -3.8555    -6.8503 H       
  43 H43           -5.6630    -0.3903    -5.5890 H       
  44 H44           -5.3243    -1.1859    -4.0331 H       
  45 H45           -4.3106     1.5817    -4.8219 H       
  46 H46           -3.1260    -0.4470    -0.0078 H       
  47 H47           -6.8407     1.6259    -5.5482 H       
  48 H48           -2.3289     2.6133    -4.4910 H       
  49 H49            0.6820     2.7327    -1.4598 H       
  50 H50          -10.1198     3.4303    -1.8253 H       
  51 H51           -2.5826     1.5710     1.4219 H       
  52 H52           -2.0434     1.2822     3.8836 H       
  53 H53           -0.2817     0.9409     3.4577 H       
  54 H54           -0.0990     3.2298     2.3797 H       
  55 H55           -1.8607     3.5710     2.8057 H       
  56 H56           -0.2377     4.5681    -3.6365 H       
@<TRIPOS>BOND
   1    1   32 2
   2    1   33 2
   3    1   20 1
   4    1   28 1
   5    2    3 1
   6    2    6 1
   7    2   34 1
   8    2   35 1
   9    3    4 1
  10    3    7 1
  11    3   36 1
  12    4    5 1
  13    4   37 1
  14    4   38 1
  15    5   26 1
  16    5   39 1
  17    5   40 1
  18    6   26 1
  19    6   41 1
  20    6   42 1
  21    7    8 1
  22    7   43 1
  23    7   44 1
  24    8   11 1
  25    8    9 1
  26    8   45 1
  27    9   10 2
  28    9   16 am
  29   11   12 1
  30   11   15 1
  31   12   13 ar
  32   12   17 ar
  33   13   14 1
  34   13   20 ar
  35   14   15 2
  36   14   46 1
  37   16   21 1
  38   16   47 1
  39   17   18 ar
  40   17   48 1
  41   18   19 ar
  42   18   31 1
  43   19   20 ar
  44   19   49 1
  45   21   22 1
  46   21   25 2
  47   22   23 1
  48   23   24 2
  49   23   27 1
  50   24   25 1
  51   24   50 1
  52   28   29 1
  53   28   30 1
  54   28   51 1
  55   29   30 1
  56   29   52 1
  57   29   53 1
  58   30   54 1
  59   30   55 1
  60   31   56 1

#	End of record

