#	Name: ASD00170470
#	Creating user name:	WinNT
#	Creation time:	15. 06. 2019 18:32

#	Modifying user name:	WinNT
#	Modification time:	15. 06. 2019 18:32

#	Program:	/corina/corina34_cracker 3.40 0067  02.08.2006

@<TRIPOS>MOLECULE
ASD00170470
  34   38    0    0    0
SMALL
NO_CHARGES


@<TRIPOS>ATOM
   1 C1            -0.0169     1.3928     0.0097 C.ar    
   2 C2             0.0021    -0.0041     0.0020 C.ar    
   3 C3             1.2240    -0.6840    -0.0133 C.ar    
   4 C4             2.3999     0.0272    -0.0208 C.ar    
   5 C5             2.3839     1.4192    -0.0132 C.ar    
   6 C6             1.1642     2.1000     0.0022 C.ar    
   7 C7             3.8482    -0.3908    -0.0374 C.3     
   8 C8             4.6436     0.8964    -0.0384 C.2     
   9 C9             3.7871     1.9361    -0.0243 C.2     
  10 S10            6.2973     1.5075    -0.0521 S.3     
  11 C11            5.6892     3.1580    -0.0373 C.2     
  12 N12            4.3994     3.1411    -0.0243 N.2     
  13 C13           -1.2659    -0.7613     0.0106 C.2     
  14 N14            6.4741     4.2994    -0.0388 N.pl3   
  15 O15           -1.3657    -2.1053     0.0049 O.3     
  16 C16           -2.6578    -2.4914     0.0155 C.ar    
  17 C17           -3.4477    -1.3279     0.0290 C.ar    
  18 C18           -2.5031    -0.2087     0.0313 C.2     
  19 C19           -3.2807    -3.7330     0.0147 C.ar    
  20 C20           -4.6574    -3.8103     0.0270 C.ar    
  21 C21           -5.4318    -2.6590     0.0399 C.ar    
  22 C22           -4.8399    -1.4267     0.0421 C.ar    
  23 H23           -0.9600     1.9190     0.0170 H       
  24 H24            1.2435    -1.7638    -0.0190 H       
  25 H25            1.1479     3.1799     0.0078 H       
  26 H26            4.0813    -0.9770     0.8515 H       
  27 H27            4.0635    -0.9675    -0.9370 H       
  28 H28            7.4411     4.2231    -0.0486 H       
  29 H29            6.0568     5.1750    -0.0301 H       
  30 H30           -2.7439     0.8441     0.0405 H       
  31 H31           -2.6880    -4.6358     0.0040 H       
  32 H32           -5.1381    -4.7774     0.0263 H       
  33 H33           -6.5090    -2.7369     0.0488 H       
  34 H34           -5.4469    -0.5335     0.0530 H       
@<TRIPOS>BOND
   1    1    2 ar
   2    1    6 ar
   3    1   23 1
   4    2    3 ar
   5    2   13 1
   6    3    4 ar
   7    3   24 1
   8    4    5 ar
   9    4    7 1
  10    5    6 ar
  11    5    9 1
  12    6   25 1
  13    7    8 1
  14    7   26 1
  15    7   27 1
  16    8    9 2
  17    8   10 1
  18    9   12 1
  19   10   11 1
  20   11   12 2
  21   11   14 1
  22   13   15 1
  23   13   18 2
  24   14   28 1
  25   14   29 1
  26   15   16 1
  27   16   17 ar
  28   16   19 ar
  29   17   18 1
  30   17   22 ar
  31   18   30 1
  32   19   20 ar
  33   19   31 1
  34   20   21 ar
  35   20   32 1
  36   21   22 ar
  37   21   33 1
  38   22   34 1

#	End of record

