#	Name: ASD01948351
#	Creating user name:	WinNT
#	Creation time:	15. 06. 2019 20:14

#	Modifying user name:	WinNT
#	Modification time:	15. 06. 2019 20:14

#	Program:	/corina/corina34_cracker 3.40 0067  02.08.2006

@<TRIPOS>MOLECULE
ASD01948351
  59   61    0    0    0
SMALL
NO_CHARGES


@<TRIPOS>ATOM
   1 C1            -0.7213     0.9104     1.2273 C.2     
   2 N2            -0.4695    -0.4069     1.4754 N.am    
   3 C3             0.7491    -0.9348     1.2585 C.2     
   4 C4             1.5459     1.2038     0.5147 C.2     
   5 C5             0.2516     1.7245     0.7547 C.2     
   6 C6             1.3009     2.3764    -2.0020 C.ar    
   7 C7             2.4233     2.6246    -1.2240 C.ar    
   8 N8             2.5541     2.0204     0.0310 N.pl3   
   9 C9             1.1745     2.9742    -3.2414 C.ar    
  10 C10            2.1647     3.8191    -3.7083 C.ar    
  11 C11            3.2853     4.0700    -2.9363 C.ar    
  12 C12            3.4182     3.4754    -1.6954 C.ar    
  13 N13           -0.0220     3.0790     0.5033 N.am    
  14 S14           -1.5671     3.6543     0.6579 S.o2    
  15 C15           -1.7644     3.9491     2.4369 C.3     
  16 O16            0.9491    -2.1181     1.4883 O.2     
  17 C17           -1.5438    -1.2615     1.9870 C.3     
  18 F18            4.5122     3.7202    -0.9414 F       
  19 I19            1.9674     4.7218    -5.5885 I       
  20 O20           -1.5558     4.8845    -0.0532 O.2     
  21 O21           -2.3874     2.5727     0.2377 O.2     
  22 C22            1.7874    -0.1354     0.7710 C.2     
  23 C23            3.1532    -0.7240     0.5278 C.3     
  24 C24           -3.1937     4.3384     2.8197 C.3     
  25 C25           -3.5421     5.6867     2.1860 C.3     
  26 O26           -4.8317     6.1059     2.6368 O.3     
  27 O27           -1.3187    -1.5318     3.3720 O.3     
  28 C28           -1.6807    -0.4563     4.2405 C.3     
  29 C29           -1.1736     2.8337     3.3154 C.3     
  30 C30           -0.6742     3.9452     4.2535 C.3     
  31 C31           -0.6929     4.8792     3.0298 C.3     
  32 C32           -1.5256    -0.9017     5.6960 C.3     
  33 H33           -1.7096     1.3077     1.4058 H       
  34 H34            0.5290     1.7130    -1.6408 H       
  35 H35            3.3511     2.1735     0.5623 H       
  36 H36            0.3011     2.7809    -3.8465 H       
  37 H37            4.0571     4.7301    -3.3038 H       
  38 H38            0.6942     3.6775     0.2390 H       
  39 H39           -2.5006    -0.7534     1.8668 H       
  40 H40           -1.5580    -2.1991     1.4314 H       
  41 H41            3.1692    -1.7586     0.8705 H       
  42 H42            3.3785    -0.6908    -0.5381 H       
  43 H43            3.8996    -0.1484     1.0751 H       
  44 H44           -3.8863     3.5778     2.4593 H       
  45 H45           -3.2711     4.4158     3.9041 H       
  46 H46           -2.7972     6.4278     2.4760 H       
  47 H47           -3.5515     5.5865     1.1006 H       
  48 H48           -5.1181     6.9554     2.2743 H       
  49 H49           -1.0311     0.3982     4.0508 H       
  50 H50           -2.7169    -0.1731     4.0557 H       
  51 H51           -1.9269     2.1876     3.7661 H       
  52 H52           -0.3708     2.2766     2.8324 H       
  53 H53           -1.3938     4.2225     5.0238 H       
  54 H54            0.3246     3.7650     4.6511 H       
  55 H55            0.2413     4.8817     2.4681 H       
  56 H56           -1.0574     5.8822     3.2515 H       
  57 H57           -2.1752    -1.7562     5.8856 H       
  58 H58           -0.4894    -1.1850     5.8808 H       
  59 H59           -1.8017    -0.0813     6.3584 H       
@<TRIPOS>BOND
   1    1    2 1
   2    1    5 2
   3    1   33 1
   4    2    3 am
   5    2   17 1
   6    3   22 1
   7    3   16 2
   8    4    5 1
   9    4    8 1
  10    4   22 2
  11    5   13 1
  12    6    7 ar
  13    6    9 ar
  14    6   34 1
  15    7    8 1
  16    7   12 ar
  17    8   35 1
  18    9   10 ar
  19    9   36 1
  20   10   11 ar
  21   10   19 1
  22   11   12 ar
  23   11   37 1
  24   12   18 1
  25   13   14 am
  26   13   38 1
  27   14   15 1
  28   14   20 2
  29   14   21 2
  30   15   24 1
  31   15   29 1
  32   15   31 1
  33   17   27 1
  34   17   39 1
  35   17   40 1
  36   22   23 1
  37   23   41 1
  38   23   42 1
  39   23   43 1
  40   24   25 1
  41   24   44 1
  42   24   45 1
  43   25   26 1
  44   25   46 1
  45   25   47 1
  46   26   48 1
  47   27   28 1
  48   28   32 1
  49   28   49 1
  50   28   50 1
  51   29   30 1
  52   29   51 1
  53   29   52 1
  54   30   31 1
  55   30   53 1
  56   30   54 1
  57   31   55 1
  58   31   56 1
  59   32   57 1
  60   32   58 1
  61   32   59 1

#	End of record

