#	Name: ASD03331860
#	Creating user name:	WinNT
#	Creation time:	15. 06. 2019 20:40

#	Modifying user name:	WinNT
#	Modification time:	15. 06. 2019 20:40

#	Program:	/corina/corina34_cracker 3.40 0067  02.08.2006

@<TRIPOS>MOLECULE
ASD03331860
  45   47    0    0    0
SMALL
NO_CHARGES


@<TRIPOS>ATOM
   1 C1             8.1035     1.5085    -3.4637 C.ar    
   2 C2             8.5670     0.2453    -3.0851 C.ar    
   3 C3             8.0653    -0.3623    -1.9306 C.ar    
   4 C4             7.1169     0.2849    -1.1706 C.ar    
   5 C5             6.6576     1.5417    -1.5508 C.ar    
   6 C6             7.1550     2.1497    -2.6989 C.ar    
   7 N7             5.6961     2.1943    -0.7784 N.am    
   8 C8             5.7109     3.5383    -0.6782 C.2     
   9 N9             4.7216     4.1760    -0.0216 N.am    
  10 O10            6.6166     4.1754    -1.1801 O.2     
  11 C11            4.7915     5.5597     0.1762 C.ar    
  12 C12            3.6930     7.6857     0.3878 C.ar    
  13 C13            3.6281     6.3189     0.1927 C.ar    
  14 C14            6.0216     6.1725     0.3617 C.ar    
  15 C15            6.0861     7.5495     0.5586 C.ar    
  16 C16            4.9138     8.3041     0.5683 C.ar    
  17 C17            7.3983     8.2115     0.7581 C.ar    
  18 N18            8.5017     7.4765     0.7460 N.ar    
  19 C19            9.6911     8.0314     0.9200 C.ar    
  20 C20            9.7781     9.3967     1.1167 C.ar    
  21 C21            8.5986    10.1455     1.1245 C.ar    
  22 N22            7.4393     9.5241     0.9386 N.ar    
  23 N23            8.6379    11.5168     1.3186 N.pl3   
  24 C24            9.9269    12.2073     1.4080 C.3     
  25 C25            7.3905    12.2763     1.4343 C.3     
  26 C26            9.5531    -0.4248    -3.8782 C.1     
  27 N27           10.3353    -0.9565    -4.5075 N.1     
  28 H28            8.4922     1.9829    -4.3527 H       
  29 H29            8.4208    -1.3384    -1.6352 H       
  30 H30            6.7288    -0.1840    -0.2785 H       
  31 H31            6.7964     3.1257    -2.9908 H       
  32 H32            5.0170     1.6807    -0.3136 H       
  33 H33            3.9611     3.6759     0.3138 H       
  34 H34            2.7858     8.2716     0.3990 H       
  35 H35            2.6704     5.8398     0.0522 H       
  36 H36            6.9268     5.5836     0.3537 H       
  37 H37            4.9606     9.3723     0.7205 H       
  38 H38           10.5838     7.4237     0.9088 H       
  39 H39           10.7361     9.8739     1.2615 H       
  40 H40           10.2400    12.5228     0.4127 H       
  41 H41            9.8270    13.0814     2.0515 H       
  42 H42           10.6728    11.5316     1.8264 H       
  43 H43            7.0878    12.3205     2.4805 H       
  44 H44            7.5445    13.2875     1.0576 H       
  45 H45            6.6112    11.7860     0.8510 H       
@<TRIPOS>BOND
   1    1    2 ar
   2    1    6 ar
   3    1   28 1
   4    2    3 ar
   5    2   26 1
   6    3    4 ar
   7    3   29 1
   8    4    5 ar
   9    4   30 1
  10    5    6 ar
  11    5    7 1
  12    6   31 1
  13    7    8 am
  14    7   32 1
  15    8    9 am
  16    8   10 2
  17    9   11 1
  18    9   33 1
  19   11   14 ar
  20   11   13 ar
  21   12   13 ar
  22   12   16 ar
  23   12   34 1
  24   13   35 1
  25   14   15 ar
  26   14   36 1
  27   15   16 ar
  28   15   17 1
  29   16   37 1
  30   17   18 ar
  31   17   22 ar
  32   18   19 ar
  33   19   20 ar
  34   19   38 1
  35   20   21 ar
  36   20   39 1
  37   21   22 ar
  38   21   23 1
  39   23   24 1
  40   23   25 1
  41   24   40 1
  42   24   41 1
  43   24   42 1
  44   25   43 1
  45   25   44 1
  46   25   45 1
  47   26   27 3

#	End of record

