#	Name: ASD01814492
#	Creating user name:	WinNT
#	Creation time:	15. 06. 2019 19:32

#	Modifying user name:	WinNT
#	Modification time:	15. 06. 2019 19:32

#	Program:	/corina/corina34_cracker 3.40 0067  02.08.2006

@<TRIPOS>MOLECULE
ASD01814492
  63   68    0    0    0
SMALL
NO_CHARGES


@<TRIPOS>ATOM
   1 C1            -0.0167     1.3811     0.0096 C.ar    
   2 C2             0.0021    -0.0041     0.0020 C.ar    
   3 N3             1.1324    -0.6805    -0.0120 N.ar    
   4 C4             2.3086    -0.0705    -0.0199 C.ar    
   5 C5             2.3609     1.3370    -0.0133 C.ar    
   6 C6             1.1828     2.0751     0.0019 C.ar    
   7 N7             3.4842    -0.7898    -0.0340 N.pl3   
   8 N8             4.6484    -0.2529    -0.0414 N.2     
   9 C9             4.8548     1.0375    -0.0367 C.2     
  10 C10            3.6945     1.9630    -0.0221 C.2     
  11 C11            3.3985    -2.2523    -0.0406 C.3     
  12 C12            3.3563    -2.7467    -1.4636 C.ar    
  13 C13            4.5343    -3.0428    -2.1253 C.ar    
  14 C14            4.5015    -3.4964    -3.4285 C.ar    
  15 C15            3.2789    -3.6557    -4.0774 C.ar    
  16 C16            2.0953    -3.3559    -3.4060 C.ar    
  17 C17            2.1395    -2.9080    -2.1012 C.ar    
  18 C18            3.2374    -4.1425    -5.4787 C.ar    
  19 C19            6.0310     1.9111    -0.0430 C.2     
  20 N20            5.5596     3.1765    -0.0328 N.am    
  21 N21            4.1626     3.1749    -0.0205 N.2     
  22 O22            7.2004     1.5650    -0.0550 O.2     
  23 C23            6.3947     4.3802    -0.0345 C.3     
  24 C24            6.0824     5.2182    -1.2782 C.3     
  25 C25            6.9038     6.5102    -1.2293 C.3     
  26 C26            6.5884     7.2575     0.0690 C.3     
  27 O27            6.8720     6.4113     1.1851 O.3     
  28 C28            6.0989     5.2098     1.2177 C.3     
  29 C29            4.4161    -4.4443    -6.1576 C.ar    
  30 N30            4.3853    -4.8767    -7.4017 N.ar    
  31 C31            3.2521    -5.0423    -8.0544 C.ar    
  32 C32            2.0320    -4.7636    -7.4493 C.ar    
  33 C33            2.0161    -4.3106    -6.1346 C.ar    
  34 N34            0.8369    -4.9424    -8.1509 N.pl3   
  35 C35            0.8644    -5.4264    -9.5333 C.3     
  36 C36           -0.4436    -4.6457    -7.5039 C.3     
  37 H37           -0.9559     1.9142     0.0170 H       
  38 H38           -0.9338    -0.5431     0.0080 H       
  39 H39            1.2018     3.1549     0.0075 H       
  40 H40            4.2703    -2.6696     0.4634 H       
  41 H41            2.4934    -2.5656     0.4798 H       
  42 H42            5.4815    -2.9186    -1.6215 H       
  43 H43            5.4219    -3.7270    -3.9444 H       
  44 H44            1.1449    -3.4776    -3.9043 H       
  45 H45            1.2228    -2.6754    -1.5799 H       
  46 H46            7.4464     4.0940    -0.0429 H       
  47 H47            6.3435     4.6537    -2.1732 H       
  48 H48            5.0201     5.4620    -1.2962 H       
  49 H49            7.9661     6.2678    -1.2613 H       
  50 H50            6.6466     7.1378    -2.0826 H       
  51 H51            7.2019     8.1564     0.1293 H       
  52 H52            5.5344     7.5350     0.0819 H       
  53 H53            5.0385     5.4606     1.2455 H       
  54 H54            6.3598     4.6337     2.1054 H       
  55 H55            5.3659    -4.3218    -5.6584 H       
  56 H56            3.2719    -5.3991    -9.0736 H       
  57 H57            1.0843    -4.0856    -5.6372 H       
  58 H58            0.8176    -6.5154    -9.5380 H       
  59 H59            0.0094    -5.0237   -10.0764 H       
  60 H60            1.7866    -5.1003   -10.0142 H       
  61 H61           -0.7076    -3.6032    -7.6817 H       
  62 H62           -1.2178    -5.2921    -7.9173 H       
  63 H63           -0.3581    -4.8211    -6.4316 H       
@<TRIPOS>BOND
   1    1    2 ar
   2    1    6 ar
   3    1   37 1
   4    2    3 ar
   5    2   38 1
   6    3    4 ar
   7    4    5 ar
   8    4    7 1
   9    5    6 ar
  10    5   10 1
  11    6   39 1
  12    7    8 1
  13    7   11 1
  14    8    9 2
  15    9   10 1
  16    9   19 1
  17   10   21 2
  18   11   12 1
  19   11   40 1
  20   11   41 1
  21   12   13 ar
  22   12   17 ar
  23   13   14 ar
  24   13   42 1
  25   14   15 ar
  26   14   43 1
  27   15   16 ar
  28   15   18 1
  29   16   17 ar
  30   16   44 1
  31   17   45 1
  32   18   29 ar
  33   18   33 ar
  34   19   20 am
  35   19   22 2
  36   20   21 1
  37   20   23 1
  38   23   24 1
  39   23   28 1
  40   23   46 1
  41   24   25 1
  42   24   47 1
  43   24   48 1
  44   25   26 1
  45   25   49 1
  46   25   50 1
  47   26   27 1
  48   26   51 1
  49   26   52 1
  50   27   28 1
  51   28   53 1
  52   28   54 1
  53   29   30 ar
  54   29   55 1
  55   30   31 ar
  56   31   32 ar
  57   31   56 1
  58   32   33 ar
  59   32   34 1
  60   33   57 1
  61   34   35 1
  62   34   36 1
  63   35   58 1
  64   35   59 1
  65   35   60 1
  66   36   61 1
  67   36   62 1
  68   36   63 1

#	End of record

