#	Name: ASD00960254
#	Creating user name:	WinNT
#	Creation time:	15. 06. 2019 18:53

#	Modifying user name:	WinNT
#	Modification time:	15. 06. 2019 18:53

#	Program:	/corina/corina34_cracker 3.40 0067  02.08.2006

@<TRIPOS>MOLECULE
ASD00960254
  48   51    0    0    0
SMALL
NO_CHARGES


@<TRIPOS>ATOM
   1 C1            -0.0765     1.4318    -0.1901 C.2     
   2 C2            -0.0971     0.0505    -0.0985 C.2     
   3 N3             1.2182     1.8364    -0.0052 N.pl3   
   4 C4             1.9928     0.7260     0.2130 C.2     
   5 C5             1.2173    -0.3684     0.1538 C.2     
   6 N6             1.7671     3.1273    -0.0033 N.2     
   7 C7             3.0698     3.2470    -0.0129 C.2     
   8 N8             3.9032     2.1366    -0.0919 N.pl3   
   9 C9             3.4762     0.8469     0.4805 C.3     
  10 N10            3.7304     0.8299     1.9272 N.3     
  11 C11            3.6698     4.5939     0.0615 C.2     
  12 N12            2.8774     5.6814     0.1381 N.am    
  13 O13            4.8789     4.7221     0.0536 O.2     
  14 C14            3.4436     6.9484     0.3067 C.ar    
  15 C15            4.6543     7.2562    -0.3007 C.ar    
  16 C16            2.7939     7.9043     1.0772 C.ar    
  17 C17            3.3557     9.1552     1.2413 C.ar    
  18 C18            4.5635     9.4567     0.6391 C.ar    
  19 C19            5.2106     8.5090    -0.1325 C.ar    
  20 C20           -1.2270     2.2999    -0.4443 C.2     
  21 O21           -2.3322     1.8157    -0.5974 O.2     
  22 O22           -1.0616     3.6372    -0.5090 O.3     
  23 C23           -2.2279     4.4237    -0.7602 C.3     
  24 C24           -1.8516     5.8825    -0.7977 C.ar    
  25 C25           -1.4803     6.4701    -1.9925 C.ar    
  26 C26           -1.1350     7.8082    -2.0269 C.ar    
  27 C27           -1.1616     8.5588    -0.8664 C.ar    
  28 C28           -1.5339     7.9715     0.3283 C.ar    
  29 C29           -1.8833     6.6344     0.3619 C.ar    
  30 H30           -0.9638    -0.5856    -0.2016 H       
  31 H31            1.5470    -1.3893     0.2783 H       
  32 H32            4.7679     2.2110    -0.5251 H       
  33 H33            4.0101     0.0289    -0.0031 H       
  34 H34            4.7120     0.9563     2.1234 H       
  35 H35            3.1745     1.5265     2.4003 H       
  36 H36            1.9142     5.5849     0.0764 H       
  37 H37            5.1602     6.5165    -0.9035 H       
  38 H38            1.8502     7.6697     1.5472 H       
  39 H39            2.8511     9.8988     1.8402 H       
  40 H40            5.0006    10.4358     0.7687 H       
  41 H41            6.1538     8.7477    -0.6015 H       
  42 H42           -2.6611     4.1356    -1.7181 H       
  43 H43           -2.9566     4.2567     0.0330 H       
  44 H44           -1.4595     5.8836    -2.8992 H       
  45 H45           -0.8442     8.2671    -2.9603 H       
  46 H46           -0.8912     9.6041    -0.8931 H       
  47 H47           -1.5543     8.5579     1.2350 H       
  48 H48           -2.1777     6.1765     1.2946 H       
@<TRIPOS>BOND
   1    1    2 2
   2    1    3 1
   3    1   20 1
   4    2    5 1
   5    2   30 1
   6    3    4 1
   7    3    6 1
   8    4    5 2
   9    4    9 1
  10    5   31 1
  11    6    7 2
  12    7    8 1
  13    7   11 1
  14    8    9 1
  15    8   32 1
  16    9   10 1
  17    9   33 1
  18   10   34 1
  19   10   35 1
  20   11   12 am
  21   11   13 2
  22   12   14 1
  23   12   36 1
  24   14   15 ar
  25   14   16 ar
  26   15   19 ar
  27   15   37 1
  28   16   17 ar
  29   16   38 1
  30   17   18 ar
  31   17   39 1
  32   18   19 ar
  33   18   40 1
  34   19   41 1
  35   20   21 2
  36   20   22 1
  37   22   23 1
  38   23   24 1
  39   23   42 1
  40   23   43 1
  41   24   25 ar
  42   24   29 ar
  43   25   26 ar
  44   25   44 1
  45   26   27 ar
  46   26   45 1
  47   27   28 ar
  48   27   46 1
  49   28   29 ar
  50   28   47 1
  51   29   48 1

#	End of record

