#	Name: ASD01870241
#	Creating user name:	WinNT
#	Creation time:	15. 06. 2019 19:38

#	Modifying user name:	WinNT
#	Modification time:	15. 06. 2019 19:38

#	Program:	/corina/corina34_cracker 3.40 0067  02.08.2006

@<TRIPOS>MOLECULE
ASD01870241
  52   56    0    0    0
SMALL
NO_CHARGES


@<TRIPOS>ATOM
   1 C1             0.1144     1.2996     0.9768 C.ar    
   2 C2             0.1011    -0.0712     0.7311 C.ar    
   3 C3             1.2238    -0.7219     0.3133 C.ar    
   4 C4             2.4117    -0.0023     0.1267 C.ar    
   5 C5             2.4250     1.3966     0.3770 C.ar    
   6 C6             1.2510     2.0322     0.8064 C.ar    
   7 C7             3.6002    -0.6209    -0.3034 C.ar    
   8 N8             4.6916     0.0799    -0.4676 N.ar    
   9 C9             4.7489     1.3999    -0.2434 C.ar    
  10 C10            3.6262     2.0900     0.1816 C.ar    
  11 C11            5.8628     2.3653    -0.3661 C.2     
  12 N12            5.4506     3.5999    -0.0323 N.am    
  13 C13            4.0313     3.5330     0.3348 C.3     
  14 C14            6.2785     4.8085    -0.0336 C.3     
  15 C15            5.9837     5.6329     1.2233 C.3     
  16 C16            6.3720     4.8192     2.4605 C.3     
  17 O17            7.7528     4.4601     2.3788 O.3     
  18 C18            8.0787     3.6488     1.2485 C.3     
  19 C19            7.7590     4.4155    -0.0375 C.3     
  20 C20            3.6152    -2.1029    -0.5763 C.3     
  21 C21            3.2587    -2.3516    -2.0192 C.ar    
  22 C22            4.2455    -2.4007    -2.9847 C.ar    
  23 N23            3.9419    -2.6180    -4.2499 N.ar    
  24 C24            2.6951    -2.7962    -4.6431 C.ar    
  25 C25            1.6541    -2.7602    -3.7318 C.ar    
  26 C26            1.9363    -2.5396    -2.3932 C.ar    
  27 O27            6.9910     2.0820    -0.7189 O.2     
  28 O28            4.5899     5.9439     1.2744 O.3     
  29 Cl29           2.3566    -3.0783    -6.3222 Cl      
  30 C30            3.2032     4.4143    -0.6025 C.3     
  31 H31           -0.7907     1.7903     1.3031 H       
  32 H32           -0.8133    -0.6277     0.8742 H       
  33 H33            1.1980    -1.7855     0.1275 H       
  34 H34            1.2473     3.0947     0.9998 H       
  35 H35            3.8958     3.8527     1.3680 H       
  36 H36            6.0552     5.4025    -0.9199 H       
  37 H37            6.5630     6.5558     1.1978 H       
  38 H38            6.2043     5.4172     3.3563 H       
  39 H39            5.7637     3.9159     2.5072 H       
  40 H40            9.1406     3.4036     1.2710 H       
  41 H41            7.4927     2.7302     1.2792 H       
  42 H42            7.9654     3.7820    -0.9001 H       
  43 H43            8.3742     5.3138    -0.0885 H       
  44 H44            4.6103    -2.4995    -0.3743 H       
  45 H45            2.8890    -2.5983     0.0680 H       
  46 H46            5.2778    -2.2593    -2.7004 H       
  47 H47            0.6353    -2.9061    -4.0592 H       
  48 H48            1.1444    -2.5068    -1.6596 H       
  49 H49            4.3314     6.4658     2.0464 H       
  50 H50            3.3238     4.0671    -1.6287 H       
  51 H51            2.1518     4.3569    -0.3207 H       
  52 H52            3.5440     5.4468    -0.5258 H       
@<TRIPOS>BOND
   1    1    2 ar
   2    1    6 ar
   3    1   31 1
   4    2    3 ar
   5    2   32 1
   6    3    4 ar
   7    3   33 1
   8    4    5 ar
   9    4    7 ar
  10    5    6 ar
  11    5   10 ar
  12    6   34 1
  13    7    8 ar
  14    7   20 1
  15    8    9 ar
  16    9   10 ar
  17    9   11 1
  18   10   13 1
  19   11   12 am
  20   11   27 2
  21   12   13 1
  22   12   14 1
  23   13   30 1
  24   13   35 1
  25   14   15 1
  26   14   19 1
  27   14   36 1
  28   15   16 1
  29   15   28 1
  30   15   37 1
  31   16   17 1
  32   16   38 1
  33   16   39 1
  34   17   18 1
  35   18   19 1
  36   18   40 1
  37   18   41 1
  38   19   42 1
  39   19   43 1
  40   20   21 1
  41   20   44 1
  42   20   45 1
  43   21   22 ar
  44   21   26 ar
  45   22   23 ar
  46   22   46 1
  47   23   24 ar
  48   24   25 ar
  49   24   29 1
  50   25   26 ar
  51   25   47 1
  52   26   48 1
  53   28   49 1
  54   30   50 1
  55   30   51 1
  56   30   52 1

#	End of record

