#	Name: ASD01940678
#	Creating user name:	WinNT
#	Creation time:	15. 06. 2019 20:13

#	Modifying user name:	WinNT
#	Modification time:	15. 06. 2019 20:13

#	Program:	/corina/corina34_cracker 3.40 0067  02.08.2006

@<TRIPOS>MOLECULE
ASD01940678
  40   42    0    0    0
SMALL
NO_CHARGES


@<TRIPOS>ATOM
   1 C1             0.6155     0.4212    -1.4284 C.ar    
   2 C2            -0.0616    -0.1015    -0.3421 C.ar    
   3 C3             0.4732     0.0086     0.9302 C.ar    
   4 C4             1.6899     0.6438     1.1206 C.ar    
   5 C5             2.3743     1.1706     0.0334 C.ar    
   6 C6             1.8340     1.0581    -1.2466 C.ar    
   7 N7             2.5206     1.5874    -2.3475 N.am    
   8 S8             1.6820     2.0773    -3.6888 S.o2    
   9 C9             0.7551     3.5352    -3.1357 C.3     
  10 O10            2.6918     2.4508    -4.6163 O.2     
  11 O11            0.7982     0.9989    -3.9628 O.2     
  12 F12           -0.1927    -0.5039     1.9881 F       
  13 F13            2.2095     0.7509     2.3630 F       
  14 N14            3.6052     1.8143     0.2225 N.pl3   
  15 C15            4.7973     1.1090     0.0416 C.ar    
  16 C16            6.0127     1.7028     0.3595 C.ar    
  17 C17            4.7698    -0.1895    -0.4512 C.ar    
  18 C18            5.9502    -0.8842    -0.6290 C.ar    
  19 C19            7.1588    -0.2884    -0.3166 C.ar    
  20 C20            7.1892     1.0030     0.1794 C.ar    
  21 C21            6.0467     3.1092     0.8997 C.3     
  22 I22            8.9466    -1.3466    -0.5867 I       
  23 C23           -0.2254     4.1665    -4.1261 C.3     
  24 C24           -0.7522     3.3764    -2.9265 C.3     
  25 C25           -0.3752     5.6306    -4.0945 C.1     
  26 N26           -0.4908     6.7604    -4.0701 N.1     
  27 H27            0.1973     0.3295    -2.4200 H       
  28 H28           -1.0105    -0.5967    -0.4863 H       
  29 H29            3.4870     1.6669    -2.3238 H       
  30 H30            1.2894     4.2039    -2.4610 H       
  31 H31            3.6291     2.7495     0.4790 H       
  32 H32            3.8264    -0.6555    -0.6947 H       
  33 H33            5.9296    -1.8937    -1.0121 H       
  34 H34            8.1345     1.4655     0.4221 H       
  35 H35            5.9833     3.0822     1.9876 H       
  36 H36            6.9783     3.5904     0.6019 H       
  37 H37            5.2032     3.6723     0.5005 H       
  38 H38           -0.3135     3.7059    -5.1101 H       
  39 H39           -1.1869     2.3960    -3.1213 H       
  40 H40           -1.2098     3.9407    -2.1139 H       
@<TRIPOS>BOND
   1    1    2 ar
   2    1    6 ar
   3    1   27 1
   4    2    3 ar
   5    2   28 1
   6    3    4 ar
   7    3   12 1
   8    4    5 ar
   9    4   13 1
  10    5    6 ar
  11    5   14 1
  12    6    7 1
  13    7    8 am
  14    7   29 1
  15    8    9 1
  16    8   10 2
  17    8   11 2
  18    9   23 1
  19    9   24 1
  20    9   30 1
  21   14   15 1
  22   14   31 1
  23   15   16 ar
  24   15   17 ar
  25   16   21 1
  26   16   20 ar
  27   17   18 ar
  28   17   32 1
  29   18   19 ar
  30   18   33 1
  31   19   20 ar
  32   19   22 1
  33   20   34 1
  34   21   35 1
  35   21   36 1
  36   21   37 1
  37   23   24 1
  38   23   25 1
  39   23   38 1
  40   24   39 1
  41   24   40 1
  42   25   26 3

#	End of record

