#	Name: ASD00190021
#	Creating user name:	WinNT
#	Creation time:	15. 06. 2019 18:33

#	Modifying user name:	WinNT
#	Modification time:	15. 06. 2019 18:33

#	Program:	/corina/corina34_cracker 3.40 0067  02.08.2006

@<TRIPOS>MOLECULE
ASD00190021
  62   62    0    0    0
SMALL
NO_CHARGES


@<TRIPOS>ATOM
   1 C1             0.3077     2.3874     1.4551 C.2     
   2 C2             0.8526     1.1152     2.0515 C.3     
   3 C3            -0.0189     0.6872     3.2041 C.2     
   4 C4             1.0309     3.4796     1.4692 C.2     
   5 C5            -0.4897    -0.5343     3.2510 C.2     
   6 C6             2.3228     3.5179     2.2442 C.3     
   7 C7             3.4710     3.7476     1.2955 C.2     
   8 C8            -0.0194    -1.5619     2.2540 C.3     
   9 C9             0.4416    -2.7966     2.9848 C.2     
  10 C10            4.3127     4.7280     1.5110 C.2     
  11 C11           -0.0272    -3.9719     2.6455 C.2     
  12 C12            4.2298     5.5254     2.7871 C.3     
  13 C13            5.6082     5.5726     3.4494 C.3     
  14 C14            5.5240     6.3822     4.7450 C.3     
  15 C15            6.8817     6.4287     5.3974 C.2     
  16 N16            7.0490     7.0918     6.5587 N.am    
  17 C17           -0.8857    -4.1142     1.4152 C.3     
  18 C18           -0.3244    -5.2268     0.5275 C.3     
  19 C19           -1.1960    -5.3713    -0.7216 C.3     
  20 C20           -0.6347    -6.4839    -1.6093 C.3     
  21 C21           -1.5063    -6.6283    -2.8584 C.3     
  22 O22            7.8238     5.8693     4.8773 O.2     
  23 C23            8.3688     7.1370     7.1929 C.3     
  24 C24            8.6652     8.3142     8.1241 C.3     
  25 C25            8.4334     6.9182     8.7058 C.3     
  26 H26           -0.6772     2.3976     1.0122 H       
  27 H27            0.8613     0.3328     1.2926 H       
  28 H28            1.8682     1.2869     2.4081 H       
  29 H29           -0.2552     1.3876     3.9915 H       
  30 H30            0.7012     4.3526     0.9255 H       
  31 H31           -1.2150    -0.8050     4.0040 H       
  32 H32            2.2857     4.3280     2.9725 H       
  33 H33            2.4638     2.5695     2.7625 H       
  34 H34            3.5999     3.1038     0.4380 H       
  35 H35           -0.8398    -1.8209     1.5847 H       
  36 H36            0.8078    -1.1531     1.6737 H       
  37 H37            1.1584    -2.7126     3.7882 H       
  38 H38            5.0660     4.9648     0.7742 H       
  39 H39            0.2016    -4.8388     3.2476 H       
  40 H40            3.9004     6.5396     2.5610 H       
  41 H41            3.5172     5.0544     3.4642 H       
  42 H42            5.9376     4.5584     3.6755 H       
  43 H43            6.3207     6.0436     2.7723 H       
  44 H44            5.1947     7.3963     4.5189 H       
  45 H45            4.8115     5.9112     5.4221 H       
  46 H46            6.2955     7.5392     6.9746 H       
  47 H47           -1.9048    -4.3640     1.7102 H       
  48 H48           -0.8874    -3.1746     0.8627 H       
  49 H49            0.6948    -4.9769     0.2325 H       
  50 H50           -0.3227    -6.1664     1.0800 H       
  51 H51           -2.2151    -5.6211    -0.4266 H       
  52 H52           -1.1977    -4.4317    -1.2741 H       
  53 H53            0.3845    -6.2340    -1.9043 H       
  54 H54           -0.6330    -7.4235    -1.0568 H       
  55 H55           -2.5254    -6.8782    -2.5634 H       
  56 H56           -1.5079    -5.6887    -3.4109 H       
  57 H57           -1.1064    -7.4210    -3.4908 H       
  58 H58            9.1923     6.7504     6.5925 H       
  59 H59            9.6838     8.7019     8.1366 H       
  60 H60            7.8782     9.0551     8.2648 H       
  61 H61            7.4940     6.7407     9.2293 H       
  62 H62            9.2996     6.3875     9.1010 H       
@<TRIPOS>BOND
   1    1    2 1
   2    1    4 2
   3    1   26 1
   4    2    3 1
   5    2   27 1
   6    2   28 1
   7    3    5 2
   8    3   29 1
   9    4    6 1
  10    4   30 1
  11    5    8 1
  12    5   31 1
  13    6    7 1
  14    6   32 1
  15    6   33 1
  16    7   10 2
  17    7   34 1
  18    8    9 1
  19    8   35 1
  20    8   36 1
  21    9   11 2
  22    9   37 1
  23   10   12 1
  24   10   38 1
  25   11   17 1
  26   11   39 1
  27   12   13 1
  28   12   40 1
  29   12   41 1
  30   13   14 1
  31   13   42 1
  32   13   43 1
  33   14   15 1
  34   14   44 1
  35   14   45 1
  36   15   16 am
  37   15   22 2
  38   16   23 1
  39   16   46 1
  40   17   18 1
  41   17   47 1
  42   17   48 1
  43   18   19 1
  44   18   49 1
  45   18   50 1
  46   19   20 1
  47   19   51 1
  48   19   52 1
  49   20   21 1
  50   20   53 1
  51   20   54 1
  52   21   55 1
  53   21   56 1
  54   21   57 1
  55   23   24 1
  56   23   25 1
  57   23   58 1
  58   24   25 1
  59   24   59 1
  60   24   60 1
  61   25   61 1
  62   25   62 1

#	End of record

