#	Name: ASD03092391
#	Creating user name:	WinNT
#	Creation time:	15. 06. 2019 20:32

#	Modifying user name:	WinNT
#	Modification time:	15. 06. 2019 20:32

#	Program:	/corina/corina34_cracker 3.40 0067  02.08.2006

@<TRIPOS>MOLECULE
ASD03092391
  59   62    0    0    0
SMALL
NO_CHARGES


@<TRIPOS>ATOM
   1 C1            -0.0388     1.4498    -0.1336 C.3     
   2 C2            -0.0192    -0.0794    -0.1797 C.3     
   3 C3             1.2959     0.7024    -0.1633 C.3     
   4 C4            -0.5360     3.6683    -1.1235 C.2     
   5 C5            -0.4626     2.1894    -1.4041 C.3     
   6 O6            -0.2750     4.0892    -0.0165 O.2     
   7 N7            -0.8917     4.5231    -2.1029 N.am    
   8 C8            -0.9631     5.9608    -1.8302 C.3     
   9 S9            -1.4014     7.9817    -5.2539 S.3     
  10 C10           -2.8718     7.4937    -4.5314 C.2     
  11 N11           -2.6394     6.8466    -3.4291 N.2     
  12 C12           -1.3806     6.6893    -3.0816 C.2     
  13 C13           -0.4946     7.2356    -3.9405 C.2     
  14 C14            2.9699     7.5856    -2.5336 C.ar    
  15 C15            1.5947     7.6249    -2.6174 C.ar    
  16 C16            0.9748     7.2117    -3.8041 C.ar    
  17 C17            1.7892     6.7745    -4.8576 C.ar    
  18 C18            3.1563     6.7684    -4.6864 C.ar    
  19 N19            3.6995     7.1665    -3.5507 N.ar    
  20 C20            1.1789     6.3177    -6.1575 C.3     
  21 C21            3.6502     8.0331    -1.2656 C.3     
  22 N22           -4.1291     7.7514    -5.0465 N.3     
  23 C23           -5.1778     7.1940    -4.1800 C.3     
  24 C24           -6.5469     7.4491    -4.8161 C.3     
  25 O25           -6.7125     8.8531    -5.0320 O.3     
  26 C26           -5.7085     9.4288    -5.8723 C.3     
  27 C27           -4.3310     9.1938    -5.2469 C.3     
  28 C28           -5.9575    10.9321    -6.0095 C.3     
  29 C29           -7.6470     6.9428    -3.8810 C.3     
  30 H30           -0.3308     1.9213     0.8048 H       
  31 H31           -0.2983    -0.6139     0.7284 H       
  32 H32           -0.3083    -0.5585    -1.1151 H       
  33 H33            1.8720     0.7376    -1.0879 H       
  34 H34            1.8820     0.6822     0.7556 H       
  35 H35            0.2671     2.0050    -2.1925 H       
  36 H36           -1.4412     1.8313    -1.7237 H       
  37 H37           -1.1005     4.1865    -2.9884 H       
  38 H38           -1.6928     6.1452    -1.0418 H       
  39 H39            0.0155     6.3189    -1.5106 H       
  40 H40            1.0041     7.9687    -1.7812 H       
  41 H41            3.7924     6.4329    -5.4922 H       
  42 H42            0.9922     7.1820    -6.7948 H       
  43 H43            1.8645     5.6362    -6.6612 H       
  44 H44            0.2385     5.8044    -5.9569 H       
  45 H45            3.7645     7.1817    -0.5947 H       
  46 H46            4.6320     8.4417    -1.5047 H       
  47 H47            3.0461     8.7996    -0.7802 H       
  48 H48           -5.0237     6.1210    -4.0661 H       
  49 H49           -5.1355     7.6743    -3.2024 H       
  50 H50           -6.6087     6.9245    -5.7695 H       
  51 H51           -5.7459     8.9617    -6.8564 H       
  52 H52           -4.2752     9.7060    -4.2864 H       
  53 H53           -3.5587     9.5805    -5.9118 H       
  54 H54           -5.9180    11.3983    -5.0250 H       
  55 H55           -5.1921    11.3702    -6.6500 H       
  56 H56           -6.9400    11.0988    -6.4512 H       
  57 H57           -7.5853     7.4695    -2.9287 H       
  58 H58           -8.6214     7.1246    -4.3344 H       
  59 H59           -7.5179     5.8734    -3.7138 H       
@<TRIPOS>BOND
   1    1    2 1
   2    1    3 1
   3    1    5 1
   4    1   30 1
   5    2    3 1
   6    2   31 1
   7    2   32 1
   8    3   33 1
   9    3   34 1
  10    4    5 1
  11    4    6 2
  12    4    7 am
  13    5   35 1
  14    5   36 1
  15    7    8 1
  16    7   37 1
  17    8   12 1
  18    8   38 1
  19    8   39 1
  20    9   10 1
  21    9   13 1
  22   10   11 2
  23   10   22 1
  24   11   12 1
  25   12   13 2
  26   13   16 1
  27   14   15 ar
  28   14   19 ar
  29   14   21 1
  30   15   16 ar
  31   15   40 1
  32   16   17 ar
  33   17   18 ar
  34   17   20 1
  35   18   19 ar
  36   18   41 1
  37   20   42 1
  38   20   43 1
  39   20   44 1
  40   21   45 1
  41   21   46 1
  42   21   47 1
  43   22   23 1
  44   22   27 1
  45   23   24 1
  46   23   48 1
  47   23   49 1
  48   24   25 1
  49   24   29 1
  50   24   50 1
  51   25   26 1
  52   26   27 1
  53   26   28 1
  54   26   51 1
  55   27   52 1
  56   27   53 1
  57   28   54 1
  58   28   55 1
  59   28   56 1
  60   29   57 1
  61   29   58 1
  62   29   59 1

#	End of record

