#	Name: ASD03430021
#	Creating user name:	WinNT
#	Creation time:	15. 06. 2019 20:40

#	Modifying user name:	WinNT
#	Modification time:	15. 06. 2019 20:40

#	Program:	/corina/corina34_cracker 3.40 0067  02.08.2006

@<TRIPOS>MOLECULE
ASD03430021
  60   66    0    0    0
SMALL
NO_CHARGES


@<TRIPOS>ATOM
   1 C1            -0.0167     1.3822     0.0096 C.ar    
   2 C2             0.0021    -0.0041     0.0020 C.ar    
   3 C3             1.2027    -0.6819    -0.0149 C.ar    
   4 C4             2.4085     0.0128    -0.0146 C.ar    
   5 C5             2.3861     1.4039    -0.0116 C.ar    
   6 C6             1.1815     2.0867     0.0020 C.ar    
   7 O7             3.4713    -0.8419    -0.0037 O.3     
   8 C8             1.5511    -2.1459    -0.0481 C.3     
   9 C9             3.0369    -2.1462    -0.4336 C.3     
  10 C10            0.4284    -3.8612     1.0089 C.ar    
  11 C11            1.3146    -2.8195     1.2709 C.ar    
  12 C12            0.7184    -2.9075    -1.0390 C.2     
  13 N13            0.1000    -3.8862    -0.3487 N.am    
  14 O14            0.6211    -2.6852    -2.2274 O.2     
  15 C15            1.7779    -2.5986     2.5487 C.ar    
  16 C16            1.3649    -3.4148     3.5866 C.ar    
  17 C17            0.4858    -4.4531     3.3376 C.ar    
  18 C18            0.0183    -4.6783     2.0596 C.ar    
  19 C19           -0.8100    -4.8630    -0.9520 C.3     
  20 O20           -1.2113     2.0356     0.0189 O.3     
  21 C21           -1.1865     3.4162     0.3977 C.3     
  22 C22           -0.0350     4.0992    -0.3526 C.3     
  23 O23            1.1866     3.4483     0.0117 O.3     
  24 C24           -2.2190    -4.3301    -0.9095 C.ar    
  25 C25           -2.7295    -3.6645    -2.0088 C.ar    
  26 C26           -4.0252    -3.1776    -1.9633 C.ar    
  27 C27           -4.7677    -3.3800    -0.8020 C.ar    
  28 C28           -4.1848    -4.0583     0.2607 C.ar    
  29 N29           -2.9494    -4.5097     0.1734 N.ar    
  30 N30           -6.0790    -2.9073    -0.7076 N.3     
  31 C31           -6.6638    -3.2338     0.6011 C.3     
  32 C32           -6.9105    -3.4391    -1.7971 C.3     
  33 C33           -8.3197    -2.8505    -1.6903 C.3     
  34 O34           -8.8600    -3.1510    -0.4007 O.3     
  35 C35           -8.0755    -2.6472     0.6838 C.3     
  36 H36           -0.9269    -0.5549     0.0097 H       
  37 H37            3.3148     1.9551    -0.0194 H       
  38 H38            3.1572    -2.2586    -1.5111 H       
  39 H39            3.5752    -2.9291     0.1008 H       
  40 H40            2.4647    -1.7875     2.7408 H       
  41 H41            1.7283    -3.2419     4.5887 H       
  42 H42            0.1642    -5.0908     4.1476 H       
  43 H43           -0.6680    -5.4910     1.8731 H       
  44 H44           -0.5192    -5.0391    -1.9876 H       
  45 H45           -0.7587    -5.7991    -0.3960 H       
  46 H46           -2.1315     3.8882     0.1290 H       
  47 H47           -1.0257     3.4997     1.4725 H       
  48 H48           -0.1921     4.0092    -1.4275 H       
  49 H49            0.0119     5.1520    -0.0742 H       
  50 H50           -2.1245    -3.5256    -2.8926 H       
  51 H51           -4.4494    -2.6537    -2.8070 H       
  52 H52           -4.7507    -4.2207     1.1661 H       
  53 H53           -6.7121    -4.3164     0.7183 H       
  54 H54           -6.0461    -2.8087     1.3921 H       
  55 H55           -6.4728    -3.1639    -2.7566 H       
  56 H56           -6.9627    -4.5250    -1.7183 H       
  57 H57           -8.2736    -1.7695    -1.8227 H       
  58 H58           -8.9553    -3.2855    -2.4616 H       
  59 H59           -8.5345    -2.9353     1.6296 H       
  60 H60           -8.0223    -1.5604     0.6205 H       
@<TRIPOS>BOND
   1    1    2 ar
   2    1    6 ar
   3    1   20 1
   4    2    3 ar
   5    2   36 1
   6    3    4 ar
   7    3    8 1
   8    4    5 ar
   9    4    7 1
  10    5    6 ar
  11    5   37 1
  12    6   23 1
  13    7    9 1
  14    8    9 1
  15    8   11 1
  16    8   12 1
  17    9   38 1
  18    9   39 1
  19   10   11 ar
  20   10   13 1
  21   10   18 ar
  22   11   15 ar
  23   12   13 am
  24   12   14 2
  25   13   19 1
  26   15   16 ar
  27   15   40 1
  28   16   17 ar
  29   16   41 1
  30   17   18 ar
  31   17   42 1
  32   18   43 1
  33   19   24 1
  34   19   44 1
  35   19   45 1
  36   20   21 1
  37   21   22 1
  38   21   46 1
  39   21   47 1
  40   22   23 1
  41   22   48 1
  42   22   49 1
  43   24   25 ar
  44   24   29 ar
  45   25   26 ar
  46   25   50 1
  47   26   27 ar
  48   26   51 1
  49   27   28 ar
  50   27   30 1
  51   28   29 ar
  52   28   52 1
  53   30   31 1
  54   30   32 1
  55   31   35 1
  56   31   53 1
  57   31   54 1
  58   32   33 1
  59   32   55 1
  60   32   56 1
  61   33   34 1
  62   33   57 1
  63   33   58 1
  64   34   35 1
  65   35   59 1
  66   35   60 1

#	End of record

