#	Name: ASD01910689
#	Creating user name:	WinNT
#	Creation time:	15. 06. 2019 19:56

#	Modifying user name:	WinNT
#	Modification time:	15. 06. 2019 19:56

#	Program:	/corina/corina34_cracker 3.40 0067  02.08.2006

@<TRIPOS>MOLECULE
ASD01910689
  53   56    0    0    0
SMALL
NO_CHARGES


@<TRIPOS>ATOM
   1 C1            12.4937    -1.8916     4.2621 C.ar    
   2 C2            13.1116    -2.0546     3.0295 C.ar    
   3 C3            12.3993    -1.7371     1.8868 C.ar    
   4 C4            11.0957    -1.2680     2.0107 C.ar    
   5 N5            10.5414    -1.1258     3.2049 N.ar    
   6 C6            11.1966    -1.4211     4.3114 C.ar    
   7 N7            10.3685    -0.9453     0.8708 N.3     
   8 C8             9.0227    -0.4722     1.2214 C.3     
   9 C9             8.3209     0.0420    -0.0401 C.3     
  10 N10            8.3620    -1.0155    -1.0615 N.am    
  11 C11            9.6596    -1.6358    -1.3692 C.3     
  12 C12           10.3087    -2.0839    -0.0554 C.3     
  13 C13            7.2404    -1.4055    -1.6989 C.2     
  14 C14            7.3212    -2.3800    -2.8081 C.ar    
  15 O15            6.1624    -0.9562    -1.3620 O.2     
  16 C16            6.3486    -3.3734    -2.9391 C.ar    
  17 C17            6.4225    -4.2838    -3.9747 C.ar    
  18 C18            7.4572    -4.2190    -4.8866 C.ar    
  19 C19            8.4365    -3.2305    -4.7672 C.ar    
  20 C20            8.3650    -2.3056    -3.7285 C.ar    
  21 C21            9.5091    -3.1651    -5.7137 C.1     
  22 C22           10.3885    -3.1115    -6.4896 C.1     
  23 C23           11.4911    -3.0443    -7.4626 C.3     
  24 C24           12.4303    -1.8761    -7.1149 C.3     
  25 C25           13.8178    -2.4925    -6.8414 C.3     
  26 C26           13.7930    -3.8386    -7.6073 C.3     
  27 C27           12.3406    -4.3299    -7.3882 C.3     
  28 O28           10.9694    -2.8768    -8.7823 O.3     
  29 H29           13.0208    -2.1346     5.1729 H       
  30 H30           14.1255    -2.4207     2.9642 H       
  31 H31           12.8494    -1.8516     0.9118 H       
  32 H32           10.7123    -1.2924     5.2681 H       
  33 H33            8.4479    -1.2942     1.6480 H       
  34 H34            9.0992     0.3351     1.9498 H       
  35 H35            7.2844     0.2871     0.1917 H       
  36 H36            8.8359     0.9285    -0.4100 H       
  37 H37            9.5082    -2.4998    -2.0162 H       
  38 H38           10.3033    -0.9105    -1.8669 H       
  39 H39           11.3178    -2.4454    -0.2530 H       
  40 H40            9.7160    -2.8835     0.3890 H       
  41 H41            5.5371    -3.4300    -2.2288 H       
  42 H42            5.6678    -5.0502    -4.0716 H       
  43 H43            7.5095    -4.9345    -5.6939 H       
  44 H44            9.1196    -1.5390    -3.6320 H       
  45 H45           12.4889    -1.1819    -7.9532 H       
  46 H46           12.0697    -1.3589    -6.2257 H       
  47 H47           14.6054    -1.8469    -7.2300 H       
  48 H48           13.9555    -2.6636    -5.7738 H       
  49 H49           13.9926    -3.6834    -8.6676 H       
  50 H50           14.5073    -4.5408    -7.1775 H       
  51 H51           12.2397    -4.7977    -6.4089 H       
  52 H52           12.0501    -5.0251    -8.1759 H       
  53 H53           10.3777    -3.5877    -9.0645 H       
@<TRIPOS>BOND
   1    1    2 ar
   2    1    6 ar
   3    1   29 1
   4    2    3 ar
   5    2   30 1
   6    3    4 ar
   7    3   31 1
   8    4    5 ar
   9    4    7 1
  10    5    6 ar
  11    6   32 1
  12    7    8 1
  13    7   12 1
  14    8    9 1
  15    8   33 1
  16    8   34 1
  17    9   10 1
  18    9   35 1
  19    9   36 1
  20   10   11 1
  21   10   13 am
  22   11   12 1
  23   11   37 1
  24   11   38 1
  25   12   39 1
  26   12   40 1
  27   13   14 1
  28   13   15 2
  29   14   16 ar
  30   14   20 ar
  31   16   17 ar
  32   16   41 1
  33   17   18 ar
  34   17   42 1
  35   18   19 ar
  36   18   43 1
  37   19   20 ar
  38   19   21 1
  39   20   44 1
  40   21   22 3
  41   22   23 1
  42   23   24 1
  43   23   28 1
  44   23   27 1
  45   24   25 1
  46   24   45 1
  47   24   46 1
  48   25   26 1
  49   25   47 1
  50   25   48 1
  51   26   27 1
  52   26   49 1
  53   26   50 1
  54   27   51 1
  55   27   52 1
  56   28   53 1

#	End of record

