#	Name: ASD01901081
#	Creating user name:	WinNT
#	Creation time:	15. 06. 2019 19:53

#	Modifying user name:	WinNT
#	Modification time:	15. 06. 2019 19:53

#	Program:	/corina/corina34_cracker 3.40 0067  02.08.2006

@<TRIPOS>MOLECULE
ASD01901081
  46   49    0    0    0
SMALL
NO_CHARGES


@<TRIPOS>ATOM
   1 C1            -0.0184     1.5028     0.0103 C.2     
   2 C2             0.0021    -0.0041     0.0020 C.3     
   3 C3             2.4697     1.5816    -0.0130 C.ar    
   4 C4             1.2427     2.2539     0.0023 C.ar    
   5 C5             1.2360     3.6600     0.0094 C.ar    
   6 C6             2.4352     4.3178     0.0011 C.ar    
   7 C7             3.6197     3.5821    -0.0141 C.ar    
   8 N8             3.5998     2.2555    -0.0211 N.ar    
   9 N9             4.8336     4.2453    -0.0226 N.pl3   
  10 C10            6.1942     6.2245     0.5838 C.3     
  11 C11            4.8682     5.7099    -0.0156 C.3     
  12 C12            4.9182     6.2645    -1.4551 C.3     
  13 C13            5.7928     7.4973    -1.3745 C.ar    
  14 C14            5.9358     8.5555    -2.2566 C.ar    
  15 C15            6.8081     9.5868    -1.9691 C.ar    
  16 C16            7.5414     9.5639    -0.7973 C.ar    
  17 C17            7.4002     8.5096     0.0835 C.ar    
  18 C18            6.5259     7.4743    -0.2030 C.ar    
  19 O19           -1.3386    -0.4987     0.0122 O.3     
  20 C20           -1.4983    -1.8484     0.0064 C.ar    
  21 C21           -2.7733    -2.3978     0.0157 C.ar    
  22 C22           -2.9327    -3.7705     0.0099 C.ar    
  23 C23           -1.8235    -4.5962    -0.0051 C.ar    
  24 C24           -0.5531    -4.0513    -0.0139 C.ar    
  25 C25           -0.3882    -2.6792    -0.0144 C.ar    
  26 Br26          -4.2902    -1.2689     0.0368 Br      
  27 O27           -1.0770     2.0949     0.0185 O.2     
  28 H28            0.5123    -0.3556    -0.8948 H       
  29 H29            0.5293    -0.3651     0.8851 H       
  30 H30            2.4894     0.5018    -0.0141 H       
  31 H31            0.3054     4.2080     0.0209 H       
  32 H32            2.4645     5.3974     0.0059 H       
  33 H33            5.6619     3.7407    -0.0332 H       
  34 H34            6.0640     6.4653     1.6389 H       
  35 H35            6.9799     5.4794     0.4592 H       
  36 H36            4.0145     6.1134     0.5289 H       
  37 H37            5.3608     5.5301    -2.1282 H       
  38 H38            3.9169     6.5325    -1.7922 H       
  39 H39            5.3636     8.5739    -3.1723 H       
  40 H40            6.9176    10.4104    -2.6592 H       
  41 H41            8.2243    10.3694    -0.5711 H       
  42 H42            7.9734     8.4923     0.9987 H       
  43 H43           -3.9241    -4.1987     0.0174 H       
  44 H44           -1.9500    -5.6688    -0.0096 H       
  45 H45            0.3114    -4.6985    -0.0252 H       
  46 H46            0.6046    -2.2543    -0.0264 H       
@<TRIPOS>BOND
   1    1    2 1
   2    1    4 1
   3    1   27 2
   4    2   19 1
   5    2   28 1
   6    2   29 1
   7    3    4 ar
   8    3    8 ar
   9    3   30 1
  10    4    5 ar
  11    5    6 ar
  12    5   31 1
  13    6    7 ar
  14    6   32 1
  15    7    8 ar
  16    7    9 1
  17    9   11 1
  18    9   33 1
  19   10   11 1
  20   10   18 1
  21   10   34 1
  22   10   35 1
  23   11   12 1
  24   11   36 1
  25   12   13 1
  26   12   37 1
  27   12   38 1
  28   13   14 ar
  29   13   18 ar
  30   14   15 ar
  31   14   39 1
  32   15   16 ar
  33   15   40 1
  34   16   17 ar
  35   16   41 1
  36   17   18 ar
  37   17   42 1
  38   19   20 1
  39   20   21 ar
  40   20   25 ar
  41   21   22 ar
  42   21   26 1
  43   22   23 ar
  44   22   43 1
  45   23   24 ar
  46   23   44 1
  47   24   25 ar
  48   24   45 1
  49   25   46 1

#	End of record

