#	Name: ASD01881400
#	Creating user name:	WinNT
#	Creation time:	15. 06. 2019 19:42

#	Modifying user name:	WinNT
#	Modification time:	15. 06. 2019 19:42

#	Program:	/corina/corina34_cracker 3.40 0067  02.08.2006

@<TRIPOS>MOLECULE
ASD01881400
  53   57    0    0    0
SMALL
NO_CHARGES


@<TRIPOS>ATOM
   1 C1             0.1860     1.6018    -1.1399 C.ar    
   2 C2             0.2904     0.3185    -1.6346 C.ar    
   3 C3             1.2584     2.1813    -0.4765 C.ar    
   4 C4             2.4420     1.4702    -0.3079 C.ar    
   5 C5             2.5523     0.1858    -0.8005 C.ar    
   6 C6             1.4750    -0.3981    -1.4678 C.ar    
   7 C7             1.5893    -1.7768    -1.9978 C.2     
   8 C8             0.8017    -2.7897    -1.4835 C.2     
   9 C9             2.5024    -2.0688    -3.0403 C.2     
  10 C10            2.6044    -3.3222    -3.5207 C.2     
  11 N11            1.8342    -4.3297    -3.0152 N.pl3   
  12 C12            0.9326    -4.0872    -2.0071 C.2     
  13 C13            1.7269    -5.6575    -3.2979 C.2     
  14 N14            0.8209    -6.1586    -2.4987 N.2     
  15 N15            0.3442    -5.2414    -1.7326 N.2     
  16 C16            2.5091    -6.4120    -4.3420 C.3     
  17 C17            3.7960    -6.9575    -3.7198 C.3     
  18 F18            3.4842     2.0374     0.3381 F       
  19 O19            1.1521     3.4460     0.0091 O.3     
  20 C20           -0.0530     4.0639    -0.0810 C.ar    
  21 C21           -1.0007     3.9322     0.9313 C.ar    
  22 C22           -0.3714     4.8507    -1.1854 C.ar    
  23 C23           -1.6070     5.4622    -1.2395 C.ar    
  24 N24           -2.4806     5.3091    -0.2623 N.ar    
  25 C25           -2.2140     4.5762     0.8022 C.ar    
  26 C26           -3.2498     4.4365     1.8878 C.3     
  27 C27            4.6759    -7.8564    -4.5908 C.3     
  28 C28            5.1240    -6.4299    -4.2666 C.3     
  29 C29           -1.9633     6.3159    -2.4292 C.3     
  30 C30           -0.1822    -2.5069    -0.3776 C.3     
  31 F31           -1.4449    -2.2626    -0.9281 F       
  32 F32           -0.2522    -3.6115     0.4780 F       
  33 F33            0.2372    -1.3841     0.3438 F       
  34 H34           -0.7300     2.1581    -1.2731 H       
  35 H35           -0.5451    -0.1313    -2.1504 H       
  36 H36            3.4713    -0.3664    -0.6701 H       
  37 H37            3.1188    -1.2831    -3.4515 H       
  38 H38            3.3039    -3.5332    -4.3160 H       
  39 H39            1.9082    -7.2398    -4.7184 H       
  40 H40            2.7589    -5.7411    -5.1640 H       
  41 H41            3.7442    -7.1836    -2.6547 H       
  42 H42           -0.7888     3.3338     1.8051 H       
  43 H43            0.3392     4.9806    -1.9882 H       
  44 H44           -3.8840     3.5755     1.6763 H       
  45 H45           -2.7532     4.2948     2.8477 H       
  46 H46           -3.8614     5.3380     1.9247 H       
  47 H47            5.2033    -8.6736    -4.0987 H       
  48 H48            4.3380    -8.0592    -5.6070 H       
  49 H49            5.0808    -5.6941    -5.0697 H       
  50 H50            5.9461    -6.3086    -3.5613 H       
  51 H51           -2.4364     5.6972    -3.1917 H       
  52 H52           -2.6527     7.1013    -2.1193 H       
  53 H53           -1.0585     6.7667    -2.8369 H       
@<TRIPOS>BOND
   1    1    2 ar
   2    1    3 ar
   3    1   34 1
   4    2    6 ar
   5    2   35 1
   6    3    4 ar
   7    3   19 1
   8    4    5 ar
   9    4   18 1
  10    5    6 ar
  11    5   36 1
  12    6    7 1
  13    7    8 2
  14    7    9 1
  15    8   30 1
  16    8   12 1
  17    9   10 2
  18    9   37 1
  19   10   11 1
  20   10   38 1
  21   11   12 1
  22   11   13 1
  23   12   15 2
  24   13   14 2
  25   13   16 1
  26   14   15 1
  27   16   17 1
  28   16   39 1
  29   16   40 1
  30   17   27 1
  31   17   28 1
  32   17   41 1
  33   19   20 1
  34   20   21 ar
  35   20   22 ar
  36   21   25 ar
  37   21   42 1
  38   22   23 ar
  39   22   43 1
  40   23   24 ar
  41   23   29 1
  42   24   25 ar
  43   25   26 1
  44   26   44 1
  45   26   45 1
  46   26   46 1
  47   27   28 1
  48   27   47 1
  49   27   48 1
  50   28   49 1
  51   28   50 1
  52   29   51 1
  53   29   52 1
  54   29   53 1
  55   30   31 1
  56   30   32 1
  57   30   33 1

#	End of record

