#	Name: ASD01883896
#	Creating user name:	WinNT
#	Creation time:	15. 06. 2019 19:47

#	Modifying user name:	WinNT
#	Modification time:	15. 06. 2019 19:47

#	Program:	/corina/corina34_cracker 3.40 0067  02.08.2006

@<TRIPOS>MOLECULE
ASD01883896
  58   63    0    0    0
SMALL
NO_CHARGES


@<TRIPOS>ATOM
   1 O1            -0.0173     1.4248     0.0099 O.3     
   2 C2             0.0021    -0.0041     0.0020 C.3     
   3 H3             0.5123    -0.3556    -0.8948 H       
   4 C4             0.7421    -0.5109     1.2415 C.3     
   5 C5             0.7628    -2.0407     1.2331 C.3     
   6 C6            -0.6726    -2.5703     1.2440 C.3     
   7 H7            -1.1828    -2.2188     2.1408 H       
   8 C8            -1.4126    -2.0635     0.0045 C.3     
   9 C9            -1.4333    -0.5336     0.0129 C.3     
  10 N10           -0.6527    -4.0352     1.2359 N.pl3   
  11 C11           -0.0861    -4.8078     0.2591 C.2     
  12 C12           -0.2418    -6.1076     0.5550 C.2     
  13 C13           -0.9679    -6.1728     1.8262 C.ar    
  14 C14           -1.4178    -7.2182     2.6312 C.ar    
  15 C15           -2.0949    -6.9291     3.8094 C.ar    
  16 C16           -2.3213    -5.5987     4.1802 C.ar    
  17 C17           -1.8829    -4.5725     3.3945 C.ar    
  18 C18           -1.1962    -4.8384     2.2131 C.ar    
  19 C19           -2.5785    -8.0309     4.6744 C.2     
  20 C20           -3.5757    -8.9214     4.2075 C.2     
  21 C21           -4.0133    -9.9219     4.9947 C.2     
  22 N22           -3.5075   -10.0958     6.2508 N.pl3   
  23 C23           -3.7541   -10.9958     7.2426 C.2     
  24 C24           -4.7433   -12.1314     7.1891 C.3     
  25 C25           -4.0547   -13.3822     6.6393 C.3     
  26 C26           -3.9407   -14.5921     7.5688 C.3     
  27 C27           -4.9235   -14.6179     6.3965 C.3     
  28 N28           -2.9758   -10.6953     8.2498 N.2     
  29 N29           -2.2538    -9.6688     7.9660 N.2     
  30 C30           -2.5390    -9.2536     6.7413 C.2     
  31 C31           -2.0566    -8.2028     5.9425 C.2     
  32 C32           -0.9901    -7.2740     6.4630 C.3     
  33 F33           -1.5855    -6.2536     7.2123 F       
  34 F34           -0.1026    -7.9904     7.2732 F       
  35 F35           -0.2920    -6.7158     5.3868 F       
  36 H36            0.8606     1.8301     0.0037 H       
  37 H37            1.7647    -0.1336     1.2338 H       
  38 H38            0.2319    -0.1594     2.1383 H       
  39 H39            1.2730    -2.3923     0.3363 H       
  40 H40            1.2900    -2.4018     2.1162 H       
  41 H41           -0.9024    -2.4150    -0.8923 H       
  42 H42           -2.4352    -2.4408     0.0122 H       
  43 H43           -1.9435    -0.1821     0.9097 H       
  44 H44           -1.9605    -0.1726    -0.8702 H       
  45 H45            0.4123    -4.4278    -0.6205 H       
  46 H46            0.1024    -6.9461    -0.0322 H       
  47 H47           -1.2418    -8.2437     2.3415 H       
  48 H48           -2.8488    -5.3819     5.0973 H       
  49 H49           -2.0653    -3.5506     3.6926 H       
  50 H50           -3.9868    -8.7972     3.2166 H       
  51 H51           -4.7742   -10.5951     4.6282 H       
  52 H52           -5.1182   -12.3343     8.1923 H       
  53 H53           -5.5746   -11.8589     6.5389 H       
  54 H54           -3.2333   -13.2003     5.9463 H       
  55 H55           -3.0440   -15.2065     7.4875 H       
  56 H56           -4.3562   -14.4971     8.5720 H       
  57 H57           -5.9856   -14.5399     6.6284 H       
  58 H58           -4.6734   -15.2493     5.5439 H       
@<TRIPOS>BOND
   1    1    2 1
   2    1   36 1
   3    2    3 1
   4    2    9 1
   5    2    4 1
   6    4    5 1
   7    4   37 1
   8    4   38 1
   9    5    6 1
  10    5   39 1
  11    5   40 1
  12    6    7 1
  13    6    8 1
  14    6   10 1
  15    8    9 1
  16    8   41 1
  17    8   42 1
  18    9   43 1
  19    9   44 1
  20   10   18 1
  21   10   11 1
  22   11   12 2
  23   11   45 1
  24   12   13 1
  25   12   46 1
  26   13   18 ar
  27   13   14 ar
  28   14   15 ar
  29   14   47 1
  30   15   16 ar
  31   15   19 1
  32   16   17 ar
  33   16   48 1
  34   17   18 ar
  35   17   49 1
  36   19   31 2
  37   19   20 1
  38   20   21 2
  39   20   50 1
  40   21   22 1
  41   21   51 1
  42   22   30 1
  43   22   23 1
  44   23   24 1
  45   23   28 2
  46   24   25 1
  47   24   52 1
  48   24   53 1
  49   25   27 1
  50   25   26 1
  51   25   54 1
  52   26   27 1
  53   26   55 1
  54   26   56 1
  55   27   57 1
  56   27   58 1
  57   28   29 1
  58   29   30 2
  59   30   31 1
  60   31   32 1
  61   32   33 1
  62   32   34 1
  63   32   35 1

#	End of record

