#	Name: ASD03330855
#	Creating user name:	WinNT
#	Creation time:	15. 06. 2019 20:38

#	Modifying user name:	WinNT
#	Modification time:	15. 06. 2019 20:38

#	Program:	/corina/corina34_cracker 3.40 0067  02.08.2006

@<TRIPOS>MOLECULE
ASD03330855
  62   64    0    0    0
SMALL
NO_CHARGES


@<TRIPOS>ATOM
   1 N1            -0.1642     0.6478     0.0842 N.pl3   
   2 C2            -0.3309    -0.6865     0.2890 C.2     
   3 C3             0.7475    -1.6516     0.7074 C.3     
   4 N4             1.4978    -1.0770     1.8350 N.3     
   5 C5             2.6171    -0.2586     1.3652 C.3     
   6 C6             2.2686     0.4430     0.0556 C.3     
   7 C7             1.0854     1.3900     0.2737 C.3     
   8 C8            -1.3679     1.1538    -0.3129 C.2     
   9 N9            -2.2456     0.1777    -0.3353 N.2     
  10 C10           -1.6375    -0.9714     0.0340 C.2     
  11 C11           -2.2746    -2.2956     0.1415 C.2     
  12 O12           -1.6186    -3.2600     0.4861 O.2     
  13 N13           -3.5845    -2.4381    -0.1420 N.am    
  14 C14            1.9621    -2.1292     2.7490 C.3     
  15 C15           -5.4224    -3.8076    -0.9395 C.2     
  16 C16           -4.2180    -3.7547    -0.0352 C.3     
  17 C17           -4.6554    -3.9943     1.4113 C.3     
  18 C18           -5.7010    -2.9500     1.8075 C.3     
  19 O19           -6.0176    -2.7879    -1.2170 O.2     
  20 N20           -5.8381    -4.9879    -1.4399 N.am    
  21 C21           -7.0703    -5.0557    -2.2294 C.3     
  22 C22           -5.2601    -5.3943     1.5360 C.3     
  23 C23           -3.4426    -3.8784     2.3367 C.3     
  24 C24           -1.6381     2.5647    -0.6599 C.ar    
  25 C25           -2.3566     2.8797    -1.8219 C.ar    
  26 C26           -2.6050     4.2078    -2.1377 C.ar    
  27 C27           -2.1455     5.2136    -1.3095 C.ar    
  28 C28           -1.4359     4.9056    -0.1616 C.ar    
  29 C29           -1.1848     3.5900     0.1698 C.ar    
  30 N30           -2.8186     1.8639    -2.6559 N.pl3   
  31 H31            0.2940    -2.5942     1.0140 H       
  32 H32            1.4242    -1.8267    -0.1290 H       
  33 H33            2.8549     0.4905     2.1205 H       
  34 H34            3.4867    -0.8969     1.2090 H       
  35 H35            3.1305     1.0137    -0.2903 H       
  36 H36            2.0033    -0.3015    -0.6949 H       
  37 H37            1.1360     2.2079    -0.4450 H       
  38 H38            1.1212     1.7907     1.2867 H       
  39 H39           -4.1078    -1.6690    -0.4169 H       
  40 H40            2.5562    -2.8558     2.1947 H       
  41 H41            2.5727    -1.6844     3.5348 H       
  42 H42            1.1021    -2.6281     3.1956 H       
  43 H43           -3.5067    -4.5254    -0.3321 H       
  44 H44           -6.5651    -3.0327     1.1482 H       
  45 H45           -6.0127    -3.1207     2.8380 H       
  46 H46           -5.2703    -1.9527     1.7187 H       
  47 H47           -5.3215    -5.7926    -1.2772 H       
  48 H48           -6.9749    -4.4165    -3.1072 H       
  49 H49           -7.2428    -6.0843    -2.5461 H       
  50 H50           -7.9098    -4.7166    -1.6225 H       
  51 H51           -4.4970    -6.1406     1.3152 H       
  52 H52           -5.6294    -5.5414     2.5509 H       
  53 H53           -6.0847    -5.4980     0.8307 H       
  54 H54           -3.0118    -2.8810     2.2478 H       
  55 H55           -3.7542    -4.0491     3.3672 H       
  56 H56           -2.6977    -4.6224     2.0544 H       
  57 H57           -3.1577     4.4556    -3.0319 H       
  58 H58           -2.3408     6.2460    -1.5593 H       
  59 H59           -1.0804     5.6986     0.4796 H       
  60 H60           -0.6343     3.3546     1.0686 H       
  61 H61           -2.5760     0.9418    -2.4775 H       
  62 H62           -3.3829     2.0787    -3.4151 H       
@<TRIPOS>BOND
   1    1    2 1
   2    1    7 1
   3    1    8 1
   4    2    3 1
   5    2   10 2
   6    3    4 1
   7    3   31 1
   8    3   32 1
   9    4    5 1
  10    4   14 1
  11    5    6 1
  12    5   33 1
  13    5   34 1
  14    6    7 1
  15    6   35 1
  16    6   36 1
  17    7   37 1
  18    7   38 1
  19    8    9 2
  20    8   24 1
  21    9   10 1
  22   10   11 1
  23   11   12 2
  24   11   13 am
  25   13   16 1
  26   13   39 1
  27   14   40 1
  28   14   41 1
  29   14   42 1
  30   15   19 2
  31   15   20 am
  32   15   16 1
  33   16   17 1
  34   16   43 1
  35   17   18 1
  36   17   22 1
  37   17   23 1
  38   18   44 1
  39   18   45 1
  40   18   46 1
  41   20   21 1
  42   20   47 1
  43   21   48 1
  44   21   49 1
  45   21   50 1
  46   22   51 1
  47   22   52 1
  48   22   53 1
  49   23   54 1
  50   23   55 1
  51   23   56 1
  52   24   25 ar
  53   24   29 ar
  54   25   26 ar
  55   25   30 1
  56   26   27 ar
  57   26   57 1
  58   27   28 ar
  59   27   58 1
  60   28   29 ar
  61   28   59 1
  62   29   60 1
  63   30   61 1
  64   30   62 1

#	End of record

