#	Name: ASD01914767
#	Creating user name:	WinNT
#	Creation time:	15. 06. 2019 20:04

#	Modifying user name:	WinNT
#	Modification time:	15. 06. 2019 20:04

#	Program:	/corina/corina34_cracker 3.40 0067  02.08.2006

@<TRIPOS>MOLECULE
ASD01914767
  42   45    0    0    0
SMALL
NO_CHARGES


@<TRIPOS>ATOM
   1 N1            -0.1254     1.1776     0.7124 N.am    
   2 C2            -0.0034    -0.0138     0.0374 C.2     
   3 C3            -1.1651    -0.5330    -0.6888 C.2     
   4 C4            -2.3069     0.1814    -0.6641 C.2     
   5 N5            -2.3602     1.3670     0.0319 N.am    
   6 C6            -1.2948     1.8391     0.7014 C.2     
   7 C7             1.0919     1.4290     1.2969 C.2     
   8 C8             1.9061     0.4063     0.9698 C.2     
   9 N9             1.2240    -0.4578     0.2062 N.2     
  10 C10            3.3452     0.2592     1.3923 C.3     
  11 O11           -1.3886     2.8916     1.3030 O.2     
  12 C12           -3.5559     2.0976     0.0473 C.ar    
  13 O13            3.7213     1.3768     2.1995 O.3     
  14 C14            4.9974     1.3992     2.6662 C.ar    
  15 C15            5.4301     2.4546     3.4559 C.ar    
  16 C16            5.8680     0.3638     2.3585 C.ar    
  17 C17            7.1646     0.3886     2.8346 C.ar    
  18 C18            7.5948     1.4439     3.6175 C.ar    
  19 C19            6.7276     2.4747     3.9295 C.ar    
  20 C20           -4.4991     1.8664     1.0397 C.ar    
  21 C21           -5.6767     2.5878     1.0534 C.ar    
  22 C22           -5.9171     3.5412     0.0782 C.ar    
  23 C23           -4.9776     3.7732    -0.9125 C.ar    
  24 C24           -3.7965     3.0576    -0.9266 C.ar    
  25 F25           -7.0699     4.2455     0.0930 F       
  26 C26           -1.0845    -1.8339    -1.4452 C.3     
  27 H27           -3.1796    -0.1761    -1.1904 H       
  28 H28            1.3482     2.2849     1.9037 H       
  29 H29            3.4632    -0.6597     1.9665 H       
  30 H30            3.9812     0.2193     0.5080 H       
  31 H31            4.7531     3.2599     3.6999 H       
  32 H32            5.5323    -0.4611     1.7476 H       
  33 H33            7.8427    -0.4172     2.5953 H       
  34 H34            8.6087     1.4613     3.9890 H       
  35 H35            7.0661     3.2981     4.5410 H       
  36 H36           -4.3122     1.1227     1.8002 H       
  37 H37           -6.4107     2.4080     1.8249 H       
  38 H38           -5.1670     4.5172    -1.6721 H       
  39 H39           -3.0639     3.2391    -1.6991 H       
  40 H40           -1.3643    -2.6555    -0.7858 H       
  41 H41           -1.7656    -1.8025    -2.2957 H       
  42 H42           -0.0654    -1.9846    -1.8013 H       
@<TRIPOS>BOND
   1    1    2 1
   2    1    7 1
   3    1    6 am
   4    2    3 1
   5    2    9 2
   6    3    4 2
   7    3   26 1
   8    4    5 1
   9    4   27 1
  10    5    6 am
  11    5   12 1
  12    6   11 2
  13    7    8 2
  14    7   28 1
  15    8    9 1
  16    8   10 1
  17   10   13 1
  18   10   29 1
  19   10   30 1
  20   12   20 ar
  21   12   24 ar
  22   13   14 1
  23   14   15 ar
  24   14   16 ar
  25   15   19 ar
  26   15   31 1
  27   16   17 ar
  28   16   32 1
  29   17   18 ar
  30   17   33 1
  31   18   19 ar
  32   18   34 1
  33   19   35 1
  34   20   21 ar
  35   20   36 1
  36   21   22 ar
  37   21   37 1
  38   22   23 ar
  39   22   25 1
  40   23   24 ar
  41   23   38 1
  42   24   39 1
  43   26   40 1
  44   26   41 1
  45   26   42 1

#	End of record

