#	Name: ASD01882244
#	Creating user name:	WinNT
#	Creation time:	15. 06. 2019 19:44

#	Modifying user name:	WinNT
#	Modification time:	15. 06. 2019 19:44

#	Program:	/corina/corina34_cracker 3.40 0067  02.08.2006

@<TRIPOS>MOLECULE
ASD01882244
  53   56    0    0    0
SMALL
NO_CHARGES


@<TRIPOS>ATOM
   1 C1            -0.0187     1.5258     0.0104 C.3     
   2 C2             0.0021    -0.0041     0.0020 C.3     
   3 C3             0.7182    -0.4975    -1.2568 C.3     
   4 C4             2.1536     0.0321    -1.2676 C.3     
   5 C5             2.1328     1.5619    -1.2592 C.3     
   6 C6             1.4167     2.0553    -0.0004 C.3     
   7 O7            -0.7098     1.9991    -1.1473 O.3     
   8 C8            -0.7348     2.0192     1.2692 C.3     
   9 N9             2.8622    -0.4532    -0.0808 N.pl3   
  10 C10            4.2534    -0.5676    -0.0965 C.ar    
  11 C11            4.9253    -1.0287     1.0316 C.ar    
  12 C12            6.2994    -1.1420     1.0182 C.ar    
  13 C13            7.0156    -0.7942    -0.1279 C.ar    
  14 C14            6.3391    -0.3327    -1.2571 C.ar    
  15 C15            4.9646    -0.2262    -1.2407 C.ar    
  16 C16           10.5143    -1.9093    -0.9857 C.2     
  17 C17            9.1100    -1.8177    -0.9910 C.2     
  18 C18            8.4918    -0.9143    -0.1451 C.2     
  19 C19            9.2855    -0.1057     0.7036 C.2     
  20 C20           10.6266    -0.2173     0.6843 C.2     
  21 N21           11.2458    -1.1070    -0.1481 N.pl3   
  22 N22           11.3607    -2.6626    -1.6761 N.2     
  23 C23           12.6091    -2.3734    -1.3029 C.2     
  24 C24           12.5650    -1.4102    -0.3563 C.2     
  25 C25           13.7468    -0.7841     0.3382 C.3     
  26 C26           14.2939     0.3601    -0.5176 C.3     
  27 F27           13.2964     1.3237    -0.7007 F       
  28 F28           15.3911     0.9413     0.1271 F       
  29 F29           14.6945    -0.1385    -1.7618 F       
  30 Cl30           8.1665    -2.8245    -2.0445 Cl      
  31 Cl31           4.0330    -1.4611     2.4566 Cl      
  32 H32            0.5293    -0.3651     0.8851 H       
  33 H33           -1.0205    -0.3814     0.0098 H       
  34 H34            0.7330    -1.5874    -1.2628 H       
  35 H35            0.1910    -0.1364    -2.1398 H       
  36 H36            2.6638    -0.3194    -2.1644 H       
  37 H37            3.1554     1.9392    -1.2670 H       
  38 H38            1.6057     1.9230    -2.1423 H       
  39 H39            1.4019     3.1452     0.0056 H       
  40 H40            1.9439     1.6943     0.8826 H       
  41 H41           -0.7617     2.9629    -1.2077 H       
  42 H42           -0.2076     1.6581     2.1523 H       
  43 H43           -0.7496     3.1091     1.2752 H       
  44 H44           -1.7574     1.6419     1.2770 H       
  45 H45            2.3646    -0.6951     0.7160 H       
  46 H46            6.8209    -1.4992     1.8939 H       
  47 H47            6.8913    -0.0630    -2.1452 H       
  48 H48            4.4404     0.1269    -2.1164 H       
  49 H49            8.8135     0.6030     1.3681 H       
  50 H50           11.2219     0.4053     1.3357 H       
  51 H51           13.5056    -2.8303    -1.6952 H       
  52 H52           13.4347    -0.3956     1.3076 H       
  53 H53           14.5240    -1.5349     0.4808 H       
@<TRIPOS>BOND
   1    1    2 1
   2    1    6 1
   3    1    7 1
   4    1    8 1
   5    2    3 1
   6    2   32 1
   7    2   33 1
   8    3    4 1
   9    3   34 1
  10    3   35 1
  11    4    5 1
  12    4    9 1
  13    4   36 1
  14    5    6 1
  15    5   37 1
  16    5   38 1
  17    6   39 1
  18    6   40 1
  19    7   41 1
  20    8   42 1
  21    8   43 1
  22    8   44 1
  23    9   10 1
  24    9   45 1
  25   10   11 ar
  26   10   15 ar
  27   11   12 ar
  28   11   31 1
  29   12   13 ar
  30   12   46 1
  31   13   14 ar
  32   13   18 1
  33   14   15 ar
  34   14   47 1
  35   15   48 1
  36   16   17 1
  37   16   21 1
  38   16   22 2
  39   17   18 2
  40   17   30 1
  41   18   19 1
  42   19   20 2
  43   19   49 1
  44   20   21 1
  45   20   50 1
  46   21   24 1
  47   22   23 1
  48   23   24 2
  49   23   51 1
  50   24   25 1
  51   25   26 1
  52   25   52 1
  53   25   53 1
  54   26   27 1
  55   26   28 1
  56   26   29 1

#	End of record

