#	Name: ASD00461037
#	Creating user name:	WinNT
#	Creation time:	15. 06. 2019 18:36

#	Modifying user name:	WinNT
#	Modification time:	15. 06. 2019 18:36

#	Program:	/corina/corina34_cracker 3.40 0067  02.08.2006

@<TRIPOS>MOLECULE
ASD00461037
  66   69    0    0    0
SMALL
NO_CHARGES


@<TRIPOS>ATOM
   1 C1             0.6282    -2.1659    -2.5983 C.ar    
   2 C2             1.0600    -2.9347    -1.5340 C.ar    
   3 C3             2.0586    -2.4642    -0.7016 C.ar    
   4 C4             2.6255    -1.2253    -0.9341 C.ar    
   5 C5             2.1942    -0.4567    -1.9994 C.ar    
   6 C6             1.1949    -0.9264    -2.8307 C.ar    
   7 C7             3.7133    -0.7120    -0.0263 C.3     
   8 O8             4.6529     0.0467    -0.7903 O.3     
   9 C9             5.7094    -0.7337    -1.3531 C.3     
  10 C10            6.5843     0.1556    -2.2388 C.3     
  11 C11            7.7850    -0.6486    -2.7413 C.3     
  12 N12            8.6867     0.2352    -3.4922 N.3     
  13 C13            9.8537    -0.5044    -3.9911 C.3     
  14 C14            3.0975     0.1786     1.0547 C.3     
  15 C15            4.0277     0.7091     2.1475 C.3     
  16 C16            3.4992     1.6549     1.0671 C.3     
  17 O17            5.8193     0.6166    -3.3543 O.3     
  18 C18           10.7674     0.4471    -4.7661 C.3     
  19 C19           10.6224    -1.1009    -2.8104 C.3     
  20 C20            9.3868    -1.6298    -4.9166 C.3     
  21 C21           11.9646    -0.3116    -5.2780 C.ar    
  22 C22           11.9101    -0.9138    -6.5332 C.ar    
  23 C23           12.9736    -1.6068    -7.0250 C.ar    
  24 C24           14.1455    -1.7180    -6.2580 C.ar    
  25 C25           14.2012    -1.1049    -4.9811 C.ar    
  26 C26           13.0851    -0.3937    -4.5093 C.ar    
  27 C27           15.2636    -2.4257    -6.7317 C.ar    
  28 C28           16.3816    -2.5127    -5.9607 C.ar    
  29 C29           16.4364    -1.9098    -4.7052 C.ar    
  30 C30           15.3734    -1.2166    -4.2138 C.ar    
  31 C31            0.4419    -4.2855    -1.2804 C.3     
  32 H32           -0.1488    -2.5354    -3.2512 H       
  33 H33            2.3955    -3.0646     0.1305 H       
  34 H34            2.6367     0.5117    -2.1807 H       
  35 H35            0.8578    -0.3259    -3.6626 H       
  36 H36            4.2222    -1.5539     0.4431 H       
  37 H37            6.3152    -1.1567    -0.5517 H       
  38 H38            5.2861    -1.5396    -1.9527 H       
  39 H39            6.9357     1.0105    -1.6610 H       
  40 H40            8.3183    -1.0746    -1.8914 H       
  41 H41            7.4380    -1.4514    -3.3919 H       
  42 H42            8.1984     0.6925    -4.2475 H       
  43 H43            2.0747    -0.0674     1.3401 H       
  44 H44            3.6167     0.8125     3.1517 H       
  45 H45            5.0784     0.4236     2.0963 H       
  46 H46            4.2022     1.9916     0.3052 H       
  47 H47            2.7406     2.3805     1.3607 H       
  48 H48            5.4739    -0.0921    -3.9142 H       
  49 H49           10.2197     0.8721    -5.6073 H       
  50 H50           11.1000     1.2489    -4.1068 H       
  51 H51            9.9715    -1.7789    -2.2583 H       
  52 H52           11.4884    -1.6497    -3.1806 H       
  53 H53           10.9551    -0.2992    -2.1511 H       
  54 H54            8.8392    -1.2049    -5.7577 H       
  55 H55           10.2528    -2.1786    -5.2868 H       
  56 H56            8.7359    -2.3078    -4.3644 H       
  57 H57           11.0105    -0.8298    -7.1249 H       
  58 H58           12.9167    -2.0689    -7.9994 H       
  59 H59           13.1132     0.0786    -3.5384 H       
  60 H60           15.2355    -2.8983    -7.7024 H       
  61 H61           17.2393    -3.0574    -6.3270 H       
  62 H62           17.3359    -1.9940    -4.1135 H       
  63 H63           15.4304    -0.7543    -3.2393 H       
  64 H64            1.0009    -5.0483    -1.8223 H       
  65 H65            0.4706    -4.5036    -0.2129 H       
  66 H66           -0.5930    -4.2816    -1.6228 H       
@<TRIPOS>BOND
   1    1    2 ar
   2    1    6 ar
   3    1   32 1
   4    2    3 ar
   5    2   31 1
   6    3    4 ar
   7    3   33 1
   8    4    5 ar
   9    4    7 1
  10    5    6 ar
  11    5   34 1
  12    6   35 1
  13    7    8 1
  14    7   14 1
  15    7   36 1
  16    8    9 1
  17    9   10 1
  18    9   37 1
  19    9   38 1
  20   10   11 1
  21   10   17 1
  22   10   39 1
  23   11   12 1
  24   11   40 1
  25   11   41 1
  26   12   13 1
  27   12   42 1
  28   13   18 1
  29   13   19 1
  30   13   20 1
  31   14   15 1
  32   14   16 1
  33   14   43 1
  34   15   16 1
  35   15   44 1
  36   15   45 1
  37   16   46 1
  38   16   47 1
  39   17   48 1
  40   18   21 1
  41   18   49 1
  42   18   50 1
  43   19   51 1
  44   19   52 1
  45   19   53 1
  46   20   54 1
  47   20   55 1
  48   20   56 1
  49   21   22 ar
  50   21   26 ar
  51   22   23 ar
  52   22   57 1
  53   23   24 ar
  54   23   58 1
  55   24   25 ar
  56   24   27 ar
  57   25   26 ar
  58   25   30 ar
  59   26   59 1
  60   27   28 ar
  61   27   60 1
  62   28   29 ar
  63   28   61 1
  64   29   30 ar
  65   29   62 1
  66   30   63 1
  67   31   64 1
  68   31   65 1
  69   31   66 1

#	End of record

