#	Name: ASD01910725
#	Creating user name:	WinNT
#	Creation time:	15. 06. 2019 19:56

#	Modifying user name:	WinNT
#	Modification time:	15. 06. 2019 19:56

#	Program:	/corina/corina34_cracker 3.40 0067  02.08.2006

@<TRIPOS>MOLECULE
ASD01910725
  53   56    0    0    0
SMALL
NO_CHARGES


@<TRIPOS>ATOM
   1 C1            12.4932    -1.8921     4.2625 C.ar    
   2 C2            13.1111    -2.0552     3.0299 C.ar    
   3 C3            12.3990    -1.7376     1.8872 C.ar    
   4 C4            11.0954    -1.2684     2.0110 C.ar    
   5 N5            10.5410    -1.1261     3.2052 N.ar    
   6 C6            11.1961    -1.4215     4.3117 C.ar    
   7 N7            10.3684    -0.9456     0.8711 N.3     
   8 C8             9.0225    -0.4724     1.2216 C.3     
   9 C9             8.3209     0.0418    -0.0400 C.3     
  10 N10            8.3620    -1.0156    -1.0614 N.am    
  11 C11            9.6596    -1.6360    -1.3690 C.3     
  12 C12           10.3085    -2.0842    -0.0552 C.3     
  13 C13            7.2404    -1.4055    -1.6989 C.2     
  14 C14            7.3212    -2.3800    -2.8082 C.ar    
  15 O15            6.1624    -0.9561    -1.3621 O.2     
  16 C16            6.3483    -3.3735    -2.9390 C.ar    
  17 C17            6.4215    -4.2849    -3.9742 C.ar    
  18 C18            7.4551    -4.2215    -4.8866 C.ar    
  19 C19            8.4361    -3.2319    -4.7683 C.ar    
  20 C20            8.3647    -2.3054    -3.7281 C.ar    
  21 C21            9.5084    -3.1671    -5.7151 C.1     
  22 C22           10.3876    -3.1140    -6.4914 C.1     
  23 C23           11.4599    -3.0492    -7.4382 C.ar    
  24 C24            7.5271    -5.2210    -6.0121 C.3     
  25 C25           12.4399    -2.0614    -7.3209 C.ar    
  26 C26           13.4737    -2.0058    -8.2402 C.ar    
  27 C27           13.5345    -2.9298    -9.2747 C.ar    
  28 C28           12.5649    -3.9090    -9.3928 C.ar    
  29 C29           11.5331    -3.9780    -8.4801 C.ar    
  30 O30           14.4293    -1.0458    -8.1301 O.3     
  31 H31           13.0202    -2.1352     5.1733 H       
  32 H32           14.1251    -2.4213     2.9648 H       
  33 H33           12.8492    -1.8522     0.9122 H       
  34 H34           10.7118    -1.2928     5.2684 H       
  35 H35            8.4476    -1.2944     1.6481 H       
  36 H36            9.0990     0.3349     1.9499 H       
  37 H37            7.2844     0.2871     0.1917 H       
  38 H38            8.8360     0.9284    -0.4099 H       
  39 H39            9.5082    -2.5000    -2.0160 H       
  40 H40           10.3034    -0.9107    -1.8666 H       
  41 H41           11.3176    -2.4458    -0.2527 H       
  42 H42            9.7157    -2.8837     0.3891 H       
  43 H43            5.5368    -3.4295    -2.2286 H       
  44 H44            5.6664    -5.0512    -4.0700 H       
  45 H45            9.1191    -1.5386    -3.6318 H       
  46 H46            6.9838    -4.8360    -6.8751 H       
  47 H47            8.5694    -5.3878    -6.2838 H       
  48 H48            7.0801    -6.1620    -5.6916 H       
  49 H49           12.3914    -1.3429    -6.5160 H       
  50 H50           14.3420    -2.8835    -9.9903 H       
  51 H51           12.6181    -4.6245   -10.2001 H       
  52 H52           10.7779    -4.7442    -8.5751 H       
  53 H53           15.1875    -1.3058    -7.5891 H       
@<TRIPOS>BOND
   1    1    2 ar
   2    1    6 ar
   3    1   31 1
   4    2    3 ar
   5    2   32 1
   6    3    4 ar
   7    3   33 1
   8    4    5 ar
   9    4    7 1
  10    5    6 ar
  11    6   34 1
  12    7    8 1
  13    7   12 1
  14    8    9 1
  15    8   35 1
  16    8   36 1
  17    9   10 1
  18    9   37 1
  19    9   38 1
  20   10   11 1
  21   10   13 am
  22   11   12 1
  23   11   39 1
  24   11   40 1
  25   12   41 1
  26   12   42 1
  27   13   14 1
  28   13   15 2
  29   14   16 ar
  30   14   20 ar
  31   16   17 ar
  32   16   43 1
  33   17   18 ar
  34   17   44 1
  35   18   19 ar
  36   18   24 1
  37   19   20 ar
  38   19   21 1
  39   20   45 1
  40   21   22 3
  41   22   23 1
  42   23   25 ar
  43   23   29 ar
  44   24   46 1
  45   24   47 1
  46   24   48 1
  47   25   26 ar
  48   25   49 1
  49   26   27 ar
  50   26   30 1
  51   27   28 ar
  52   27   50 1
  53   28   29 ar
  54   28   51 1
  55   29   52 1
  56   30   53 1

#	End of record

