#	Name: ASD03091925
#	Creating user name:	WinNT
#	Creation time:	15. 06. 2019 20:31

#	Modifying user name:	WinNT
#	Modification time:	15. 06. 2019 20:31

#	Program:	/corina/corina34_cracker 3.40 0067  02.08.2006

@<TRIPOS>MOLECULE
ASD03091925
  58   62    0    0    0
SMALL
NO_CHARGES


@<TRIPOS>ATOM
   1 C1             0.2110     0.6793    -0.0403 C.ar    
   2 C2            -0.8443     1.5705     0.0324 C.ar    
   3 C3            -2.1484     1.0927     0.0723 C.ar    
   4 C4            -2.3996    -0.2754     0.0398 C.ar    
   5 C5            -1.3559    -1.1722    -0.0272 C.ar    
   6 C6            -0.0444    -0.7016    -0.0635 C.ar    
   7 O7             1.4956     1.1107    -0.0976 O.3     
   8 C8             2.4976     0.2835     0.4916 C.3     
   9 N9             2.3398    -1.1097     0.0726 N.am    
  10 C10            1.1043    -1.6245    -0.1192 C.2     
  11 C11           -3.8196    -0.7785     0.0786 C.3     
  12 C12           -4.2750    -0.8874     1.5110 C.ar    
  13 C13           -4.9689     0.1510     2.1032 C.ar    
  14 O14            0.9454    -2.8116    -0.3306 O.2     
  15 O15           -3.1848     1.9669     0.1441 O.3     
  16 F16           -0.6080     2.9002     0.0647 F       
  17 C17            3.5223    -1.9481    -0.1394 C.3     
  18 C18            3.8906    -2.6506     1.1689 C.3     
  19 C19            5.1815    -3.4876     0.9850 C.3     
  20 C20            5.7056    -3.5461     2.4457 C.3     
  21 C21            5.2799    -2.1703     3.0019 C.3     
  22 O22            4.2119    -1.6833     2.1810 O.3     
  23 C23           -4.0067    -2.0335     2.2462 C.ar    
  24 N24           -5.3730     0.0678     3.3549 N.ar    
  25 C25           -5.1323    -1.0080     4.0932 C.ar    
  26 C26           -4.4425    -2.0940     3.5583 C.ar    
  27 C27           -5.6063    -1.0573     5.4979 C.2     
  28 C28           -3.6559     2.5171    -1.0877 C.3     
  29 C29           -6.3809    -0.1219     6.1216 C.2     
  30 N30           -6.5869    -0.5403     7.3854 N.pl3   
  31 N31           -5.9271    -1.7634     7.5553 N.2     
  32 C32           -5.3444    -2.0811     6.4300 C.2     
  33 C33           -7.3671     0.1634     8.4063 C.3     
  34 H34           -1.5528    -2.2338    -0.0516 H       
  35 H35            3.4813     0.6401     0.1861 H       
  36 H36            2.4177     0.3423     1.5771 H       
  37 H37           -4.4662    -0.0830    -0.4564 H       
  38 H38           -3.8706    -1.7592    -0.3944 H       
  39 H39           -5.1826     1.0427     1.5326 H       
  40 H40            3.3064    -2.6941    -0.9042 H       
  41 H41            4.3557    -1.3252    -0.4645 H       
  42 H42            3.0697    -3.2865     1.5002 H       
  43 H43            4.9529    -4.4850     0.6094 H       
  44 H44            5.8909    -2.9776     0.3332 H       
  45 H45            5.2249    -4.3535     2.9983 H       
  46 H46            6.7901    -3.6535     2.4648 H       
  47 H47            4.9362    -2.2776     4.0307 H       
  48 H48            6.1216    -1.4789     2.9622 H       
  49 H49           -3.4701    -2.8599     1.8041 H       
  50 H50           -4.2505    -2.9706     4.1591 H       
  51 H51           -4.4747     3.2082    -0.8874 H       
  52 H52           -2.8435     3.0498    -1.5820 H       
  53 H53           -4.0089     1.7130    -1.7334 H       
  54 H54           -6.7595     0.7888     5.6816 H       
  55 H55           -4.7615    -2.9716     6.2469 H       
  56 H56           -8.4067    -0.1606     8.3565 H       
  57 H57           -6.9628    -0.0632     9.3929 H       
  58 H58           -7.3124     1.2375     8.2291 H       
@<TRIPOS>BOND
   1    1    6 ar
   2    1    7 1
   3    1    2 ar
   4    2    3 ar
   5    2   16 1
   6    3    4 ar
   7    3   15 1
   8    4    5 ar
   9    4   11 1
  10    5    6 ar
  11    5   34 1
  12    6   10 1
  13    7    8 1
  14    8    9 1
  15    8   35 1
  16    8   36 1
  17    9   10 am
  18    9   17 1
  19   10   14 2
  20   11   12 1
  21   11   37 1
  22   11   38 1
  23   12   13 ar
  24   12   23 ar
  25   13   24 ar
  26   13   39 1
  27   15   28 1
  28   17   18 1
  29   17   40 1
  30   17   41 1
  31   18   22 1
  32   18   19 1
  33   18   42 1
  34   19   20 1
  35   19   43 1
  36   19   44 1
  37   20   21 1
  38   20   45 1
  39   20   46 1
  40   21   22 1
  41   21   47 1
  42   21   48 1
  43   23   26 ar
  44   23   49 1
  45   24   25 ar
  46   25   26 ar
  47   25   27 1
  48   26   50 1
  49   27   32 1
  50   27   29 2
  51   28   51 1
  52   28   52 1
  53   28   53 1
  54   29   30 1
  55   29   54 1
  56   30   31 1
  57   30   33 1
  58   31   32 2
  59   32   55 1
  60   33   56 1
  61   33   57 1
  62   33   58 1

#	End of record

