#	Name: ASD01812975
#	Creating user name:	WinNT
#	Creation time:	15. 06. 2019 19:29

#	Modifying user name:	WinNT
#	Modification time:	15. 06. 2019 19:29

#	Program:	/corina/corina34_cracker 3.40 0067  02.08.2006

@<TRIPOS>MOLECULE
ASD01812975
  48   52    0    0    0
SMALL
NO_CHARGES


@<TRIPOS>ATOM
   1 C1             0.0866     1.3257    -0.1246 C.ar    
   2 C2             0.1680    -0.0525    -0.1213 C.ar    
   3 C3             1.3965    -0.6804     0.0198 C.ar    
   4 C4             2.5410     0.0672     0.1572 C.ar    
   5 C5             2.4775     1.4639     0.1560 C.ar    
   6 C6             1.2335     2.0939     0.0131 C.ar    
   7 C7             3.9963    -0.2922     0.3260 C.3     
   8 N8             4.7240     0.9788     0.4169 N.am    
   9 C9             3.8431     1.9893     0.3183 C.2     
  10 C10            6.1720     1.1227     0.5871 C.3     
  11 C11            6.8337     1.1783    -0.7657 C.ar    
  12 O12            1.1516     3.4479     0.0092 O.3     
  13 O13            4.1329     3.1694     0.3578 O.2     
  14 C14            7.0192     2.3963    -1.3935 C.ar    
  15 C15            7.6254     2.4505    -2.6334 C.ar    
  16 C16            8.0487     1.2804    -3.2493 C.ar    
  17 C17            7.8611     0.0590    -2.6164 C.ar    
  18 C18            7.2593     0.0117    -1.3741 C.ar    
  19 C19            1.3389     4.0936    -1.1684 C.ar    
  20 N20            1.6318     3.3968    -2.2551 N.ar    
  21 C21            1.8223     3.9770    -3.4217 C.ar    
  22 N22            8.9148     2.4896    -5.2560 N.2     
  23 N23            8.6638     1.3321    -4.5079 N.pl3   
  24 C24            9.1208     0.2735    -5.2145 C.2     
  25 C25            9.6432     0.7447    -6.3704 C.2     
  26 C26            9.5014     2.1367    -6.3714 C.2     
  27 C27            1.7205     5.3629    -3.5526 C.ar    
  28 C28            1.4115     6.1322    -2.4211 C.ar    
  29 C29            1.2146     5.4802    -1.2186 C.ar    
  30 F30            0.9146     6.1803    -0.1028 F       
  31 C31            1.9290     5.9901    -4.8230 C.1     
  32 N32            2.0943     6.4876    -5.8307 N.1     
  33 H33           -0.8730     1.8076    -0.2395 H       
  34 H34           -0.7290    -0.6443    -0.2286 H       
  35 H35            1.4535    -1.7589     0.0221 H       
  36 H36            4.1360    -0.8702     1.2396 H       
  37 H37            4.3439    -0.8622    -0.5355 H       
  38 H38            6.3841     2.0417     1.1334 H       
  39 H39            6.5586     0.2704     1.1460 H       
  40 H40            6.6894     3.3061    -0.9140 H       
  41 H41            7.7697     3.4020    -3.1234 H       
  42 H42            8.1889    -0.8529    -3.0933 H       
  43 H43            7.1174    -0.9376    -0.8791 H       
  44 H44            2.0601     3.3745    -4.2859 H       
  45 H45            9.0769    -0.7619    -4.9106 H       
  46 H46           10.0908     0.1511    -7.1538 H       
  47 H47            9.8211     2.8049    -7.1573 H       
  48 H48            1.3255     7.2066    -2.4889 H       
@<TRIPOS>BOND
   1    1    2 ar
   2    1    6 ar
   3    1   33 1
   4    2    3 ar
   5    2   34 1
   6    3    4 ar
   7    3   35 1
   8    4    7 1
   9    4    5 ar
  10    5    6 ar
  11    5    9 1
  12    6   12 1
  13    7    8 1
  14    7   36 1
  15    7   37 1
  16    8    9 am
  17    8   10 1
  18    9   13 2
  19   10   11 1
  20   10   38 1
  21   10   39 1
  22   11   14 ar
  23   11   18 ar
  24   12   19 1
  25   14   15 ar
  26   14   40 1
  27   15   16 ar
  28   15   41 1
  29   16   17 ar
  30   16   23 1
  31   17   18 ar
  32   17   42 1
  33   18   43 1
  34   19   20 ar
  35   19   29 ar
  36   20   21 ar
  37   21   27 ar
  38   21   44 1
  39   22   23 1
  40   22   26 2
  41   23   24 1
  42   24   25 2
  43   24   45 1
  44   25   26 1
  45   25   46 1
  46   26   47 1
  47   27   28 ar
  48   27   31 1
  49   28   29 ar
  50   28   48 1
  51   29   30 1
  52   31   32 3

#	End of record

