#	Name: ASD03091112
#	Creating user name:	WinNT
#	Creation time:	15. 06. 2019 20:30

#	Modifying user name:	WinNT
#	Modification time:	15. 06. 2019 20:30

#	Program:	/corina/corina34_cracker 3.40 0067  02.08.2006

@<TRIPOS>MOLECULE
ASD03091112
  39   41    0    0    0
SMALL
NO_CHARGES


@<TRIPOS>ATOM
   1 C1             0.5023     0.5925    -2.0116 C.2     
   2 C2             0.2541    -0.4293    -0.9781 C.ar    
   3 C3             1.2602    -0.7604    -0.0578 C.ar    
   4 C4             1.0180    -1.7241     0.9124 C.ar    
   5 C5            -0.2076    -2.3549     0.9718 C.ar    
   6 C6            -1.2095    -2.0314     0.0625 C.ar    
   7 C7            -0.9860    -1.0688    -0.9064 C.ar    
   8 O8             1.5379     1.2298    -2.0002 O.2     
   9 N9            -0.4162     0.8164    -2.9721 N.am    
  10 N10           -4.8352    -4.1066    -0.8875 N.3     
  11 C11           -4.8021    -2.6530    -0.6649 C.3     
  12 C12           -3.3914    -2.1141    -0.8435 C.3     
  13 N13           -2.4498    -2.6775     0.1314 N.3     
  14 C14           -2.3011    -4.1258    -0.0693 C.3     
  15 C15           -3.2533    -4.8882     0.8398 C.3     
  16 C16           -4.6996    -4.8144     0.3937 C.3     
  17 C17           -3.9484    -4.6181    -1.9103 C.3     
  18 C18           -2.4840    -4.4456    -1.5417 C.3     
  19 N19            2.4970    -0.1254    -0.1174 N.pl3   
  20 H20            1.7910    -1.9805     1.6217 H       
  21 H21           -0.3900    -3.1040     1.7280 H       
  22 H22           -1.7667    -0.8160    -1.6085 H       
  23 H23           -1.2406     0.3053    -2.9835 H       
  24 H24           -0.2530     1.4887    -3.6520 H       
  25 H25           -5.4659    -2.1653    -1.3787 H       
  26 H26           -5.1435    -2.4370     0.3475 H       
  27 H27           -3.0457    -2.3560    -1.8486 H       
  28 H28           -3.4105    -1.0302    -0.7301 H       
  29 H29           -1.2817    -4.4007     0.2013 H       
  30 H30           -2.9487    -5.9344     0.8662 H       
  31 H31           -3.1771    -4.4793     1.8474 H       
  32 H32           -5.2800    -4.2902     1.1530 H       
  33 H33           -5.0904    -5.8261     0.2844 H       
  34 H34           -4.1532    -5.6785    -2.0578 H       
  35 H35           -4.1427    -4.0892    -2.8434 H       
  36 H36           -2.0624    -3.6345    -2.1354 H       
  37 H37           -1.9495    -5.3669    -1.7732 H       
  38 H38            2.6958     0.4817    -0.8473 H       
  39 H39            3.1603    -0.2899     0.5710 H       
@<TRIPOS>BOND
   1    1    2 1
   2    1    8 2
   3    1    9 am
   4    2    3 ar
   5    2    7 ar
   6    3    4 ar
   7    3   19 1
   8    4    5 ar
   9    4   20 1
  10    5    6 ar
  11    5   21 1
  12    6    7 ar
  13    6   13 1
  14    7   22 1
  15    9   23 1
  16    9   24 1
  17   10   11 1
  18   10   16 1
  19   10   17 1
  20   11   12 1
  21   11   25 1
  22   11   26 1
  23   12   13 1
  24   12   27 1
  25   12   28 1
  26   13   14 1
  27   14   15 1
  28   14   18 1
  29   14   29 1
  30   15   16 1
  31   15   30 1
  32   15   31 1
  33   16   32 1
  34   16   33 1
  35   17   18 1
  36   17   34 1
  37   17   35 1
  38   18   36 1
  39   18   37 1
  40   19   38 1
  41   19   39 1

#	End of record

