#	Name: ASD02038014
#	Creating user name:	WinNT
#	Creation time:	15. 06. 2019 20:16

#	Modifying user name:	WinNT
#	Modification time:	15. 06. 2019 20:16

#	Program:	/corina/corina34_cracker 3.40 0067  02.08.2006

@<TRIPOS>MOLECULE
ASD02038014
  46   49    0    0    0
SMALL
NO_CHARGES


@<TRIPOS>ATOM
   1 C1             0.0099     1.3693    -0.2039 C.ar    
   2 O2             1.1508     2.0795     0.0022 O.3     
   3 C3             2.4843     5.6132    -0.0595 C.3     
   4 N4             2.1742     4.1766    -0.0058 N.am    
   5 C5             1.0624     3.4199    -0.0943 C.2     
   6 C6             5.0138     6.0804     0.0206 C.3     
   7 O7             6.2485     5.7268    -0.6060 O.3     
   8 C8             7.3622     6.3882    -0.1927 C.ar    
   9 C9             8.5936     6.0940    -0.7594 C.ar    
  10 C10            7.2655     7.3613     0.7916 C.ar    
  11 C11            8.3957     8.0343     1.2113 C.ar    
  12 C12            9.6295     7.7365     0.6484 C.ar    
  13 C13            9.7246     6.7658    -0.3399 C.ar    
  14 N14           10.7779     8.4166     1.0717 N.am    
  15 C15           11.8875     8.4203     0.3105 C.2     
  16 C16           11.9125     7.7118    -1.0170 C.3     
  17 C17           11.0649     6.4442    -0.9483 C.3     
  18 O18           -0.0197     3.9470    -0.2612 O.2     
  19 O19           12.8788     9.0017     0.6985 O.2     
  20 C20            3.6111     3.9291     0.1860 C.3     
  21 C21            3.8821     5.2371    -0.5702 C.3     
  22 C22           -0.6788     0.8334     0.8744 C.ar    
  23 C23           -1.8378     0.1120     0.6630 C.ar    
  24 C24           -2.3115    -0.0765    -0.6234 C.ar    
  25 C25           -1.6256     0.4570    -1.7002 C.ar    
  26 C26           -0.4699     1.1846    -1.4922 C.ar    
  27 Cl27          -3.7679    -0.9838    -0.8866 Cl      
  28 H28            1.8876     6.1591    -0.7902 H       
  29 H29            2.4943     6.0920     0.9197 H       
  30 H30            5.0840     5.8945     1.0923 H       
  31 H31            4.8081     7.1367    -0.1523 H       
  32 H32            8.6678     5.3393    -1.5283 H       
  33 H33            6.3057     7.5926     1.2295 H       
  34 H34            8.3200     8.7923     1.9769 H       
  35 H35           10.7735     8.8885     1.9192 H       
  36 H36           11.5113     8.3710    -1.7868 H       
  37 H37           12.9402     7.4484    -1.2675 H       
  38 H38           11.5723     5.7010    -0.3333 H       
  39 H39           10.9226     6.0475    -1.9535 H       
  40 H40            3.9212     3.9593     1.2305 H       
  41 H41            3.9724     3.0431    -0.3361 H       
  42 H42            3.9468     5.1226    -1.6523 H       
  43 H43           -0.3090     0.9797     1.8785 H       
  44 H44           -2.3743    -0.3054     1.5022 H       
  45 H45           -1.9967     0.3086    -2.7035 H       
  46 H46            0.0652     1.6009    -2.3329 H       
@<TRIPOS>BOND
   1    1   22 ar
   2    1    2 1
   3    1   26 ar
   4    2    5 1
   5    3    4 1
   6    3   21 1
   7    3   28 1
   8    3   29 1
   9    4    5 am
  10    4   20 1
  11    5   18 2
  12    6    7 1
  13    6   21 1
  14    6   30 1
  15    6   31 1
  16    7    8 1
  17    8    9 ar
  18    8   10 ar
  19    9   13 ar
  20    9   32 1
  21   10   11 ar
  22   10   33 1
  23   11   12 ar
  24   11   34 1
  25   12   13 ar
  26   12   14 1
  27   13   17 1
  28   14   15 am
  29   14   35 1
  30   15   16 1
  31   15   19 2
  32   16   17 1
  33   16   36 1
  34   16   37 1
  35   17   38 1
  36   17   39 1
  37   20   21 1
  38   20   40 1
  39   20   41 1
  40   21   42 1
  41   22   23 ar
  42   22   43 1
  43   23   24 ar
  44   23   44 1
  45   24   25 ar
  46   24   27 1
  47   25   26 ar
  48   25   45 1
  49   26   46 1

#	End of record

