#	Name: ASD01910882
#	Creating user name:	WinNT
#	Creation time:	15. 06. 2019 19:56

#	Modifying user name:	WinNT
#	Modification time:	15. 06. 2019 19:56

#	Program:	/corina/corina34_cracker 3.40 0067  02.08.2006

@<TRIPOS>MOLECULE
ASD01910882
  50   53    0    0    0
SMALL
NO_CHARGES


@<TRIPOS>ATOM
   1 C1             0.1991     1.4998    -0.2548 C.ar    
   2 N2             0.1403     0.1121    -0.1999 N.3     
   3 C3             1.4875    -0.4697    -0.1342 C.3     
   4 C4             1.3773    -1.9790     0.1069 C.3     
   5 N5             0.5012    -2.5542    -0.9250 N.am    
   6 C6            -0.8151    -1.9355    -1.1441 C.3     
   7 C7            -0.6185    -0.4280    -1.3359 C.3     
   8 C8             0.8939    -3.6201    -1.6502 C.2     
   9 C9            -0.0477    -4.2596    -2.5942 C.ar    
  10 C10            0.4055    -4.7136    -3.8348 C.ar    
  11 C11           -0.4720    -5.3112    -4.7182 C.ar    
  12 C12           -1.8020    -5.4644    -4.3829 C.ar    
  13 C13           -2.2700    -5.0142    -3.1444 C.ar    
  14 C14           -1.3874    -4.4155    -2.2455 C.ar    
  15 C15           -3.6502    -5.1731    -2.7974 C.1     
  16 O16            2.0221    -4.0558    -1.5284 O.2     
  17 C17           -4.7818    -5.3034    -2.5130 C.1     
  18 C18           -6.1620    -5.4623    -2.1661 C.ar    
  19 C19           -6.6404    -5.0162    -0.9316 C.ar    
  20 N20           -7.9097    -5.1628    -0.6134 N.ar    
  21 C21           -8.7732    -5.7291    -1.4343 C.ar    
  22 C22           -8.3788    -6.1976    -2.6751 C.ar    
  23 C23           -7.0576    -6.0628    -3.0614 C.ar    
  24 N24            1.3734     2.1168    -0.2434 N.ar    
  25 C25            1.4251     3.4372    -0.2963 C.ar    
  26 C26            0.2585     4.1744    -0.3632 C.ar    
  27 N27           -0.9146     3.5635    -0.3748 N.ar    
  28 C28           -0.9750     2.2465    -0.3278 C.ar    
  29 C29            0.3229     5.6788    -0.4228 C.3     
  30 H30            2.0082    -0.2886    -1.0745 H       
  31 H31            2.0426    -0.0103     0.6837 H       
  32 H32            2.3661    -2.4332     0.0425 H       
  33 H33            0.9507    -2.1621     1.0931 H       
  34 H34           -1.2758    -2.3611    -2.0355 H       
  35 H35           -1.4524    -2.1145    -0.2781 H       
  36 H36           -1.5909     0.0617    -1.3895 H       
  37 H37           -0.0685    -0.2475    -2.2595 H       
  38 H38            1.4448    -4.5968    -4.1041 H       
  39 H39           -0.1158    -5.6600    -5.6763 H       
  40 H40           -2.4827    -5.9326    -5.0784 H       
  41 H41           -1.7430    -4.0658    -1.2875 H       
  42 H42           -5.9635    -4.5477    -0.2325 H       
  43 H43           -9.8054    -5.8290    -1.1326 H       
  44 H44           -9.0963    -6.6598    -3.3369 H       
  45 H45           -6.7228    -6.4196    -4.0242 H       
  46 H46            2.3808     3.9401    -0.2867 H       
  47 H47           -1.9332     1.7483    -0.3376 H       
  48 H48            0.3708     5.9996    -1.4634 H       
  49 H49           -0.5665     6.0994     0.0465 H       
  50 H50            1.2109     6.0257     0.1056 H       
@<TRIPOS>BOND
   1    1    2 1
   2    1   24 ar
   3    1   28 ar
   4    2    3 1
   5    2    7 1
   6    3    4 1
   7    3   30 1
   8    3   31 1
   9    4    5 1
  10    4   32 1
  11    4   33 1
  12    5    6 1
  13    5    8 am
  14    6    7 1
  15    6   34 1
  16    6   35 1
  17    7   36 1
  18    7   37 1
  19    8    9 1
  20    8   16 2
  21    9   10 ar
  22    9   14 ar
  23   10   11 ar
  24   10   38 1
  25   11   12 ar
  26   11   39 1
  27   12   13 ar
  28   12   40 1
  29   13   14 ar
  30   13   15 1
  31   14   41 1
  32   15   17 3
  33   17   18 1
  34   18   19 ar
  35   18   23 ar
  36   19   20 ar
  37   19   42 1
  38   20   21 ar
  39   21   22 ar
  40   21   43 1
  41   22   23 ar
  42   22   44 1
  43   23   45 1
  44   24   25 ar
  45   25   26 ar
  46   25   46 1
  47   26   27 ar
  48   26   29 1
  49   27   28 ar
  50   28   47 1
  51   29   48 1
  52   29   49 1
  53   29   50 1

#	End of record

