#	Name: ASD03090791
#	Creating user name:	WinNT
#	Creation time:	15. 06. 2019 20:29

#	Modifying user name:	WinNT
#	Modification time:	15. 06. 2019 20:29

#	Program:	/corina/corina34_cracker 3.40 0067  02.08.2006

@<TRIPOS>MOLECULE
ASD03090791
  47   51    0    0    0
SMALL
NO_CHARGES


@<TRIPOS>ATOM
   1 N1            -0.0165     1.3647     0.0095 N.am    
   2 C2             0.0021    -0.0041     0.0020 C.2     
   3 N3             1.1060    -0.7060    -0.0123 N.2     
   4 C4             2.3209    -0.1124    -0.0206 C.ar    
   5 C5             2.3964     1.3008    -0.0138 C.ar    
   6 C6             1.1414     2.0673     0.0023 C.2     
   7 O7             1.1432     3.2842     0.0084 O.2     
   8 C8             3.5103    -0.8466    -0.0354 C.ar    
   9 N9             4.6708    -0.2265    -0.0427 N.ar    
  10 C10            4.7758     1.0956    -0.0366 C.ar    
  11 C11            3.6482     1.9074    -0.0215 C.ar    
  12 N12            6.0388     1.6807    -0.0451 N.3     
  13 C13           -1.2886    -0.7244     0.0109 C.ar    
  14 C14           -1.3124    -2.1199     0.0037 C.ar    
  15 C15           -2.5203    -2.7868     0.0125 C.ar    
  16 C16           -3.7066    -2.0758     0.0286 C.ar    
  17 C17           -3.6908    -0.6909     0.0358 C.ar    
  18 C18           -2.4888    -0.0119     0.0325 C.ar    
  19 C19            7.0933     0.6572    -0.0602 C.3     
  20 C20            8.2494     1.0991    -0.9449 C.3     
  21 C21            9.0981     2.1908    -0.3250 C.3     
  22 N22            8.6677     2.4976     1.0466 N.3     
  23 C23            7.4964     3.3868     1.0191 C.3     
  24 C24            6.2087     2.5818     1.1010 C.3     
  25 C25            8.5577     1.3192     1.8794 C.3     
  26 C26            7.5071     0.3479     1.3669 C.3     
  27 Cl27          -5.1850     0.1926     0.0560 Cl      
  28 H28           -0.8650     1.8348     0.0161 H       
  29 H29            3.4766    -1.9261    -0.0405 H       
  30 H30            3.7414     2.9834    -0.0167 H       
  31 H31           -0.3871    -2.6767    -0.0092 H       
  32 H32           -2.5395    -3.8666     0.0066 H       
  33 H33           -4.6493    -2.6027     0.0351 H       
  34 H34           -2.4771     1.0681     0.0381 H       
  35 H35            6.6721    -0.2545    -0.4839 H       
  36 H36            8.8836     0.2363    -1.1480 H       
  37 H37            7.8467     1.4637    -1.8899 H       
  38 H38           10.1384     1.8660    -0.3073 H       
  39 H39            9.0183     3.0920    -0.9330 H       
  40 H40            7.5458     4.0722     1.8652 H       
  41 H41            7.5028     3.9606     0.0923 H       
  42 H42            5.3640     3.2697     1.1375 H       
  43 H43            6.2198     1.9903     2.0165 H       
  44 H44            9.5232     0.8140     1.9062 H       
  45 H45            8.2926     1.6251     2.8915 H       
  46 H46            6.6291     0.4036     2.0104 H       
  47 H47            7.9104    -0.6640     1.4074 H       
@<TRIPOS>BOND
   1    1    2 1
   2    1    6 am
   3    1   28 1
   4    2    3 2
   5    2   13 1
   6    3    4 1
   7    4    5 ar
   8    4    8 ar
   9    5    6 1
  10    5   11 ar
  11    6    7 2
  12    8    9 ar
  13    8   29 1
  14    9   10 ar
  15   10   11 ar
  16   10   12 1
  17   11   30 1
  18   12   19 1
  19   12   24 1
  20   13   14 ar
  21   13   18 ar
  22   14   15 ar
  23   14   31 1
  24   15   16 ar
  25   15   32 1
  26   16   17 ar
  27   16   33 1
  28   17   18 ar
  29   17   27 1
  30   18   34 1
  31   19   20 1
  32   19   26 1
  33   19   35 1
  34   20   21 1
  35   20   36 1
  36   20   37 1
  37   21   22 1
  38   21   38 1
  39   21   39 1
  40   22   23 1
  41   22   25 1
  42   23   24 1
  43   23   40 1
  44   23   41 1
  45   24   42 1
  46   24   43 1
  47   25   26 1
  48   25   44 1
  49   25   45 1
  50   26   46 1
  51   26   47 1

#	End of record

