#	Name: ASD01140541
#	Creating user name:	WinNT
#	Creation time:	15. 06. 2019 19:01

#	Modifying user name:	WinNT
#	Modification time:	15. 06. 2019 19:01

#	Program:	/corina/corina34_cracker 3.40 0067  02.08.2006

@<TRIPOS>MOLECULE
ASD01140541
  35   37    0    0    0
SMALL
NO_CHARGES


@<TRIPOS>ATOM
   1 O1            -0.0173     1.4240     0.0099 O.3     
   2 O2             0.9344    -1.9061     1.1795 O.3     
   3 O3             4.7140     1.5159     0.6454 O.3     
   4 O4             2.3967     5.4376    -0.7128 O.3     
   5 O5            -3.5166    -3.3178    -0.6749 O.3     
   6 O6            -5.1712    -1.9716     1.0679 O.3     
   7 C7             0.9706    -0.4803     1.0923 C.3     
   8 C8             0.0021    -0.0041     0.0020 C.3     
   9 C9             2.3815    -0.0220     0.7149 C.3     
  10 C10            2.3569     1.4365     0.3332 C.ar    
  11 C11            1.1750     2.0753     0.0020 C.ar    
  12 C12           -1.3807    -0.5321     0.2854 C.ar    
  13 C13            3.5539     2.1428     0.3170 C.ar    
  14 C14            1.1919     3.4206    -0.3497 C.ar    
  15 C15           -1.8158    -1.6911    -0.3298 C.ar    
  16 C16           -2.2091     0.1406     1.1643 C.ar    
  17 C17            3.5693     3.4834    -0.0325 C.ar    
  18 C18            2.3857     4.1233    -0.3674 C.ar    
  19 C19           -3.0869    -2.1780    -0.0703 C.ar    
  20 C20           -3.4784    -0.3397     1.4276 C.ar    
  21 C21           -3.9228    -1.4978     0.8100 C.ar    
  22 H22            0.6867    -0.0462     2.0510 H       
  23 H23            0.3399    -0.3614    -0.9708 H       
  24 H24            3.0483    -0.1632     1.5655 H       
  25 H25            2.7408    -0.6116    -0.1286 H       
  26 H26            0.2704     3.9198    -0.6107 H       
  27 H27           -1.1651    -2.2169    -1.0128 H       
  28 H28            1.5248    -2.2742     1.8510 H       
  29 H29           -1.8638     1.0432     1.6465 H       
  30 H30            4.5013     4.0291    -0.0436 H       
  31 H31           -4.1235     0.1875     2.1148 H       
  32 H32            5.1694     1.1122    -0.1062 H       
  33 H33            2.2809     6.0414     0.0336 H       
  34 H34           -3.3213    -4.1242    -0.1783 H       
  35 H35           -5.2126    -2.5851     1.8142 H       
@<TRIPOS>BOND
   1    1    8 1
   2    1   11 1
   3    2   28 1
   4    2    7 1
   5    3   13 1
   6    3   32 1
   7    4   18 1
   8    4   33 1
   9    5   19 1
  10    5   34 1
  11    6   21 1
  12    6   35 1
  13    7    8 1
  14    7    9 1
  15    7   22 1
  16    8   12 1
  17    8   23 1
  18    9   10 1
  19    9   24 1
  20    9   25 1
  21   10   11 ar
  22   10   13 ar
  23   11   14 ar
  24   12   15 ar
  25   12   16 ar
  26   13   17 ar
  27   14   18 ar
  28   14   26 1
  29   15   19 ar
  30   15   27 1
  31   16   20 ar
  32   16   29 1
  33   17   18 ar
  34   17   30 1
  35   19   21 ar
  36   20   21 ar
  37   20   31 1

#	End of record

