#	Name: ASD03331848
#	Creating user name:	WinNT
#	Creation time:	15. 06. 2019 20:40

#	Modifying user name:	WinNT
#	Modification time:	15. 06. 2019 20:40

#	Program:	/corina/corina34_cracker 3.40 0067  02.08.2006

@<TRIPOS>MOLECULE
ASD03331848
  44   46    0    0    0
SMALL
NO_CHARGES


@<TRIPOS>ATOM
   1 C1             1.1670    -0.4242    -1.2313 C.ar    
   2 C2             0.6550     0.0106    -2.4421 C.ar    
   3 C3             1.1656     1.1487    -3.0433 C.ar    
   4 C4             2.1871     1.8525    -2.4359 C.ar    
   5 C5             2.7016     1.4184    -1.2216 C.ar    
   6 C6             2.1882     0.2770    -0.6205 C.ar    
   7 N7             3.7377     2.1304    -0.6043 N.am    
   8 C8             3.7768     3.4748    -0.6917 C.2     
   9 N9             4.7205     4.1664    -0.0226 N.am    
  10 O10            2.9608     4.0637    -1.3741 O.2     
  11 C11            4.8219     5.5523    -0.1887 C.ar    
  12 C12            3.7714     7.6858    -0.5300 C.ar    
  13 C13            3.6754     6.3167    -0.3657 C.ar    
  14 C14            6.0665     6.1637    -0.1708 C.ar    
  15 C15            6.1624     7.5431    -0.3360 C.ar    
  16 C16            5.0067     8.3015    -0.5184 C.ar    
  17 C17            7.4902     8.2037    -0.3176 C.ar    
  18 C18            7.5966     9.5873    -0.4825 C.ar    
  19 C19            8.8560    10.1590    -0.4582 C.ar    
  20 N20            9.9152     9.3850    -0.2808 N.ar    
  21 C21            9.7848     8.0754    -0.1269 C.ar    
  22 N22            8.5982     7.4885    -0.1382 N.ar    
  23 F23           -0.3439    -0.6767    -3.0380 F       
  24 N24           10.9179     7.3017     0.0556 N.pl3   
  25 C25           12.2400     7.9326     0.0768 C.3     
  26 C26           10.7952     5.8520     0.2275 C.3     
  27 H27            0.7646    -1.3098    -0.7620 H       
  28 H28            0.7652     1.4860    -3.9878 H       
  29 H29            2.5856     2.7397    -2.9055 H       
  30 H30            2.5870    -0.0622     0.3241 H       
  31 H31            4.4272     1.6560    -0.1139 H       
  32 H32            5.3293     3.7035     0.5741 H       
  33 H33            2.8772     8.2755    -0.6677 H       
  34 H34            2.7065     5.8398    -0.3753 H       
  35 H35            6.9587     5.5719    -0.0289 H       
  36 H36            5.0779     9.3714    -0.6478 H       
  37 H37            6.7161    10.1960    -0.6260 H       
  38 H38            8.9739    11.2253    -0.5829 H       
  39 H39           12.4909     8.2162     1.0989 H       
  40 H40           12.9840     7.2298    -0.2983 H       
  41 H41           12.2287     8.8211    -0.5545 H       
  42 H42            9.7437     5.5686     0.1833 H       
  43 H43           11.3421     5.3443    -0.5671 H       
  44 H44           11.2087     5.5645     1.1942 H       
@<TRIPOS>BOND
   1    1    2 ar
   2    1    6 ar
   3    1   27 1
   4    2    3 ar
   5    2   23 1
   6    3    4 ar
   7    3   28 1
   8    4    5 ar
   9    4   29 1
  10    5    6 ar
  11    5    7 1
  12    6   30 1
  13    7    8 am
  14    7   31 1
  15    8    9 am
  16    8   10 2
  17    9   11 1
  18    9   32 1
  19   11   14 ar
  20   11   13 ar
  21   12   13 ar
  22   12   16 ar
  23   12   33 1
  24   13   34 1
  25   14   15 ar
  26   14   35 1
  27   15   16 ar
  28   15   17 1
  29   16   36 1
  30   17   18 ar
  31   17   22 ar
  32   18   19 ar
  33   18   37 1
  34   19   20 ar
  35   19   38 1
  36   20   21 ar
  37   21   22 ar
  38   21   24 1
  39   24   25 1
  40   24   26 1
  41   25   39 1
  42   25   40 1
  43   25   41 1
  44   26   42 1
  45   26   43 1
  46   26   44 1

#	End of record

