#	Name: ASD01200023
#	Creating user name:	WinNT
#	Creation time:	15. 06. 2019 19:08

#	Modifying user name:	WinNT
#	Modification time:	15. 06. 2019 19:08

#	Program:	/corina/corina34_cracker 3.40 0067  02.08.2006

@<TRIPOS>MOLECULE
ASD01200023
  45   48    0    0    0
SMALL
NO_CHARGES


@<TRIPOS>ATOM
   1 C1            -0.0947     1.4320    -0.6187 C.ar    
   2 C2            -0.0533     0.0369    -0.5694 C.ar    
   3 C3            -1.2211    -0.6694    -0.3691 C.ar    
   4 C4            -2.4145     0.0425    -0.2214 C.ar    
   5 C5            -2.3832     1.4413    -0.2815 C.ar    
   6 N6            -1.2327     2.0827    -0.4715 N.ar    
   7 C7            -3.6337     2.2096    -0.1275 C.2     
   8 N8            -3.6088     3.5559    -0.1846 N.am    
   9 C9            -4.7856     4.2789    -0.0397 C.2     
  10 S10           -3.9364    -0.8073     0.0362 S.3     
  11 C11           -3.4774    -2.5006    -0.1275 C.ar    
  12 S12            1.3958     2.3363    -0.8738 S.3     
  13 C13            0.8503     4.0117    -0.8600 C.2     
  14 N14           -4.8723     5.5719    -0.0783 N.2     
  15 C15           -6.0740     6.0950     0.0782 C.2     
  16 C16           -7.0490     5.2016     0.2575 C.2     
  17 S17           -6.3320     3.5932     0.2081 S.3     
  18 N18            1.6305     5.1209    -1.0188 N.pl3   
  19 C19            0.7795     6.1874    -0.9359 C.2     
  20 N20           -0.4187     5.7134    -0.7408 N.2     
  21 N21           -0.3839     4.4292    -0.7008 N.2     
  22 C22           -3.1341    -3.2404     0.9973 C.ar    
  23 C23           -2.7752    -4.5674     0.8665 C.ar    
  24 C24           -2.7573    -5.1609    -0.3846 C.ar    
  25 C25           -3.0987    -4.4255    -1.5073 C.ar    
  26 C26           -3.4638    -3.0998    -1.3810 C.ar    
  27 F27           -2.4058    -6.4594    -0.5101 F       
  28 O28           -4.6865     1.6279     0.0508 O.2     
  29 C29           -6.3246     7.5808     0.0567 C.3     
  30 C30            3.0793     5.1599    -1.2330 C.3     
  31 H31            0.8851    -0.4846    -0.6875 H       
  32 H32           -1.2133    -1.7486    -0.3278 H       
  33 H33           -2.7689     4.0199    -0.3269 H       
  34 H34           -8.0954     5.4255     0.4035 H       
  35 H35            1.0501     7.2298    -1.0167 H       
  36 H36           -3.1475    -2.7778     1.9732 H       
  37 H37           -2.5079    -5.1427     1.7405 H       
  38 H38           -3.0833    -4.8904    -2.4821 H       
  39 H39           -3.7302    -2.5267    -2.2568 H       
  40 H40           -6.5352     7.8990    -0.9643 H       
  41 H41           -7.1779     7.8146     0.6934 H       
  42 H42           -5.4421     8.1035     0.4255 H       
  43 H43            3.2894     5.1290    -2.3022 H       
  44 H44            3.4846     6.0788    -0.8095 H       
  45 H45            3.5417     4.3008    -0.7469 H       
@<TRIPOS>BOND
   1    1    2 ar
   2    1   12 1
   3    1    6 ar
   4    2    3 ar
   5    2   31 1
   6    3    4 ar
   7    3   32 1
   8    4    5 ar
   9    4   10 1
  10    5    6 ar
  11    5    7 1
  12    7    8 am
  13    7   28 2
  14    8    9 1
  15    8   33 1
  16    9   14 2
  17    9   17 1
  18   10   11 1
  19   11   22 ar
  20   11   26 ar
  21   12   13 1
  22   13   18 1
  23   13   21 2
  24   14   15 1
  25   15   16 2
  26   15   29 1
  27   16   17 1
  28   16   34 1
  29   18   19 1
  30   18   30 1
  31   19   20 2
  32   19   35 1
  33   20   21 1
  34   22   23 ar
  35   22   36 1
  36   23   24 ar
  37   23   37 1
  38   24   25 ar
  39   24   27 1
  40   25   26 ar
  41   25   38 1
  42   26   39 1
  43   29   40 1
  44   29   41 1
  45   29   42 1
  46   30   43 1
  47   30   44 1
  48   30   45 1

#	End of record

