#	Name: ASD07930339
#	Creating user name:	WinNT
#	Creation time:	15. 06. 2019 21:12

#	Modifying user name:	WinNT
#	Modification time:	15. 06. 2019 21:12

#	Program:	/corina/corina34_cracker 3.40 0067  02.08.2006

@<TRIPOS>MOLECULE
ASD07930339
  49   50    0    0    0
SMALL
NO_CHARGES


@<TRIPOS>ATOM
   1 N1            -0.0120     1.4567     0.1323 N.pl3   
   2 C2             0.0021    -0.0041     0.0020 C.3     
   3 C3             0.8072    -0.6061     1.1625 C.3     
   4 S4             2.4653     0.1461     1.1540 S.o2    
   5 N5             2.1275     1.7748     1.0550 N.am    
   6 C6             1.1655     2.1534     0.1466 C.2     
   7 C7            -1.4106    -0.5271     0.0446 C.ar    
   8 C8            -1.6481    -1.8872    -0.0472 C.ar    
   9 C9             2.8203     2.7557     1.8942 C.3     
  10 O10            3.0975    -0.0119     2.4168 O.2     
  11 O11            3.1483    -0.1517    -0.0560 O.2     
  12 C12            0.6525    -0.3926    -1.3272 C.3     
  13 C13           -2.4689     0.3511     0.1811 C.ar    
  14 C14           -3.7650    -0.1286     0.2201 C.ar    
  15 C15           -4.0032    -1.4866     0.1227 C.ar    
  16 C16           -2.9451    -2.3665    -0.0080 C.ar    
  17 Cl17          -0.3188    -2.9915    -0.2120 Cl      
  18 N18            1.3728     3.1609    -0.6872 N.2     
  19 O19            0.6341     4.5383    -2.4123 O.3     
  20 C20           -0.4230     4.8579    -3.3192 C.3     
  21 C21           -1.6784     5.2307    -2.5282 C.3     
  22 C22           -0.0031     6.0393    -4.1960 C.3     
  23 C23           -0.7192     3.6457    -4.2045 C.3     
  24 C24            0.4228     3.5116    -1.5624 C.2     
  25 O25           -0.6319     2.9043    -1.5917 O.2     
  26 N26           -4.8980     0.8126     0.3668 N.pl3   
  27 O27           -4.6884     2.0093     0.4530 O.2     
  28 O28           -6.0400     0.3903     0.4012 O.2     
  29 H29           -0.8561     1.9292     0.2041 H       
  30 H30            0.3094    -0.3885     2.1074 H       
  31 H31            0.8920    -1.6848     1.0306 H       
  32 H32            3.7159     3.1052     1.3807 H       
  33 H33            2.1590     3.6004     2.0871 H       
  34 H34            3.1014     2.2911     2.8394 H       
  35 H35            1.6749    -0.0159    -1.3553 H       
  36 H36            0.6625    -1.4783    -1.4232 H       
  37 H37            0.0834     0.0397    -2.1503 H       
  38 H38           -2.2834     1.4123     0.2575 H       
  39 H39           -5.0158    -1.8607     0.1533 H       
  40 H40           -3.1313    -3.4276    -0.0841 H       
  41 H41           -1.4674     6.0942    -1.8974 H       
  42 H42           -2.4847     5.4744    -3.2200 H       
  43 H43           -1.9776     4.3890    -1.9035 H       
  44 H44            0.8913     5.7737    -4.7595 H       
  45 H45           -0.8094     6.2830    -4.8878 H       
  46 H46            0.2080     6.9029    -3.5652 H       
  47 H47           -1.0184     2.8040    -3.5799 H       
  48 H48           -1.5255     3.8894    -4.8963 H       
  49 H49            0.1752     3.3801    -4.7681 H       
@<TRIPOS>BOND
   1    1    2 1
   2    1    6 1
   3    1   29 1
   4    2    3 1
   5    2    7 1
   6    2   12 1
   7    3    4 1
   8    3   30 1
   9    3   31 1
  10    4    5 am
  11    4   10 2
  12    4   11 2
  13    5    6 1
  14    5    9 1
  15    6   18 2
  16    7   13 ar
  17    7    8 ar
  18    8   17 1
  19    8   16 ar
  20    9   32 1
  21    9   33 1
  22    9   34 1
  23   12   35 1
  24   12   36 1
  25   12   37 1
  26   13   14 ar
  27   13   38 1
  28   14   15 ar
  29   14   26 1
  30   15   16 ar
  31   15   39 1
  32   16   40 1
  33   18   24 1
  34   19   20 1
  35   19   24 1
  36   20   21 1
  37   20   22 1
  38   20   23 1
  39   21   41 1
  40   21   42 1
  41   21   43 1
  42   22   44 1
  43   22   45 1
  44   22   46 1
  45   23   47 1
  46   23   48 1
  47   23   49 1
  48   24   25 2
  49   26   27 2
  50   26   28 2

#	End of record

