#	Name: ASD01230582
#	Creating user name:	WinNT
#	Creation time:	15. 06. 2019 19:14

#	Modifying user name:	WinNT
#	Modification time:	15. 06. 2019 19:14

#	Program:	/corina/corina34_cracker 3.40 0067  02.08.2006

@<TRIPOS>MOLECULE
ASD01230582
  41   44    0    0    0
SMALL
NO_CHARGES


@<TRIPOS>ATOM
   1 C1            -0.0187     1.5258     0.0104 C.3     
   2 C2             0.0021    -0.0041     0.0020 C.3     
   3 O3            -1.3323    -0.4993     0.1295 O.3     
   4 C4            -1.4912    -1.8489     0.1393 C.ar    
   5 C5            -2.7617    -2.3957     0.2604 C.ar    
   6 C6            -0.3833    -2.6775     0.0225 C.ar    
   7 C7            -0.5407    -4.0473     0.0320 C.ar    
   8 C8            -1.8153    -4.6005     0.1593 C.ar    
   9 C9            -2.9269    -3.7645     0.2707 C.ar    
  10 C10           -1.9885    -6.0709     0.1699 C.2     
  11 C11           -2.7254    -6.7460    -0.9195 C.2     
  12 C12           -1.4600    -6.8285     1.1923 C.2     
  13 C13           -1.6439    -8.2180     1.1734 C.2     
  14 C14           -2.3336    -8.8069     0.1816 C.2     
  15 N15           -2.8923    -8.1000    -0.8543 N.pl3   
  16 C16           -3.6640    -8.8771    -1.8278 C.3     
  17 C17           -3.4816    -8.3073    -3.2375 C.3     
  18 S18           -3.9989    -6.5626    -3.1820 S.o2    
  19 N19           -3.1565    -5.9717    -1.8856 N.am    
  20 O20           -3.4877    -5.8492    -4.2995 O.2     
  21 O21           -5.3623    -6.4528    -2.7968 O.2     
  22 C22            1.3287     2.2506     0.0015 C.3     
  23 C23            0.4543     2.2457    -1.2541 C.3     
  24 H24           -0.8317     1.9818     0.5753 H       
  25 H25            0.4324    -0.3564    -0.9354 H       
  26 H26            0.6044    -0.3639     0.8362 H       
  27 H27           -3.6216    -1.7480     0.3470 H       
  28 H28            0.6029    -2.2486    -0.0763 H       
  29 H29            0.3216    -4.6912    -0.0592 H       
  30 H30           -3.9150    -4.1892     0.3693 H       
  31 H31           -0.9122    -6.3589     1.9959 H       
  32 H32           -1.2261    -8.8225     1.9649 H       
  33 H33           -2.4495    -9.8806     0.1978 H       
  34 H34           -3.3239    -9.9125    -1.8119 H       
  35 H35           -4.7199    -8.8420    -1.5598 H       
  36 H36           -2.4346    -8.3751    -3.5329 H       
  37 H37           -4.1041    -8.8570    -3.9436 H       
  38 H38            1.4019     3.1837     0.5601 H       
  39 H39            2.2299     1.6376    -0.0104 H       
  40 H40            0.7803     1.6294    -2.0919 H       
  41 H41           -0.0477     3.1755    -1.5214 H       
@<TRIPOS>BOND
   1    1    2 1
   2    1   22 1
   3    1   23 1
   4    1   24 1
   5    2    3 1
   6    2   25 1
   7    2   26 1
   8    3    4 1
   9    4    5 ar
  10    4    6 ar
  11    5    9 ar
  12    5   27 1
  13    6    7 ar
  14    6   28 1
  15    7    8 ar
  16    7   29 1
  17    8    9 ar
  18    8   10 1
  19    9   30 1
  20   10   11 1
  21   10   12 2
  22   11   15 1
  23   11   19 2
  24   12   13 1
  25   12   31 1
  26   13   14 2
  27   13   32 1
  28   14   15 1
  29   14   33 1
  30   15   16 1
  31   16   17 1
  32   16   34 1
  33   16   35 1
  34   17   18 1
  35   17   36 1
  36   17   37 1
  37   18   19 am
  38   18   20 2
  39   18   21 2
  40   22   23 1
  41   22   38 1
  42   22   39 1
  43   23   40 1
  44   23   41 1

#	End of record

