#	Name: ASD01200031
#	Creating user name:	WinNT
#	Creation time:	15. 06. 2019 19:08

#	Modifying user name:	WinNT
#	Modification time:	15. 06. 2019 19:08

#	Program:	/corina/corina34_cracker 3.40 0067  02.08.2006

@<TRIPOS>MOLECULE
ASD01200031
  42   45    0    0    0
SMALL
NO_CHARGES


@<TRIPOS>ATOM
   1 C1            -0.0948     1.4320    -0.6190 C.ar    
   2 C2            -0.0533     0.0369    -0.5697 C.ar    
   3 C3            -1.2211    -0.6694    -0.3693 C.ar    
   4 C4            -2.4145     0.0425    -0.2215 C.ar    
   5 C5            -2.3832     1.4413    -0.2816 C.ar    
   6 N6            -1.2328     2.0827    -0.4718 N.ar    
   7 C7            -3.6338     2.2095    -0.1281 C.2     
   8 N8            -3.6090     3.5558    -0.1852 N.am    
   9 C9            -4.7859     4.2787    -0.0407 C.2     
  10 S10           -3.9364    -0.8073     0.0362 S.3     
  11 C11           -3.4774    -2.5006    -0.1275 C.ar    
  12 S12            1.3958     2.3363    -0.8742 S.3     
  13 C13            0.8502     4.0117    -0.8604 C.2     
  14 N14           -4.8727     5.5718    -0.0793 N.2     
  15 C15           -6.0744     6.0948     0.0768 C.2     
  16 C16           -7.0494     5.2014     0.2558 C.2     
  17 S17           -6.3323     3.5930     0.2066 S.3     
  18 N18            1.6304     5.1209    -1.0193 N.pl3   
  19 C19            0.7794     6.1874    -0.9364 C.2     
  20 N20           -0.4188     5.7134    -0.7412 N.2     
  21 N21           -0.3840     4.4292    -0.7012 N.2     
  22 C22           -3.1339    -3.2410     0.9972 C.ar    
  23 C23           -2.7747    -4.5677     0.8651 C.ar    
  24 C24           -2.7565    -5.1598    -0.3847 C.ar    
  25 C25           -3.0978    -4.4260    -1.5062 C.ar    
  26 C26           -3.4636    -3.1004    -1.3810 C.ar    
  27 O27           -4.6867     1.6278     0.0500 O.2     
  28 C28           -2.3635    -6.6079    -0.5248 C.3     
  29 F29           -3.5027    -7.4128    -0.4174 F       
  30 F30           -1.7656    -6.8101    -1.7733 F       
  31 F31           -1.4573    -6.9451     0.4863 F       
  32 H32            0.8850    -0.4846    -0.6878 H       
  33 H33           -1.2134    -1.7485    -0.3280 H       
  34 H34           -2.7691     4.0198    -0.3273 H       
  35 H35           -6.2541     7.1596     0.0610 H       
  36 H36           -8.0959     5.4252     0.4015 H       
  37 H37            2.5896     5.1467    -1.1612 H       
  38 H38            1.0499     7.2298    -1.0172 H       
  39 H39           -3.1475    -2.7792     1.9734 H       
  40 H40           -2.5073    -5.1437     1.7387 H       
  41 H41           -3.0822    -4.8915    -2.4806 H       
  42 H42           -3.7300    -2.5280    -2.2572 H       
@<TRIPOS>BOND
   1    1    2 ar
   2    1   12 1
   3    1    6 ar
   4    2    3 ar
   5    2   32 1
   6    3    4 ar
   7    3   33 1
   8    4    5 ar
   9    4   10 1
  10    5    6 ar
  11    5    7 1
  12    7    8 am
  13    7   27 2
  14    8    9 1
  15    8   34 1
  16    9   14 2
  17    9   17 1
  18   10   11 1
  19   11   22 ar
  20   11   26 ar
  21   12   13 1
  22   13   18 1
  23   13   21 2
  24   14   15 1
  25   15   16 2
  26   15   35 1
  27   16   17 1
  28   16   36 1
  29   18   19 1
  30   18   37 1
  31   19   20 2
  32   19   38 1
  33   20   21 1
  34   22   23 ar
  35   22   39 1
  36   23   24 ar
  37   23   40 1
  38   24   25 ar
  39   24   28 1
  40   25   26 ar
  41   25   41 1
  42   26   42 1
  43   28   29 1
  44   28   30 1
  45   28   31 1

#	End of record

