#	Name: ASD01883010
#	Creating user name:	WinNT
#	Creation time:	15. 06. 2019 19:45

#	Modifying user name:	WinNT
#	Modification time:	15. 06. 2019 19:45

#	Program:	/corina/corina34_cracker 3.40 0067  02.08.2006

@<TRIPOS>MOLECULE
ASD01883010
  51   53    0    0    0
SMALL
NO_CHARGES


@<TRIPOS>ATOM
   1 C1             0.0970     1.6454    -0.1788 C.3     
   2 C2            -0.0343     0.1236    -0.0830 C.3     
   3 C3             0.5171    -0.3540     1.2623 C.3     
   4 C4             2.0020     0.0102     1.3593 C.3     
   5 N5             2.1514     1.4527     1.1238 N.pl3   
   6 C6             1.5771     2.0322    -0.0981 C.3     
   7 N7             4.1292     3.8526     3.8542 N.am    
   8 C8             4.8265     2.8847     3.2309 C.2     
   9 C9             4.1831     2.0451     2.2912 C.2     
  10 C10            2.8170     2.2463     2.0308 C.2     
  11 C11            2.1424     3.2747     2.7144 C.2     
  12 C12            2.8073     4.0425     3.6051 C.2     
  13 O13            6.0114     2.7320     3.4753 O.2     
  14 C14            4.9099     1.0107     1.6185 C.1     
  15 N15            5.4864     0.1902     1.0849 N.1     
  16 C16            4.8078     4.7145     4.8252 C.3     
  17 C17            5.3818     5.9378     4.1076 C.3     
  18 C18            6.0905     6.8380     5.1216 C.3     
  19 C19            6.6645     8.0613     4.4040 C.3     
  20 C20           -1.4865    -0.2631    -0.1962 C.ar    
  21 C21           -1.8360    -1.4818    -0.7459 C.ar    
  22 C22           -3.1694    -1.8369    -0.8494 C.ar    
  23 C23           -4.1517    -0.9716    -0.4024 C.ar    
  24 C24           -3.8008     0.2473     0.1473 C.ar    
  25 C25           -2.4685     0.5992     0.2552 C.ar    
  26 O26            0.7044    -0.4857    -1.1437 O.3     
  27 Cl27          -3.6093    -3.3675    -1.5404 Cl      
  28 H28           -0.3172     1.9873    -1.1273 H       
  29 H29           -0.4458     2.1099     0.6444 H       
  30 H30           -0.0297     0.1293     2.0719 H       
  31 H31            0.4019    -1.4352     1.3395 H       
  32 H32            2.3750    -0.2384     2.3529 H       
  33 H33            2.5638    -0.5431     0.6068 H       
  34 H34            2.1043     1.6438    -0.9695 H       
  35 H35            1.6698     3.1178    -0.0662 H       
  36 H36            1.0924     3.4475     2.5301 H       
  37 H37            2.2789     4.8287     4.1240 H       
  38 H38            4.0951     5.0392     5.5833 H       
  39 H39            5.6165     4.1596     5.3008 H       
  40 H40            6.0945     5.6131     3.3495 H       
  41 H41            4.5731     6.4927     3.6320 H       
  42 H42            5.3778     7.1627     5.8797 H       
  43 H43            6.8992     6.2831     5.5972 H       
  44 H44            5.8558     8.6162     3.9285 H       
  45 H45            7.1695     8.7026     5.1265 H       
  46 H46            7.3773     7.7366     3.6459 H       
  47 H47           -1.0686    -2.1568    -1.0951 H       
  48 H48           -5.1926    -1.2481    -0.4832 H       
  49 H49           -4.5677     0.9229     0.4963 H       
  50 H50           -2.1948     1.5514     0.6851 H       
  51 H51            0.6659    -1.4519    -1.1453 H       
@<TRIPOS>BOND
   1    1    2 1
   2    1    6 1
   3    1   28 1
   4    1   29 1
   5    2    3 1
   6    2   26 1
   7    2   20 1
   8    3    4 1
   9    3   30 1
  10    3   31 1
  11    4    5 1
  12    4   32 1
  13    4   33 1
  14    5    6 1
  15    5   10 1
  16    6   34 1
  17    6   35 1
  18    7    8 am
  19    7   16 1
  20    7   12 1
  21    8    9 1
  22    8   13 2
  23    9   10 2
  24    9   14 1
  25   10   11 1
  26   11   12 2
  27   11   36 1
  28   12   37 1
  29   14   15 3
  30   16   17 1
  31   16   38 1
  32   16   39 1
  33   17   18 1
  34   17   40 1
  35   17   41 1
  36   18   19 1
  37   18   42 1
  38   18   43 1
  39   19   44 1
  40   19   45 1
  41   19   46 1
  42   20   21 ar
  43   20   25 ar
  44   21   22 ar
  45   21   47 1
  46   22   23 ar
  47   22   27 1
  48   23   24 ar
  49   23   48 1
  50   24   25 ar
  51   24   49 1
  52   25   50 1
  53   26   51 1

#	End of record

