#	Name: ASD07110006
#	Creating user name:	WinNT
#	Creation time:	15. 06. 2019 21:08

#	Modifying user name:	WinNT
#	Modification time:	15. 06. 2019 21:08

#	Program:	/corina/corina34_cracker 3.40 0067  02.08.2006

@<TRIPOS>MOLECULE
ASD07110006
 250  252    0    0    0
SMALL
NO_CHARGES


@<TRIPOS>ATOM
   1 C1            -4.4172    12.2418    -1.0500 C.2     
   2 O2            -3.8225    11.7819    -2.0017 O.2     
   3 N3            -2.3170    13.2789    -0.4030 N.3     
   4 C4            -3.7718    13.3067    -0.2012 C.3     
   5 C5            -4.3164    14.6789    -0.6032 C.3     
   6 C6            -3.5722    15.7694     0.1701 C.3     
   7 O7            -4.1255    14.8748    -2.0057 O.3     
   8 C8            -7.7858    10.8870    -1.4739 C.2     
   9 O9            -8.2793    11.7446    -0.7725 O.2     
  10 N10           -5.6574    11.8045    -0.7549 N.am    
  11 C11           -6.2871    10.7736    -1.5837 C.3     
  12 C12           -5.8437     9.3907    -1.1020 C.3     
  13 C13           -4.3393     9.2297    -1.3293 C.3     
  14 C14           -3.9025     7.8676    -0.8549 C.2     
  15 O15           -4.7146     7.1012    -0.3815 O.2     
  16 N16           -2.6095     7.5012    -0.9566 N.am    
  17 C17          -10.6631     8.8100    -2.3515 C.2     
  18 O18           -9.9629     7.8594    -2.6292 O.2     
  19 N19           -8.5778    10.0355    -2.1553 N.am    
  20 C20          -10.0347    10.1458    -2.0486 C.3     
  21 C21          -10.5420    11.1866    -3.0488 C.3     
  22 C22          -10.0026    12.5664    -2.6666 C.3     
  23 C23          -10.5022    13.5915    -3.6518 C.2     
  24 O24          -11.2165    13.2533    -4.5657 O.2     
  25 O25          -10.1538    14.8805    -3.5139 O.3     
  26 C26          -14.0235     7.5808    -3.0998 C.2     
  27 O27          -14.4734     8.7030    -3.1947 O.2     
  28 N28          -12.0032     8.6716    -2.3139 N.am    
  29 C29          -12.6141     7.3730    -2.6083 C.3     
  30 C30          -12.6374     6.5206    -1.3380 C.3     
  31 C31          -11.2246     6.2099    -0.9156 C.ar    
  32 C32          -10.5585     7.0622    -0.0544 C.ar    
  33 C33           -9.2632     6.7799     0.3340 C.ar    
  34 C34           -8.6309     5.6399    -0.1405 C.ar    
  35 O35           -7.3568     5.3597     0.2404 O.3     
  36 C36           -9.3015     4.7861    -1.0042 C.ar    
  37 C37          -10.5985     5.0701    -1.3855 C.ar    
  38 C38          -16.9975     5.5285    -3.3465 C.2     
  39 O39          -16.4501     4.5958    -2.7977 O.2     
  40 N40          -14.7840     6.5194    -3.4338 N.am    
  41 C41          -16.1873     6.7124    -3.8078 C.3     
  42 C42          -16.2964     6.8439    -5.3282 C.3     
  43 C43          -15.6061     5.6519    -5.9941 C.3     
  44 C44          -16.4059     4.3779    -5.7144 C.3     
  45 C45          -15.6207     8.1409    -5.7778 C.3     
  46 C46          -19.8870     3.8384    -4.3716 C.2     
  47 O47          -19.8044     4.4296    -5.4273 O.2     
  48 N48          -18.3306     5.5061    -3.5438 N.am    
  49 C49          -19.1058     4.3188    -3.1758 C.3     
  50 C50          -20.0722     4.6714    -2.0433 C.3     
  51 C51          -19.2889     5.1050    -0.8312 C.2     
  52 O52          -18.0787     5.0251    -0.8307 O.2     
  53 N53          -19.9331     5.5817     0.2525 N.am    
  54 C54          -22.7828     3.1726    -5.3990 C.2     
  55 O55          -22.9603     4.0132    -4.5429 O.2     
  56 N56          -20.6775     2.7517    -4.2679 N.am    
  57 C57          -21.5208     2.3490    -5.3960 C.3     
  58 C58          -21.8790     0.8676    -5.2618 C.3     
  59 C59          -20.6278     0.0357    -5.3783 C.2     
  60 O60          -19.5461     0.5767    -5.4685 O.2     
  61 N61          -20.7109    -1.3095    -5.3822 N.am    
  62 C62          -26.0663     3.0667    -6.9433 C.2     
  63 O63          -25.9408     1.8920    -7.2177 O.2     
  64 N64          -23.7143     2.9751    -6.3528 N.am    
  65 C65          -24.8881     3.8488    -6.4225 C.3     
  66 C66          -24.5972     5.0197    -7.3635 C.3     
  67 C67          -24.1006     4.4828    -8.7073 C.3     
  68 C68          -25.2394     3.7449    -9.4141 C.3     
  69 C69          -23.5235     5.9168    -6.7445 C.3     
  70 C70          -29.3422     3.9158    -8.3254 C.2     
  71 O71          -29.1165     5.1064    -8.2762 O.2     
  72 N72          -27.2594     3.6725    -7.1040 N.am    
  73 C73          -28.3786     2.9397    -7.7012 C.3     
  74 C74          -29.0982     2.1353    -6.6168 C.3     
  75 C75          -28.1707     1.0768    -6.0778 C.2     
  76 C76          -27.8382     0.8998    -4.7849 C.2     
  77 N77          -26.9795    -0.1651    -4.7390 N.pl3   
  78 C78          -26.8171    -0.6022    -6.0064 C.2     
  79 N79          -27.5364     0.1422    -6.8011 N.2     
  80 C80          -32.7477     3.8786    -9.6181 C.2     
  81 O81          -32.9569     2.7108    -9.3663 O.2     
  82 N82          -30.4550     3.4657    -8.9383 N.am    
  83 C83          -31.3352     4.4035    -9.6396 C.3     
  84 C84          -30.8690     4.5538   -11.0891 C.3     
  85 C85          -31.6690     5.6666   -11.7694 C.3     
  86 C86          -31.3100     7.0126   -11.1368 C.3     
  87 C87          -31.3318     5.6981   -13.2614 C.3     
  88 C88          -36.0013     5.0718   -10.7814 C.2     
  89 O89          -35.5150     6.0439   -11.3193 O.2     
  90 N90          -33.7785     4.7069    -9.8787 N.am    
  91 C91          -35.1470     4.1850    -9.9126 C.3     
  92 C92          -35.7181     4.1586    -8.4934 C.3     
  93 C93          -34.7832     3.3605    -7.5823 C.3     
  94 O94          -35.8353     5.4953    -8.0022 O.3     
  95 C95          -39.5784     5.5223   -11.3854 C.2     
  96 O96          -39.8824     4.7862   -10.4707 O.2     
  97 N97          -37.3058     4.7845   -10.9607 N.am    
  98 C98          -38.1364     5.6465   -11.8053 C.3     
  99 C99          -37.9924     5.2194   -13.2674 C.3     
 100 C100         -36.5762     5.4593   -13.7237 C.2     
 101 C101         -35.7539     4.5419   -14.2673 C.2     
 102 N102         -34.5717     5.1783   -14.5340 N.pl3   
 103 C103         -34.7129     6.4633   -14.1438 C.2     
 104 N104         -35.9160     6.6253   -13.6648 N.2     
 105 C105         -42.8254     6.4564   -12.7808 C.2     
 106 O106         -42.3392     6.7738   -13.8456 O.2     
 107 N107         -40.5302     6.2293   -12.0264 N.am    
 108 C108         -41.9320     6.1085   -11.6182 C.3     
 109 C109         -42.2094     7.0659   -10.4575 C.3     
 110 O110         -42.0612     8.4144   -10.9065 O.3     
 111 C111         -46.3270     7.3823   -13.1647 C.2     
 112 O112         -46.6574     7.0893   -12.0351 O.2     
 113 N113         -44.1649     6.4146   -12.6374 N.am    
 114 C114         -45.0329     6.8577   -13.7313 C.3     
 115 C115         -45.3242     5.6780   -14.6609 C.3     
 116 C116         -46.1473     6.1620   -15.8564 C.3     
 117 C117         -45.3061     7.1225   -16.6994 C.3     
 118 C118         -46.5604     4.9617   -16.7106 C.3     
 119 C119         -49.4480     7.5304   -13.7172 C.2     
 120 O120         -49.1158     6.5267   -14.3020 O.2     
 121 N121         -47.1173     8.1771   -13.9132 N.am    
 122 C122         -48.4270     8.5943   -13.4064 C.3     
 123 C123         -48.8383     9.9071   -14.0759 C.3     
 124 C124         -47.8709    11.0169   -13.6596 C.3     
 125 C125         -48.2761    12.3100   -14.3191 C.2     
 126 O126         -49.2397    12.3407   -15.0473 O.2     
 127 O127         -47.5664    13.4276   -14.0975 O.3     
 128 O128         -50.7266     7.6979   -13.3443 O.3     
 129 H129          -1.9244    12.4057    -0.0844 H       
 130 H130          -2.0827    13.4495    -1.3695 H       
 131 H131          -3.9966    13.1200     0.8489 H       
 132 H132          -5.3800    14.7300    -0.3706 H       
 133 H133          -2.5086    15.7182    -0.0625 H       
 134 H134          -3.9602    16.7469    -0.1163 H       
 135 H135          -3.7178    15.6199     1.2399 H       
 136 H136          -3.2003    14.8420    -2.2851 H       
 137 H137          -6.1330    12.1724     0.0063 H       
 138 H138          -5.9876    10.9097    -2.6228 H       
 139 H139          -6.0636     9.2884    -0.0393 H       
 140 H140          -6.3797     8.6227    -1.6596 H       
 141 H141          -4.1194     9.3320    -2.3920 H       
 142 H142          -3.8033     9.9978    -0.7718 H       
 143 H143          -1.9601     8.1142    -1.3352 H       
 144 H144          -2.3284     6.6245    -0.6512 H       
 145 H145          -8.1831     9.3497    -2.7163 H       
 146 H146         -10.3028    10.4525    -1.0376 H       
 147 H147         -10.1980    10.9264    -4.0498 H       
 148 H148         -11.6317    11.2052    -3.0325 H       
 149 H149         -10.3466    12.8266    -1.6656 H       
 150 H150          -8.9129    12.5478    -2.6829 H       
 151 H151         -10.4988    15.5011    -4.1703 H       
 152 H152         -12.5633     9.4319    -2.0918 H       
 153 H153         -12.0327     6.8639    -3.3770 H       
 154 H154         -13.1425     7.0680    -0.5423 H       
 155 H155         -13.1708     5.5905    -1.5344 H       
 156 H156         -11.0512     7.9495     0.3147 H       
 157 H157          -8.7431     7.4463     1.0062 H       
 158 H158          -7.2951     4.8210     1.0411 H       
 159 H159          -8.8112     3.8982    -1.3752 H       
 160 H160         -11.1226     4.4035    -2.0543 H       
 161 H161         -14.4023     5.6277    -3.4266 H       
 162 H162         -16.5675     7.6188    -3.3365 H       
 163 H163         -17.3474     6.8628    -5.6168 H       
 164 H164         -15.5518     5.8179    -7.0700 H       
 165 H165         -14.5988     5.5441    -5.5917 H       
 166 H166         -16.0130     3.5618    -6.3208 H       
 167 H167         -16.3209     4.1198    -4.6588 H       
 168 H168         -17.4537     4.5445    -5.9644 H       
 169 H169         -14.5507     8.0809    -5.5790 H       
 170 H170         -15.7844     8.2846    -6.8458 H       
 171 H171         -16.0457     8.9812    -5.2288 H       
 172 H172         -18.7768     6.2763    -3.9295 H       
 173 H173         -18.4289     3.5315    -2.8438 H       
 174 H174         -20.7258     5.4831    -2.3630 H       
 175 H175         -20.6738     3.7975    -1.7937 H       
 176 H176         -20.9010     5.6456     0.2521 H       
 177 H177         -19.4289     5.8607     1.0327 H       
 178 H178         -20.6880     2.2362    -3.4462 H       
 179 H179         -20.9804     2.5090    -6.3290 H       
 180 H180         -22.3427     0.6924    -4.2910 H       
 181 H181         -22.5754     0.5890    -6.0526 H       
 182 H182         -21.5760    -1.7422    -5.3100 H       
 183 H183         -19.9055    -1.8449    -5.4572 H       
 184 H184         -23.6074     2.2544    -6.9932 H       
 185 H185         -25.1166     4.2305    -5.4274 H       
 186 H186         -25.5087     5.5972    -7.5174 H       
 187 H187         -23.7648     5.3130    -9.3286 H       
 188 H188         -23.2712     3.7956    -8.5400 H       
 189 H189         -25.4211     2.7933    -8.9145 H       
 190 H190         -26.1436     4.3526    -9.3780 H       
 191 H191         -24.9650     3.5632   -10.4532 H       
 192 H192         -22.5839     5.3679    -6.6808 H       
 193 H193         -23.3861     6.8013    -7.3665 H       
 194 H194         -23.8354     6.2202    -5.7451 H       
 195 H195         -27.3771     4.5938    -6.8242 H       
 196 H196         -28.0015     2.2615    -8.4667 H       
 197 H197         -29.3974     2.8021    -5.8081 H       
 198 H198         -29.9824     1.6610    -7.0427 H       
 199 H199         -28.1825     1.4858    -3.9456 H       
 200 H200         -26.5650    -0.5365    -3.9446 H       
 201 H201         -26.1977    -1.4327    -6.3114 H       
 202 H202         -30.6730     2.5208    -8.9150 H       
 203 H203         -31.3007     5.3739    -9.1444 H       
 204 H204         -29.8089     4.8064   -11.1054 H       
 205 H205         -31.0272     3.6155   -11.6208 H       
 206 H206         -32.7349     5.4779   -11.6417 H       
 207 H207         -31.6348     7.0233   -10.0964 H       
 208 H208         -30.2308     7.1590   -11.1820 H       
 209 H209         -31.8085     7.8145   -11.6813 H       
 210 H210         -31.5876     4.7392   -13.7121 H       
 211 H211         -31.9017     6.4908   -13.7460 H       
 212 H212         -30.2659     5.8868   -13.3891 H       
 213 H213         -33.6143     5.6485   -10.0437 H       
 214 H214         -35.1404     3.1743   -10.3205 H       
 215 H215         -36.7015     3.6886    -8.5062 H       
 216 H216         -33.7998     3.8305    -7.5696 H       
 217 H217         -35.1901     3.3417    -6.5713 H       
 218 H218         -34.6938     2.3409    -7.9571 H       
 219 H219         -34.9966     5.9751    -7.9633 H       
 220 H220         -37.6948     4.0070   -10.5305 H       
 221 H221         -37.8140     6.6820   -11.6958 H       
 222 H222         -38.2299     4.1598   -13.3615 H       
 223 H223         -38.6765     5.8014   -13.8850 H       
 224 H224         -35.9829     3.5035   -14.4562 H       
 225 H225         -33.7803     4.7805   -14.9295 H       
 226 H226         -33.9569     7.2309   -14.2194 H       
 227 H227         -40.2870     6.8180   -12.7579 H       
 228 H228         -42.1310     5.0850   -11.3005 H       
 229 H229         -43.2262     6.9132   -10.0956 H       
 230 H230         -41.5034     6.8722    -9.6500 H       
 231 H231         -42.2227     9.0772   -10.2211 H       
 232 H232         -44.5542     6.0912   -11.8099 H       
 233 H233         -44.5350     7.6483   -14.2926 H       
 234 H234         -44.3847     5.2535   -15.0147 H       
 235 H235         -45.8850     4.9173   -14.1178 H       
 236 H236         -47.0387     6.6775   -15.4990 H       
 237 H237         -45.9121     7.5155   -17.5158 H       
 238 H238         -44.9598     7.9460   -16.0750 H       
 239 H239         -44.4472     6.5903   -17.1082 H       
 240 H240         -47.1597     4.2774   -16.1101 H       
 241 H241         -47.1468     5.3065   -17.5623 H       
 242 H242         -45.6690     4.4461   -17.0680 H       
 243 H243         -46.8189     8.4728   -14.7875 H       
 244 H244         -48.3698     8.7390   -12.3275 H       
 245 H245         -48.8094     9.7873   -15.1589 H       
 246 H246         -49.8495    10.1715   -13.7665 H       
 247 H247         -47.8998    11.1368   -12.5766 H       
 248 H248         -46.8598    10.7525   -13.9691 H       
 249 H249         -47.8648    14.2326   -14.5425 H       
 250 H250         -51.3450     6.9883   -13.5657 H       
@<TRIPOS>BOND
   1    1    2 2
   2    1    4 1
   3    1   10 am
   4    3    4 1
   5    3  129 1
   6    3  130 1
   7    4    5 1
   8    4  131 1
   9    5    6 1
  10    5    7 1
  11    5  132 1
  12    6  133 1
  13    6  134 1
  14    6  135 1
  15    7  136 1
  16    8    9 2
  17    8   11 1
  18    8   19 am
  19   10   11 1
  20   10  137 1
  21   11   12 1
  22   11  138 1
  23   12   13 1
  24   12  139 1
  25   12  140 1
  26   13   14 1
  27   13  141 1
  28   13  142 1
  29   14   15 2
  30   14   16 am
  31   16  143 1
  32   16  144 1
  33   17   18 2
  34   17   20 1
  35   17   28 am
  36   19   20 1
  37   19  145 1
  38   20   21 1
  39   20  146 1
  40   21   22 1
  41   21  147 1
  42   21  148 1
  43   22   23 1
  44   22  149 1
  45   22  150 1
  46   23   24 2
  47   23   25 1
  48   25  151 1
  49   26   27 2
  50   26   29 1
  51   26   40 am
  52   28   29 1
  53   28  152 1
  54   29   30 1
  55   29  153 1
  56   30   31 1
  57   30  154 1
  58   30  155 1
  59   31   32 ar
  60   31   37 ar
  61   32   33 ar
  62   32  156 1
  63   33   34 ar
  64   33  157 1
  65   34   35 1
  66   34   36 ar
  67   35  158 1
  68   36   37 ar
  69   36  159 1
  70   37  160 1
  71   38   39 2
  72   38   41 1
  73   38   48 am
  74   40   41 1
  75   40  161 1
  76   41   42 1
  77   41  162 1
  78   42   43 1
  79   42   45 1
  80   42  163 1
  81   43   44 1
  82   43  164 1
  83   43  165 1
  84   44  166 1
  85   44  167 1
  86   44  168 1
  87   45  169 1
  88   45  170 1
  89   45  171 1
  90   46   47 2
  91   46   49 1
  92   46   56 am
  93   48   49 1
  94   48  172 1
  95   49   50 1
  96   49  173 1
  97   50   51 1
  98   50  174 1
  99   50  175 1
 100   51   52 2
 101   51   53 am
 102   53  176 1
 103   53  177 1
 104   54   55 2
 105   54   57 1
 106   54   64 am
 107   56   57 1
 108   56  178 1
 109   57   58 1
 110   57  179 1
 111   58   59 1
 112   58  180 1
 113   58  181 1
 114   59   60 2
 115   59   61 am
 116   61  182 1
 117   61  183 1
 118   62   63 2
 119   62   65 1
 120   62   72 am
 121   64   65 1
 122   64  184 1
 123   65   66 1
 124   65  185 1
 125   66   67 1
 126   66   69 1
 127   66  186 1
 128   67   68 1
 129   67  187 1
 130   67  188 1
 131   68  189 1
 132   68  190 1
 133   68  191 1
 134   69  192 1
 135   69  193 1
 136   69  194 1
 137   70   71 2
 138   70   73 1
 139   70   82 am
 140   72   73 1
 141   72  195 1
 142   73   74 1
 143   73  196 1
 144   74   75 1
 145   74  197 1
 146   74  198 1
 147   75   76 2
 148   75   79 1
 149   76   77 1
 150   76  199 1
 151   77   78 1
 152   77  200 1
 153   78   79 2
 154   78  201 1
 155   80   81 2
 156   80   83 1
 157   80   90 am
 158   82   83 1
 159   82  202 1
 160   83   84 1
 161   83  203 1
 162   84   85 1
 163   84  204 1
 164   84  205 1
 165   85   86 1
 166   85   87 1
 167   85  206 1
 168   86  207 1
 169   86  208 1
 170   86  209 1
 171   87  210 1
 172   87  211 1
 173   87  212 1
 174   88   89 2
 175   88   91 1
 176   88   97 am
 177   90   91 1
 178   90  213 1
 179   91   92 1
 180   91  214 1
 181   92   93 1
 182   92   94 1
 183   92  215 1
 184   93  216 1
 185   93  217 1
 186   93  218 1
 187   94  219 1
 188   95   96 2
 189   95   98 1
 190   95  107 am
 191   97   98 1
 192   97  220 1
 193   98   99 1
 194   98  221 1
 195   99  100 1
 196   99  222 1
 197   99  223 1
 198  100  101 2
 199  100  104 1
 200  101  102 1
 201  101  224 1
 202  102  103 1
 203  102  225 1
 204  103  104 2
 205  103  226 1
 206  105  106 2
 207  105  108 1
 208  105  113 am
 209  107  108 1
 210  107  227 1
 211  108  109 1
 212  108  228 1
 213  109  110 1
 214  109  229 1
 215  109  230 1
 216  110  231 1
 217  111  112 2
 218  111  114 1
 219  111  121 am
 220  113  114 1
 221  113  232 1
 222  114  115 1
 223  114  233 1
 224  115  116 1
 225  115  234 1
 226  115  235 1
 227  116  117 1
 228  116  118 1
 229  116  236 1
 230  117  237 1
 231  117  238 1
 232  117  239 1
 233  118  240 1
 234  118  241 1
 235  118  242 1
 236  119  120 2
 237  119  122 1
 238  119  128 1
 239  121  122 1
 240  121  243 1
 241  122  123 1
 242  122  244 1
 243  123  124 1
 244  123  245 1
 245  123  246 1
 246  124  125 1
 247  124  247 1
 248  124  248 1
 249  125  126 2
 250  125  127 1
 251  127  249 1
 252  128  250 1

#	End of record

