#	Name: ASD01917928
#	Creating user name:	WinNT
#	Creation time:	15. 06. 2019 20:10

#	Modifying user name:	WinNT
#	Modification time:	15. 06. 2019 20:10

#	Program:	/corina/corina34_cracker 3.40 0067  02.08.2006

@<TRIPOS>MOLECULE
ASD01917928
  40   42    0    0    0
SMALL
NO_CHARGES


@<TRIPOS>ATOM
   1 C1            -0.0196     1.3604    -0.0363 C.ar    
   2 C2            -0.0932     0.0112    -0.3572 C.ar    
   3 C3             1.0546    -0.7582    -0.3980 C.ar    
   4 C4             2.2814    -0.1906    -0.1200 C.ar    
   5 C5             2.3654     1.1646     0.2036 C.ar    
   6 C6             1.2062     1.9402     0.2443 C.ar    
   7 O7            -1.1505     2.1133    -0.0033 O.3     
   8 C8            -1.9848     1.9650     1.0591 C.ar    
   9 C9            -2.5594     0.9521     3.1404 C.ar    
  10 C10           -1.6780     1.0681     2.0774 C.ar    
  11 C11           -3.1523     2.7101     1.1466 C.ar    
  12 N12           -3.9641     2.5698     2.1754 N.ar    
  13 C13           -3.7051     1.7251     3.1545 C.ar    
  14 C14            3.6778     1.7759     0.5024 C.2     
  15 N15            4.7959     1.0245     0.4627 N.am    
  16 O16            3.7484     2.9564     0.7839 O.2     
  17 C17            6.0474     1.6234     0.6376 C.ar    
  18 C18            6.1895     2.6949     1.5086 C.ar    
  19 C19            7.1511     1.1433    -0.0559 C.ar    
  20 C20            8.3876     1.7349     0.1173 C.ar    
  21 C21            8.5300     2.8045     0.9803 C.ar    
  22 C22            7.4315     3.2855     1.6795 C.ar    
  23 O23            7.5739     4.3349     2.5312 O.3     
  24 C24            8.8827     4.8944     2.6581 C.3     
  25 H25           -1.0505    -0.4386    -0.5754 H       
  26 H26            0.9909    -1.8070    -0.6478 H       
  27 H27            3.1760    -0.7948    -0.1524 H       
  28 H28            1.2649     2.9894     0.4936 H       
  29 H29           -2.3533     0.2660     3.9486 H       
  30 H30           -0.7752     0.4765     2.0402 H       
  31 H31           -3.3979     3.4125     0.3639 H       
  32 H32           -4.3957     1.6390     3.9804 H       
  33 H33            4.7325     0.0682     0.3130 H       
  34 H34            5.3338     3.0678     2.0518 H       
  35 H35            7.0427     0.3069    -0.7305 H       
  36 H36            9.2447     1.3603    -0.4226 H       
  37 H37            9.4980     3.2644     1.1141 H       
  38 H38            9.5714     4.1299     3.0176 H       
  39 H39            9.2182     5.2579     1.6867 H       
  40 H40            8.8567     5.7223     3.3666 H       
@<TRIPOS>BOND
   1    1    2 ar
   2    1    6 ar
   3    1    7 1
   4    2    3 ar
   5    2   25 1
   6    3    4 ar
   7    3   26 1
   8    4    5 ar
   9    4   27 1
  10    5    6 ar
  11    5   14 1
  12    6   28 1
  13    7    8 1
  14    8   11 ar
  15    8   10 ar
  16    9   10 ar
  17    9   13 ar
  18    9   29 1
  19   10   30 1
  20   11   12 ar
  21   11   31 1
  22   12   13 ar
  23   13   32 1
  24   14   15 am
  25   14   16 2
  26   15   17 1
  27   15   33 1
  28   17   19 ar
  29   17   18 ar
  30   18   22 ar
  31   18   34 1
  32   19   20 ar
  33   19   35 1
  34   20   21 ar
  35   20   36 1
  36   21   22 ar
  37   21   37 1
  38   22   23 1
  39   23   24 1
  40   24   38 1
  41   24   39 1
  42   24   40 1

#	End of record

