#	Name: ASD03200034
#	Creating user name:	WinNT
#	Creation time:	15. 06. 2019 20:34

#	Modifying user name:	WinNT
#	Modification time:	15. 06. 2019 20:34

#	Program:	/corina/corina34_cracker 3.40 0067  02.08.2006

@<TRIPOS>MOLECULE
ASD03200034
  49   52    0    0    0
SMALL
NO_CHARGES


@<TRIPOS>ATOM
   1 C1             0.9673    -1.0239    -0.1639 C.3     
   2 N2            -0.0325     0.0398    -0.0056 N.3     
   3 C3             0.2982     0.9153     1.1260 C.3     
   4 C4             1.6449     1.5956     0.8698 C.3     
   5 C5             2.7264     0.5260     0.6948 C.3     
   6 C6             2.3340    -0.4016    -0.4586 C.3     
   7 C7            -1.3126    -0.4944     0.1335 C.ar    
   8 C8            -2.0171    -0.3609     1.3275 C.ar    
   9 C9            -3.2824    -0.9035     1.4256 C.ar    
  10 N10           -3.8279    -1.5430     0.4084 N.ar    
  11 C11           -3.1973    -1.6935    -0.7413 C.ar    
  12 C12           -1.9265    -1.1743    -0.9251 C.ar    
  13 N13           -1.2614    -1.3365    -2.1480 N.am    
  14 C14           -1.4458    -2.4583    -2.8718 C.2     
  15 C15           -0.8513    -2.5753    -4.2065 C.2     
  16 O16           -2.1061    -3.3744    -2.4171 O.2     
  17 C17           -1.0875    -3.6488    -5.0354 C.2     
  18 S18           -0.2235    -3.4221    -6.4937 S.3     
  19 C19            0.4105    -1.8899    -5.9061 C.2     
  20 N20           -0.0458    -1.6524    -4.7169 N.2     
  21 C21            1.3227    -1.0031    -6.6589 C.ar    
  22 N22            1.9853     2.4551     2.0115 N.3     
  23 N23           -1.8899    -4.7310    -4.7380 N.pl3   
  24 C24            1.6767    -1.2914    -7.9824 C.ar    
  25 C25            2.5309    -0.4366    -8.6472 C.ar    
  26 N26            3.0122     0.6385    -8.0526 N.ar    
  27 C27            2.7044     0.9470    -6.8071 C.ar    
  28 C28            1.8522     0.1514    -6.0701 C.ar    
  29 H29            1.0247    -1.6080     0.7547 H       
  30 H30            0.6785    -1.6739    -0.9898 H       
  31 H31           -0.4766     1.6739     1.2369 H       
  32 H32            0.3587     0.3222     2.0385 H       
  33 H33            1.5810     2.2000    -0.0351 H       
  34 H34            3.6792     1.0048     0.4691 H       
  35 H35            2.8176    -0.0536     1.6134 H       
  36 H36            3.0789    -1.1907    -0.5605 H       
  37 H37            2.2809     0.1714    -1.3844 H       
  38 H38           -1.5788     0.1602     2.1658 H       
  39 H39           -3.8340    -0.8034     2.3487 H       
  40 H40           -3.6794    -2.2238    -1.5492 H       
  41 H41           -0.6683    -0.6413    -2.4734 H       
  42 H42            2.8712     2.9157     1.8659 H       
  43 H43            1.2535     3.1266     2.1894 H       
  44 H44           -2.3441    -4.7773    -3.8822 H       
  45 H45           -1.9998    -5.4455    -5.3848 H       
  46 H46            1.2871    -2.1699    -8.4751 H       
  47 H47            2.8098    -0.6503    -9.6684 H       
  48 H48            3.1218     1.8372    -6.3602 H       
  49 H49            1.6044     0.4103    -5.0513 H       
@<TRIPOS>BOND
   1    1    2 1
   2    1    6 1
   3    1   29 1
   4    1   30 1
   5    2    3 1
   6    2    7 1
   7    3    4 1
   8    3   31 1
   9    3   32 1
  10    4    5 1
  11    4   22 1
  12    4   33 1
  13    5    6 1
  14    5   34 1
  15    5   35 1
  16    6   36 1
  17    6   37 1
  18    7    8 ar
  19    7   12 ar
  20    8    9 ar
  21    8   38 1
  22    9   10 ar
  23    9   39 1
  24   10   11 ar
  25   11   12 ar
  26   11   40 1
  27   12   13 1
  28   13   14 am
  29   13   41 1
  30   14   15 1
  31   14   16 2
  32   15   17 2
  33   15   20 1
  34   17   18 1
  35   17   23 1
  36   18   19 1
  37   19   20 2
  38   19   21 1
  39   21   24 ar
  40   21   28 ar
  41   22   42 1
  42   22   43 1
  43   23   44 1
  44   23   45 1
  45   24   25 ar
  46   24   46 1
  47   25   26 ar
  48   25   47 1
  49   26   27 ar
  50   27   28 ar
  51   27   48 1
  52   28   49 1

#	End of record

