#	Name: ASD02270001
#	Creating user name:	WinNT
#	Creation time:	15. 06. 2019 20:20

#	Modifying user name:	WinNT
#	Modification time:	15. 06. 2019 20:20

#	Program:	/corina/corina34_cracker 3.40 0067  02.08.2006

@<TRIPOS>MOLECULE
ASD02270001
  51   54    0    0    0
SMALL
NO_CHARGES


@<TRIPOS>ATOM
   1 C1            -0.0167     1.3820     0.0096 C.ar    
   2 C2             0.0021    -0.0041     0.0020 C.ar    
   3 C3             1.2104    -0.6756    -0.0131 C.ar    
   4 C4             2.4015     0.0312    -0.0207 C.ar    
   5 C5             2.3916     1.4126    -0.0127 C.ar    
   6 C6             1.1847     2.0941     0.0020 C.ar    
   7 N7             0.8506     3.4469     0.0127 N.am    
   8 C8            -0.4915     3.5521     0.0254 C.2     
   9 N9            -1.0428     2.3238     0.0189 N.am    
  10 O10           -1.1123     4.5987     0.0373 O.2     
  11 C11            1.7983     4.5641     0.0110 C.3     
  12 C12            1.5683     5.4283    -1.2319 C.3     
  13 C13            1.5845     5.4183     1.2637 C.3     
  14 C14            2.5352     6.6170     1.2261 C.3     
  15 N15            2.2749     7.4121     0.0193 N.3     
  16 C16            2.5194     6.6267    -1.1971 C.3     
  17 C17            3.0732     8.6453     0.0190 C.3     
  18 C18            2.9694     9.3198    -1.3503 C.3     
  19 N19            3.7656    10.5495    -1.3506 N.am    
  20 C20            3.8235    11.3146    -2.4587 C.2     
  21 C21            4.6263    12.5546    -2.4589 C.ar    
  22 O22            3.2151    10.9841    -3.4579 O.2     
  23 C23            4.6880    13.3492    -3.6057 C.ar    
  24 C24            5.4383    14.5055    -3.6004 C.ar    
  25 C25            6.1308    14.8803    -2.4591 C.ar    
  26 C26            6.0733    14.0948    -1.3179 C.ar    
  27 C27            5.3215    12.9396    -1.3106 C.ar    
  28 F28            6.8646    16.0146    -2.4592 F       
  29 Cl29           1.2349    -2.4114    -0.0221 Cl      
  30 H30           -0.9250    -0.5580     0.0083 H       
  31 H31            3.3419    -0.4998    -0.0325 H       
  32 H32            3.3223     1.9604    -0.0183 H       
  33 H33           -1.9929     2.1280     0.0254 H       
  34 H34            2.8173     4.1773     0.0023 H       
  35 H35            1.7607     4.8369    -2.1270 H       
  36 H36            0.5374     5.7821    -1.2434 H       
  37 H37            0.5539     5.7720     1.2914 H       
  38 H38            1.7885     4.8197     2.1515 H       
  39 H39            2.3755     7.2350     2.1097 H       
  40 H40            3.5660     6.2627     1.2123 H       
  41 H41            3.5502     6.2724    -1.1996 H       
  42 H42            2.3483     7.2517    -2.0735 H       
  43 H43            2.6973     9.3217     0.7867 H       
  44 H44            4.1156     8.4034     0.2268 H       
  45 H45            3.3454     8.6434    -2.1179 H       
  46 H46            1.9271     9.5617    -1.5581 H       
  47 H47            4.2510    10.8132    -0.5533 H       
  48 H48            4.1493    13.0580    -4.4953 H       
  49 H49            5.4870    15.1205    -4.4868 H       
  50 H50            6.6149    14.3912    -0.4318 H       
  51 H51            5.2771    12.3287    -0.4211 H       
@<TRIPOS>BOND
   1    1    2 ar
   2    1    6 ar
   3    1    9 1
   4    2    3 ar
   5    2   30 1
   6    3    4 ar
   7    3   29 1
   8    4    5 ar
   9    4   31 1
  10    5    6 ar
  11    5   32 1
  12    6    7 1
  13    7    8 am
  14    7   11 1
  15    8    9 am
  16    8   10 2
  17    9   33 1
  18   11   12 1
  19   11   13 1
  20   11   34 1
  21   12   16 1
  22   12   35 1
  23   12   36 1
  24   13   14 1
  25   13   37 1
  26   13   38 1
  27   14   15 1
  28   14   39 1
  29   14   40 1
  30   15   16 1
  31   15   17 1
  32   16   41 1
  33   16   42 1
  34   17   18 1
  35   17   43 1
  36   17   44 1
  37   18   19 1
  38   18   45 1
  39   18   46 1
  40   19   20 am
  41   19   47 1
  42   20   21 1
  43   20   22 2
  44   21   23 ar
  45   21   27 ar
  46   23   24 ar
  47   23   48 1
  48   24   25 ar
  49   24   49 1
  50   25   26 ar
  51   25   28 1
  52   26   27 ar
  53   26   50 1
  54   27   51 1

#	End of record

