#	Name: ASD03330837
#	Creating user name:	WinNT
#	Creation time:	15. 06. 2019 20:38

#	Modifying user name:	WinNT
#	Modification time:	15. 06. 2019 20:38

#	Program:	/corina/corina34_cracker 3.40 0067  02.08.2006

@<TRIPOS>MOLECULE
ASD03330837
  56   59    0    0    0
SMALL
NO_CHARGES


@<TRIPOS>ATOM
   1 C1            -0.0180     1.4750     0.0102 C.ar    
   2 C2             0.0021    -0.0041     0.0020 C.2     
   3 N3            -1.0222    -0.8148     0.3856 N.pl3   
   4 C4            -0.6038    -2.1019     0.2291 C.2     
   5 C5             0.6667    -2.0565    -0.2481 C.2     
   6 N6             1.0091    -0.7551    -0.3818 N.2     
   7 C7             1.5172    -3.2165    -0.5681 C.2     
   8 N8             2.7664    -3.0272    -1.0373 N.am    
   9 C9            -0.9758     2.1577     0.7604 C.ar    
  10 O10            1.0919    -4.3447    -0.4088 O.2     
  11 C11            3.6120    -4.1805    -1.3554 C.3     
  12 C12            3.3083    -4.6589    -2.7766 C.3     
  13 C13            5.0621    -3.7821    -1.2585 C.2     
  14 C14            3.5939    -3.5284    -3.7672 C.3     
  15 C15            4.1914    -5.8634    -3.1088 C.3     
  16 C16           -2.3463    -0.4289     0.8795 C.3     
  17 C17           -3.2839    -1.6364     0.7695 C.3     
  18 C18           -2.6257    -2.8601     1.4130 C.3     
  19 C19           -1.4428    -3.3132     0.5462 C.3     
  20 C20            1.8361    -5.0634    -2.8749 C.3     
  21 N21            6.0216    -4.4616    -0.6778 N.2     
  22 C22           -0.9899     3.5390     0.7643 C.ar    
  23 C23           -0.0536     4.2460     0.0232 C.ar    
  24 C24            0.8984     3.5709    -0.7232 C.ar    
  25 C25            0.9246     2.1918    -0.7280 C.ar    
  26 F26           -0.0709     5.5968     0.0292 F       
  27 F27           -1.9165     4.2023     1.4901 F       
  28 O28            5.6171    -2.6715    -1.7532 O.3     
  29 N29            6.8036    -2.6576    -1.5013 N.2     
  30 C30            7.1356    -3.7255    -0.8396 C.2     
  31 C31            8.5154    -4.0753    -0.3447 C.3     
  32 H32            3.1056    -2.1274    -1.1643 H       
  33 H33           -1.7048     1.6074     1.3367 H       
  34 H34            3.4085    -4.9859    -0.6496 H       
  35 H35            4.6428    -3.2403    -3.6972 H       
  36 H36            3.3776    -3.8693    -4.7797 H       
  37 H37            2.9648    -2.6704    -3.5305 H       
  38 H38            3.9880    -6.6687    -2.4031 H       
  39 H39            3.9751    -6.2042    -4.1213 H       
  40 H40            5.2403    -5.5752    -3.0388 H       
  41 H41           -2.2714    -0.1181     1.9216 H       
  42 H42           -2.7358     0.3924     0.2779 H       
  43 H43           -4.2203    -1.4165     1.2822 H       
  44 H44           -3.4864    -1.8439    -0.2812 H       
  45 H45           -2.2681    -2.5994     2.4091 H       
  46 H46           -3.3534    -3.6682     1.4868 H       
  47 H47           -1.8126    -3.7570    -0.3781 H       
  48 H48           -0.8446    -4.0428     1.0920 H       
  49 H49            1.2069    -4.2053    -2.6382 H       
  50 H50            1.6197    -5.4043    -3.8874 H       
  51 H51            1.6326    -5.8688    -2.1692 H       
  52 H52            1.6245     4.1256    -1.2990 H       
  53 H53            1.6676     1.6673    -1.3105 H       
  54 H54            8.6548    -3.6718     0.6582 H       
  55 H55            8.6283    -5.1591    -0.3192 H       
  56 H56            9.2610    -3.6480    -1.0152 H       
@<TRIPOS>BOND
   1    1    2 1
   2    1    9 ar
   3    1   25 ar
   4    2    3 1
   5    2    6 2
   6    3    4 1
   7    3   16 1
   8    4    5 2
   9    4   19 1
  10    5    6 1
  11    5    7 1
  12    7    8 am
  13    7   10 2
  14    8   11 1
  15    8   32 1
  16    9   22 ar
  17    9   33 1
  18   11   12 1
  19   11   13 1
  20   11   34 1
  21   12   14 1
  22   12   15 1
  23   12   20 1
  24   13   21 2
  25   13   28 1
  26   14   35 1
  27   14   36 1
  28   14   37 1
  29   15   38 1
  30   15   39 1
  31   15   40 1
  32   16   17 1
  33   16   41 1
  34   16   42 1
  35   17   18 1
  36   17   43 1
  37   17   44 1
  38   18   19 1
  39   18   45 1
  40   18   46 1
  41   19   47 1
  42   19   48 1
  43   20   49 1
  44   20   50 1
  45   20   51 1
  46   21   30 1
  47   22   23 ar
  48   22   27 1
  49   23   24 ar
  50   23   26 1
  51   24   25 ar
  52   24   52 1
  53   25   53 1
  54   28   29 1
  55   29   30 2
  56   30   31 1
  57   31   54 1
  58   31   55 1
  59   31   56 1

#	End of record

