#	Name: ASD07030039
#	Creating user name:	WinNT
#	Creation time:	15. 06. 2019 21:08

#	Modifying user name:	WinNT
#	Modification time:	15. 06. 2019 21:08

#	Program:	/corina/corina34_cracker 3.40 0067  02.08.2006

@<TRIPOS>MOLECULE
ASD07030039
  21   22    0    0    0
SMALL
NO_CHARGES


@<TRIPOS>ATOM
   1 C1            -0.0187     1.5258     0.0104 C.3     
   2 C2             0.0021    -0.0041     0.0020 C.3     
   3 C3             1.3165     0.7789    -0.0063 C.3     
   4 N4            -0.4313     2.2053    -1.2248 N.3     
   5 C5            -0.3780    -0.7121     1.2769 C.ar    
   6 C6            -1.4563    -1.5770     1.2918 C.ar    
   7 C7            -1.8050    -2.2270     2.4607 C.ar    
   8 C8            -1.0748    -2.0120     3.6157 C.ar    
   9 C9             0.0041    -1.1465     3.6002 C.ar    
  10 C10            0.3553    -0.5010     2.4296 C.ar    
  11 Br11          -1.5517    -2.9005     5.2154 Br      
  12 H12           -0.3072     2.0201     0.9381 H       
  13 H13           -0.2904    -0.5063    -0.9201 H       
  14 H14            1.8888     0.7918    -0.9339 H       
  15 H15            1.9064     0.7818     0.9103 H       
  16 H16           -0.4095     3.2076    -1.1107 H       
  17 H17            0.1412     1.9176    -2.0043 H       
  18 H18           -2.0266    -1.7446     0.3901 H       
  19 H19           -2.6477    -2.9024     2.4724 H       
  20 H20            0.5743    -0.9780     4.5019 H       
  21 H21            1.2002     0.1716     2.4164 H       
@<TRIPOS>BOND
   1    1    2 1
   2    1    3 1
   3    1    4 1
   4    1   12 1
   5    2    3 1
   6    2    5 1
   7    2   13 1
   8    3   14 1
   9    3   15 1
  10    4   16 1
  11    4   17 1
  12    5    6 ar
  13    5   10 ar
  14    6    7 ar
  15    6   18 1
  16    7    8 ar
  17    7   19 1
  18    8    9 ar
  19    8   11 1
  20    9   10 ar
  21    9   20 1
  22   10   21 1

#	End of record

