#	Name: ASD01810024
#	Creating user name:	WinNT
#	Creation time:	15. 06. 2019 19:23

#	Modifying user name:	WinNT
#	Modification time:	15. 06. 2019 19:23

#	Program:	/corina/corina34_cracker 3.40 0067  02.08.2006

@<TRIPOS>MOLECULE
ASD01810024
  51   55    0    0    0
SMALL
NO_CHARGES


@<TRIPOS>ATOM
   1 N1            -0.0163     1.3478     0.0095 N.am    
   2 C2             0.0021    -0.0041     0.0020 C.2     
   3 C3            -1.2682    -0.7367    -0.3562 C.3     
   4 C4            -2.5159    -0.1205     0.2725 C.3     
   5 C5            -2.5089     1.3757     0.1210 C.ar    
   6 C6            -1.2665     1.9817     0.0316 C.ar    
   7 C7            -3.6360     2.1772     0.0673 C.ar    
   8 C8            -3.4945     3.5776    -0.0509 C.ar    
   9 C9            -2.2622     4.1594    -0.0997 C.ar    
  10 C10           -1.1110     3.3614    -0.0518 C.ar    
  11 C11            0.9562     2.3080     0.0053 C.ar    
  12 C12            0.3351     3.5850    -0.0420 C.ar    
  13 C13            1.0864     4.7605    -0.0676 C.ar    
  14 C14            2.4673     4.6298    -0.0389 C.ar    
  15 C15            3.0789     3.3805     0.0136 C.ar    
  16 C16            2.3449     2.2022     0.0385 C.ar    
  17 C17           -4.7593     4.3947    -0.1270 C.3     
  18 N18           -4.4885     5.8006     0.1849 N.3     
  19 C19           -3.3933     6.3049    -0.6593 C.3     
  20 C20           -2.0904     5.6533    -0.1967 C.3     
  21 O21            1.0142    -0.6131     0.2760 O.2     
  22 O22            3.2414     5.7483    -0.0629 O.3     
  23 O23            4.4363     3.3121     0.0425 O.3     
  24 C24            2.5638     7.0052    -0.1172 C.3     
  25 C25            5.0192     2.0085     0.0961 C.3     
  26 C26           -4.9797     1.5713     0.1327 C.2     
  27 O27           -5.6064     1.1981    -1.0002 O.3     
  28 C28           -6.9260     0.6089    -0.8602 C.3     
  29 O29           -5.5210     1.4087     1.2082 O.2     
  30 H30           -1.3826    -0.7298    -1.4401 H       
  31 H31           -1.1822    -1.7707    -0.0222 H       
  32 H32           -3.4014    -0.5261    -0.2167 H       
  33 H33           -2.5453    -0.3733     1.3324 H       
  34 H34            0.6133     5.7305    -0.1084 H       
  35 H35            2.8324     1.2394     0.0798 H       
  36 H36           -5.1727     4.3234    -1.1330 H       
  37 H37           -5.4837     4.0019     0.5866 H       
  38 H38           -5.3193     6.3623     0.0731 H       
  39 H39           -3.5835     6.0464    -1.7009 H       
  40 H40           -3.3191     7.3875    -0.5567 H       
  41 H41           -1.8157     6.0495     0.7809 H       
  42 H42           -1.2994     5.8803    -0.9114 H       
  43 H43            1.9548     7.0510    -1.0201 H       
  44 H44            1.9235     7.1110     0.7585 H       
  45 H45            3.2961     7.8125    -0.1316 H       
  46 H46            4.6809     1.4960     0.9966 H       
  47 H47            4.7159     1.4385    -0.7821 H       
  48 H48            6.1055     2.0968     0.1146 H       
  49 H49           -6.8585    -0.2932    -0.2521 H       
  50 H50           -7.5935     1.3230    -0.3779 H       
  51 H51           -7.3168     0.3545    -1.8455 H       
@<TRIPOS>BOND
   1    1    2 am
   2    1   11 1
   3    1    6 1
   4    2    3 1
   5    2   21 2
   6    3    4 1
   7    3   30 1
   8    3   31 1
   9    4    5 1
  10    4   32 1
  11    4   33 1
  12    5    6 ar
  13    5    7 ar
  14    6   10 ar
  15    7    8 ar
  16    7   26 1
  17    8    9 ar
  18    8   17 1
  19    9   10 ar
  20    9   20 1
  21   10   12 1
  22   11   12 ar
  23   11   16 ar
  24   12   13 ar
  25   13   14 ar
  26   13   34 1
  27   14   15 ar
  28   14   22 1
  29   15   16 ar
  30   15   23 1
  31   16   35 1
  32   17   18 1
  33   17   36 1
  34   17   37 1
  35   18   19 1
  36   18   38 1
  37   19   20 1
  38   19   39 1
  39   19   40 1
  40   20   41 1
  41   20   42 1
  42   22   24 1
  43   23   25 1
  44   24   43 1
  45   24   44 1
  46   24   45 1
  47   25   46 1
  48   25   47 1
  49   25   48 1
  50   26   27 1
  51   26   29 2
  52   27   28 1
  53   28   49 1
  54   28   50 1
  55   28   51 1

#	End of record

