#	Name: ASD00100110
#	Creating user name:	WinNT
#	Creation time:	15. 06. 2019 18:30

#	Modifying user name:	WinNT
#	Modification time:	15. 06. 2019 18:30

#	Program:	/corina/corina34_cracker 3.40 0067  02.08.2006

@<TRIPOS>MOLECULE
ASD00100110
  38   40    0    0    0
SMALL
NO_CHARGES


@<TRIPOS>ATOM
   1 N1            -0.1246     1.5352     0.3559 N.pl3   
   2 C2            -0.0180     0.1666     0.1770 C.2     
   3 N3             1.1016    -0.4995     0.0326 N.2     
   4 C4             0.8182    -1.8176    -0.1190 C.2     
   5 C5            -0.5288    -1.9633    -0.0651 C.2     
   6 N6            -1.0579    -0.7098     0.1279 N.pl3   
   7 C7            -2.4792    -0.3778     0.2538 C.3     
   8 C8            -3.0242     0.0169    -1.0947 C.ar    
   9 C9            -3.4570    -0.9587    -1.9813 C.ar    
  10 C10           -3.9580    -0.5922    -3.2218 C.ar    
  11 C11           -4.0251     0.7428    -3.5714 C.ar    
  12 C12           -3.5928     1.7129    -2.6864 C.ar    
  13 C13           -3.0986     1.3504    -1.4468 C.ar    
  14 O14           -3.3896    -2.2712    -1.6352 O.3     
  15 C15           -3.8528    -3.2205    -2.5976 C.3     
  16 C16            1.8071    -2.9067    -0.3107 C.ar    
  17 C17            3.1695    -2.6153    -0.3472 C.ar    
  18 C18            4.0857    -3.6315    -0.5257 C.ar    
  19 C19            3.6531    -4.9398    -0.6690 C.ar    
  20 C20            2.2998    -5.2341    -0.6333 C.ar    
  21 C21            1.3768    -4.2251    -0.4490 C.ar    
  22 F22            4.5536    -5.9315    -0.8445 F       
  23 H23            0.6755     2.0779     0.4342 H       
  24 H24           -0.9995     1.9520     0.3989 H       
  25 H25           -1.0800    -2.8878    -0.1530 H       
  26 H26           -3.0236    -1.2458     0.6258 H       
  27 H27           -2.5982     0.4518     0.9507 H       
  28 H28           -4.2952    -1.3498    -3.9138 H       
  29 H29           -4.4151     1.0287    -4.5371 H       
  30 H30           -3.6454     2.7558    -2.9619 H       
  31 H31           -2.7660     2.1104    -0.7553 H       
  32 H32           -4.9027    -3.0298    -2.8200 H       
  33 H33           -3.2653    -3.1280    -3.5111 H       
  34 H34           -3.7437    -4.2279    -2.1959 H       
  35 H35            3.5076    -1.5956    -0.2363 H       
  36 H36            5.1417    -3.4066    -0.5542 H       
  37 H37            1.9670    -6.2554    -0.7454 H       
  38 H38            0.3223    -4.4561    -0.4165 H       
@<TRIPOS>BOND
   1    1    2 1
   2    1   23 1
   3    1   24 1
   4    2    3 2
   5    2    6 1
   6    3    4 1
   7    4    5 2
   8    4   16 1
   9    5    6 1
  10    5   25 1
  11    6    7 1
  12    7    8 1
  13    7   26 1
  14    7   27 1
  15    8    9 ar
  16    8   13 ar
  17    9   10 ar
  18    9   14 1
  19   10   11 ar
  20   10   28 1
  21   11   12 ar
  22   11   29 1
  23   12   13 ar
  24   12   30 1
  25   13   31 1
  26   14   15 1
  27   15   32 1
  28   15   33 1
  29   15   34 1
  30   16   17 ar
  31   16   21 ar
  32   17   18 ar
  33   17   35 1
  34   18   19 ar
  35   18   36 1
  36   19   20 ar
  37   19   22 1
  38   20   21 ar
  39   20   37 1
  40   21   38 1

#	End of record

