#	Name: ASD03950023
#	Creating user name:	WinNT
#	Creation time:	15. 06. 2019 20:48

#	Modifying user name:	WinNT
#	Modification time:	15. 06. 2019 20:48

#	Program:	/corina/corina34_cracker 3.40 0067  02.08.2006

@<TRIPOS>MOLECULE
ASD03950023
  57   61    0    0    0
SMALL
NO_CHARGES


@<TRIPOS>ATOM
   1 N1            -0.0169     1.3942     0.0097 N.pl3   
   2 N2             0.0021    -0.0041     0.0020 N.2     
   3 C3             1.2312    -0.4340    -0.0120 C.2     
   4 C4             2.1095     0.7332    -0.0141 C.ar    
   5 C5             3.4974     0.8987    -0.0264 C.ar    
   6 C6             4.0419     2.1744    -0.0248 C.ar    
   7 C7             3.2128     3.2966    -0.0104 C.ar    
   8 C8             1.8310     3.1495     0.0020 C.ar    
   9 C9             1.2670     1.8605    -0.0000 C.ar    
  10 C10            0.9593     4.3395     0.0166 C.2     
  11 O11           -0.2495     4.2077     0.0275 O.2     
  12 N12            1.5026     5.5729     0.0181 N.am    
  13 N13            7.5093     3.2549    -0.0531 N.pl3   
  14 N14            7.6620     1.8631    -0.0620 N.2     
  15 C15            6.4755     1.3154    -0.0531 C.2     
  16 C16            5.5173     2.3471    -0.0379 C.2     
  17 C17            6.1897     3.5336    -0.0383 C.2     
  18 N18            1.2106    -4.6671    -0.0333 N.am    
  19 C19            1.6136    -4.0358     1.2306 C.3     
  20 C20            1.1380    -2.5796     1.2280 C.3     
  21 C21            1.6687    -1.8760    -0.0232 C.3     
  22 C22            1.1162    -2.5668    -1.2720 C.3     
  23 C23            1.5915    -4.0229    -1.2977 C.3     
  24 S24            0.3494    -6.0816    -0.0330 S.o2    
  25 O25            0.5921    -6.6995    -1.2894 O.2     
  26 O26            0.6192    -6.7154     1.2099 O.2     
  27 C27           -3.3434    -5.1510    -0.6966 C.2     
  28 N28           -2.1355    -5.4531    -1.0874 N.2     
  29 C29           -1.3593    -5.6518    -0.0117 C.2     
  30 C30           -2.1149    -5.4657     1.0874 C.2     
  31 N31           -3.3736    -5.1480     0.6535 N.pl3   
  32 C32           -4.5097    -4.8492    -1.6020 C.3     
  33 C33           -4.5365    -4.8587     1.4963 C.3     
  34 H34           -0.8150     1.9455     0.0166 H       
  35 H35            4.1450     0.0344    -0.0369 H       
  36 H36            3.6475     4.2853    -0.0086 H       
  37 H37            2.4669     5.6781     0.0094 H       
  38 H38            0.9295     6.3554     0.0277 H       
  39 H39            8.2283     3.9060    -0.0532 H       
  40 H40            6.2663     0.2558    -0.0570 H       
  41 H41            5.7459     4.5182    -0.0283 H       
  42 H42            1.1582    -4.5674     2.0661 H       
  43 H43            2.6992    -4.0655     1.3241 H       
  44 H44            0.0484    -2.5527     1.2260 H       
  45 H45            1.5132    -2.0727     2.1171 H       
  46 H46            2.7576    -1.9251    -0.0331 H       
  47 H47            0.0267    -2.5401    -1.2505 H       
  48 H48            1.4757    -2.0510    -2.1623 H       
  49 H49            2.6752    -4.0516    -1.4105 H       
  50 H50            1.1214    -4.5461    -2.1305 H       
  51 H51           -1.7902    -5.5511     2.1139 H       
  52 H52           -5.0429    -5.7726    -1.8277 H       
  53 H53           -5.1845    -4.1522    -1.1050 H       
  54 H54           -4.1453    -4.4043    -2.5279 H       
  55 H55           -5.0753    -5.7837     1.7019 H       
  56 H56           -4.2037    -4.4158     2.4350 H       
  57 H57           -5.1957    -4.1616     0.9791 H       
@<TRIPOS>BOND
   1    1    2 1
   2    1    9 1
   3    1   34 1
   4    2    3 2
   5    3    4 1
   6    3   21 1
   7    4    5 ar
   8    4    9 ar
   9    5    6 ar
  10    5   35 1
  11    6    7 ar
  12    6   16 1
  13    7    8 ar
  14    7   36 1
  15    8    9 ar
  16    8   10 1
  17   10   11 2
  18   10   12 am
  19   12   37 1
  20   12   38 1
  21   13   14 1
  22   13   17 1
  23   13   39 1
  24   14   15 2
  25   15   16 1
  26   15   40 1
  27   16   17 2
  28   17   41 1
  29   18   19 1
  30   18   23 1
  31   18   24 am
  32   19   20 1
  33   19   42 1
  34   19   43 1
  35   20   21 1
  36   20   44 1
  37   20   45 1
  38   21   22 1
  39   21   46 1
  40   22   23 1
  41   22   47 1
  42   22   48 1
  43   23   49 1
  44   23   50 1
  45   24   25 2
  46   24   26 2
  47   24   29 1
  48   27   28 2
  49   27   31 1
  50   27   32 1
  51   28   29 1
  52   29   30 2
  53   30   31 1
  54   30   51 1
  55   31   33 1
  56   32   52 1
  57   32   53 1
  58   32   54 1
  59   33   55 1
  60   33   56 1
  61   33   57 1

#	End of record

