#	Name: ASD01882684
#	Creating user name:	WinNT
#	Creation time:	15. 06. 2019 19:45

#	Modifying user name:	WinNT
#	Modification time:	15. 06. 2019 19:45

#	Program:	/corina/corina34_cracker 3.40 0067  02.08.2006

@<TRIPOS>MOLECULE
ASD01882684
  47   51    0    0    0
SMALL
NO_CHARGES


@<TRIPOS>ATOM
   1 O1            -0.1166     1.4192    -0.0008 O.3     
   2 C2             0.0123    -0.0139     0.0229 C.3     
   3 C3             1.2702    -0.2538    -0.8341 C.3     
   4 C4             2.0150     1.0531    -0.6983 C.ar    
   5 C5             1.1105     1.9792    -0.1894 C.ar    
   6 C6             3.3141     1.4184    -0.9737 C.ar    
   7 C7             3.7341     2.7155    -0.7382 C.ar    
   8 C8             2.8457     3.6427    -0.2262 C.ar    
   9 C9             1.5426     3.2812     0.0473 C.ar    
  10 N10            0.7987    -2.8831    -1.7229 N.pl3   
  11 C11            1.2646    -2.6989    -0.3417 C.3     
  12 C12            2.0871    -1.4071    -0.2679 C.3     
  13 C13            0.8835    -0.5100    -2.2845 C.3     
  14 C14            0.0526    -1.7955    -2.3707 C.3     
  15 C15            0.8048    -6.4330    -2.6712 C.2     
  16 C16            0.5280    -5.2500    -1.9637 C.2     
  17 C17            1.0593    -4.0685    -2.4063 C.2     
  18 C18            1.8727    -4.0592    -3.5599 C.2     
  19 C19            2.1254    -5.2051    -4.2224 C.2     
  20 N20            1.6005    -6.3882    -3.7901 N.pl3   
  21 N21            0.9732    -8.4178    -3.4329 N.2     
  22 N22            0.4551    -7.6989    -2.5001 N.2     
  23 C23            1.6788    -7.6725    -4.2423 C.2     
  24 C24            2.4418    -8.1463    -5.4525 C.3     
  25 C25            3.8662    -8.5243    -5.0416 C.3     
  26 F26            3.8207    -9.5478    -4.0889 F       
  27 F27            4.5745    -8.9641    -6.1650 F       
  28 F28            4.5060    -7.4066    -4.4950 F       
  29 Cl29          -0.4758    -5.2869    -0.5478 Cl      
  30 H30            0.1644    -0.3715     1.0413 H       
  31 H31           -0.8592    -0.4880    -0.4285 H       
  32 H32            4.0056     0.6916    -1.3736 H       
  33 H33            4.7528     3.0026    -0.9533 H       
  34 H34            3.1732     4.6547    -0.0391 H       
  35 H35            0.8547     4.0116     0.4470 H       
  36 H36            0.4068    -2.6247     0.3267 H       
  37 H37            1.8863    -3.5452    -0.0496 H       
  38 H38            3.0015    -1.5247    -0.8494 H       
  39 H39            2.3413    -1.1968     0.7709 H       
  40 H40            0.2956     0.3286    -2.6576 H       
  41 H41            1.7852    -0.6188    -2.8873 H       
  42 H42           -0.1253    -2.0465    -3.4164 H       
  43 H43           -0.8994    -1.6505    -1.8601 H       
  44 H44            2.2941    -3.1297    -3.9133 H       
  45 H45            2.7491    -5.1869    -5.1039 H       
  46 H46            1.9433    -9.0170    -5.8783 H       
  47 H47            2.4772    -7.3488    -6.1947 H       
@<TRIPOS>BOND
   1    1    2 1
   2    1    5 1
   3    2    3 1
   4    2   30 1
   5    2   31 1
   6    3    4 1
   7    3   12 1
   8    3   13 1
   9    4    5 ar
  10    4    6 ar
  11    5    9 ar
  12    6    7 ar
  13    6   32 1
  14    7    8 ar
  15    7   33 1
  16    8    9 ar
  17    8   34 1
  18    9   35 1
  19   10   11 1
  20   10   14 1
  21   10   17 1
  22   11   12 1
  23   11   36 1
  24   11   37 1
  25   12   38 1
  26   12   39 1
  27   13   14 1
  28   13   40 1
  29   13   41 1
  30   14   42 1
  31   14   43 1
  32   15   16 1
  33   15   20 1
  34   15   22 2
  35   16   17 2
  36   16   29 1
  37   17   18 1
  38   18   19 2
  39   18   44 1
  40   19   20 1
  41   19   45 1
  42   20   23 1
  43   21   22 1
  44   21   23 2
  45   23   24 1
  46   24   25 1
  47   24   46 1
  48   24   47 1
  49   25   26 1
  50   25   27 1
  51   25   28 1

#	End of record

