#	Name: ASD03090005
#	Creating user name:	WinNT
#	Creation time:	15. 06. 2019 20:28

#	Modifying user name:	WinNT
#	Modification time:	15. 06. 2019 20:28

#	Program:	/corina/corina34_cracker 3.40 0067  02.08.2006

@<TRIPOS>MOLECULE
ASD03090005
  41   43    0    0    0
SMALL
NO_CHARGES


@<TRIPOS>ATOM
   1 O1            -0.1221     1.3890    -0.1310 O.3     
   2 N2            -0.2912     0.1931    -0.1833 N.2     
   3 C3             0.8324    -0.4626    -0.0978 C.2     
   4 C4             1.8523     0.4998     0.0272 C.2     
   5 C5             1.1813     1.6955     0.0006 C.2     
   6 C6             1.4649     3.8966     1.2505 C.2     
   7 C7             1.7693     3.0440     0.0963 C.2     
   8 O8             1.9504     5.0100     1.3296 O.2     
   9 N9             0.6477     3.4472     2.2235 N.am    
  10 C10            1.0057    -1.9593    -0.1271 C.3     
  11 C11            2.5972     3.4994    -0.8893 C.2     
  12 N12            2.8798     2.7076    -1.9611 N.pl3   
  13 C13            3.7274     3.1738    -2.9702 C.ar    
  14 C14            4.0165     2.3674    -4.0638 C.ar    
  15 C15            4.8542     2.8305    -5.0592 C.ar    
  16 C16            5.4059     4.0965    -4.9678 C.ar    
  17 C17            5.1200     4.9018    -3.8792 C.ar    
  18 C18            4.2777     4.4464    -2.8841 C.ar    
  19 Cl19           6.4590     4.6752    -6.2207 Cl      
  20 C20            0.4345     4.2197     3.3702 C.ar    
  21 C21            0.3836     5.6044     3.2767 C.ar    
  22 C22            0.1730     6.3646     4.4103 C.ar    
  23 C23            0.0128     5.7478     5.6386 C.ar    
  24 C24            0.0630     4.3682     5.7347 C.ar    
  25 C25            0.2676     3.6030     4.6034 C.ar    
  26 Cl26          -0.2512     6.7064     7.0617 Cl      
  27 H27            2.9154     0.3349     0.1219 H       
  28 H28            0.2074     2.5881     2.1286 H       
  29 H29            1.1439    -2.2890    -1.1568 H       
  30 H30            1.8795    -2.2355     0.4632 H       
  31 H31            0.1192    -2.4360     0.2912 H       
  32 H32            3.0279     4.4872    -0.8192 H       
  33 H33            2.4929     1.8203    -2.0241 H       
  34 H34            3.5869     1.3792    -4.1353 H       
  35 H35            5.0794     2.2041    -5.9097 H       
  36 H36            5.5522     5.8891    -3.8102 H       
  37 H37            4.0510     5.0771    -2.0372 H       
  38 H38            0.5090     6.0863     2.3183 H       
  39 H39            0.1338     7.4415     4.3381 H       
  40 H40           -0.0624     3.8893     6.6946 H       
  41 H41            0.3023     2.5261     4.6782 H       
@<TRIPOS>BOND
   1    1    2 1
   2    1    5 1
   3    2    3 2
   4    3    4 1
   5    3   10 1
   6    4    5 2
   7    4   27 1
   8    5    7 1
   9    6    7 1
  10    6    8 2
  11    6    9 am
  12    7   11 2
  13    9   20 1
  14    9   28 1
  15   10   29 1
  16   10   30 1
  17   10   31 1
  18   11   12 1
  19   11   32 1
  20   12   13 1
  21   12   33 1
  22   13   14 ar
  23   13   18 ar
  24   14   15 ar
  25   14   34 1
  26   15   16 ar
  27   15   35 1
  28   16   17 ar
  29   16   19 1
  30   17   18 ar
  31   17   36 1
  32   18   37 1
  33   20   21 ar
  34   20   25 ar
  35   21   22 ar
  36   21   38 1
  37   22   23 ar
  38   22   39 1
  39   23   24 ar
  40   23   26 1
  41   24   25 ar
  42   24   40 1
  43   25   41 1

#	End of record

