#	Name: ASD00071033
#	Creating user name:	WinNT
#	Creation time:	15. 06. 2019 18:30

#	Modifying user name:	WinNT
#	Modification time:	15. 06. 2019 18:30

#	Program:	/corina/corina34_cracker 3.40 0067  02.08.2006

@<TRIPOS>MOLECULE
ASD00071033
  33   35    0    0    0
SMALL
NO_CHARGES


@<TRIPOS>ATOM
   1 C1            -3.2681    -2.7334     1.1432 C.ar    
   2 C2            -2.9975    -1.3942     0.9013 C.ar    
   3 C3            -3.8725    -0.4226     1.3465 C.ar    
   4 C4            -5.0172    -0.7836     2.0333 C.ar    
   5 C5            -5.2890    -2.1172     2.2756 C.ar    
   6 C6            -4.4172    -3.0929     1.8319 C.ar    
   7 O7            -2.4116    -3.6915     0.7012 O.3     
   8 C8            -1.7497    -1.0000     0.1538 C.3     
   9 N9            -2.7928    -0.1951    -3.3471 N.ar    
  10 C10           -2.5745    -0.0994    -2.0517 C.ar    
  11 C11           -1.9845    -1.1457    -1.3277 C.ar    
  12 C12           -1.6236    -2.2936    -1.9660 C.ar    
  13 C13           -1.8601    -2.3897    -3.3529 C.ar    
  14 C14           -1.5134    -3.5434    -4.0722 C.ar    
  15 C15           -1.7572    -3.6011    -5.4113 C.ar    
  16 C16           -2.3461    -2.5290    -6.0767 C.ar    
  17 C17           -2.6945    -1.3944    -5.4092 C.ar    
  18 C18           -2.4595    -1.2981    -4.0274 C.ar    
  19 N19           -2.9366     1.0633    -1.3882 N.pl3   
  20 H20           -3.6623     0.6199     1.1585 H       
  21 H21           -5.6997    -0.0224     2.3813 H       
  22 H22           -6.1837    -2.3967     2.8122 H       
  23 H23           -4.6302    -4.1347     2.0211 H       
  24 H24           -1.7179    -3.9214     1.3345 H       
  25 H25           -1.5016     0.0365     0.3821 H       
  26 H26           -0.9256    -1.6460     0.4563 H       
  27 H27           -1.1679    -3.1090    -1.4240 H       
  28 H28           -1.0555    -4.3810    -3.5671 H       
  29 H29           -1.4899    -4.4897    -5.9640 H       
  30 H30           -2.5291    -2.5983    -7.1388 H       
  31 H31           -3.1497    -0.5714    -5.9402 H       
  32 H32           -3.4367     1.7518    -1.8538 H       
  33 H33           -2.6897     1.1880    -0.4584 H       
@<TRIPOS>BOND
   1    1    2 ar
   2    1    6 ar
   3    1    7 1
   4    2    3 ar
   5    2    8 1
   6    3    4 ar
   7    3   20 1
   8    4    5 ar
   9    4   21 1
  10    5    6 ar
  11    5   22 1
  12    6   23 1
  13    7   24 1
  14    8   11 1
  15    8   25 1
  16    8   26 1
  17    9   10 ar
  18    9   18 ar
  19   10   11 ar
  20   10   19 1
  21   11   12 ar
  22   12   13 ar
  23   12   27 1
  24   13   14 ar
  25   13   18 ar
  26   14   15 ar
  27   14   28 1
  28   15   16 ar
  29   15   29 1
  30   16   17 ar
  31   16   30 1
  32   17   18 ar
  33   17   31 1
  34   19   32 1
  35   19   33 1

#	End of record

