#	Name: ASD01912150
#	Creating user name:	WinNT
#	Creation time:	15. 06. 2019 19:59

#	Modifying user name:	WinNT
#	Modification time:	15. 06. 2019 19:59

#	Program:	/corina/corina34_cracker 3.40 0067  02.08.2006

@<TRIPOS>MOLECULE
ASD01912150
  47   51    0    0    0
SMALL
NO_CHARGES


@<TRIPOS>ATOM
   1 Cl1            7.7643     5.4464    -1.6921 Cl      
   2 C2            -0.0187     1.5269     0.0104 C.3     
   3 C3             0.0021    -0.0041     0.0020 C.3     
   4 C4            -1.4254    -0.5347    -0.0854 C.3     
   5 C5            -2.2565    -0.0775     1.1038 C.3     
   6 N6            -2.0058     1.3372     1.4188 N.am    
   7 C7            -0.7333     2.0019     1.2785 C.3     
   8 C8             1.3940     2.0516    -0.0002 C.2     
   9 O9             2.3340     1.8181     0.9212 O.3     
  10 N10            3.3630     2.3848     0.6192 N.2     
  11 C11            3.2041     3.0338    -0.5079 C.2     
  12 N12            1.9318     2.8166    -0.9165 N.2     
  13 C13            4.2238     3.8451    -1.2050 C.2     
  14 C14            5.5051     4.0534    -0.7893 C.2     
  15 C15            6.1249     4.8774    -1.7417 C.2     
  16 C16            5.2153     5.1483    -2.7048 C.2     
  17 N17            4.0503     4.5173    -2.3885 N.pl3   
  18 C18           -1.7667    -0.9460     2.3563 C.3     
  19 C19           -2.4247    -0.1613     3.5370 C.3     
  20 C20           -3.8503     0.0963     3.1866 C.ar    
  21 C21           -4.2438     1.0704     2.3254 C.ar    
  22 C22           -3.1301     1.9868     1.8750 C.2     
  23 O23           -3.2197     3.1984     1.9128 O.2     
  24 C24           -4.8334    -0.7109     3.7566 C.ar    
  25 C25           -6.1670    -0.5237     3.3916 C.ar    
  26 C26           -6.5318     0.4514     2.4600 C.ar    
  27 C27           -5.5528     1.2644     1.9138 C.ar    
  28 C28           -7.1798    -1.3461     3.9820 C.1     
  29 N29           -7.9832    -1.9984     4.4504 N.1     
  30 H30           -0.5502     1.8901    -0.8692 H       
  31 H31            0.5729    -0.3546    -0.8579 H       
  32 H32            0.4683    -0.3658     0.9185 H       
  33 H33           -1.8860    -0.1711    -1.0039 H       
  34 H34           -1.4008    -1.6242    -0.1063 H       
  35 H35           -3.3165    -0.2374     0.9065 H       
  36 H36           -0.1128     1.7793     2.1466 H       
  37 H37           -0.8935     3.0785     1.2203 H       
  38 H38            5.9593     3.6582     0.1073 H       
  39 H39            5.3848     5.7593    -3.5791 H       
  40 H40            3.2329     4.5433    -2.9101 H       
  41 H41           -2.1486    -1.9654     2.3009 H       
  42 H42           -0.6798    -0.9397     2.4378 H       
  43 H43           -2.3717    -0.7562     4.4488 H       
  44 H44           -1.9052     0.7855     3.6842 H       
  45 H45           -4.5657    -1.4734     4.4730 H       
  46 H46           -7.5651     0.5698     2.1691 H       
  47 H47           -5.8016     2.0258     1.1894 H       
@<TRIPOS>BOND
   1    1   15 1
   2    2    3 1
   3    2    8 1
   4    2    7 1
   5    2   30 1
   6    3    4 1
   7    3   31 1
   8    3   32 1
   9    4    5 1
  10    4   33 1
  11    4   34 1
  12    5    6 1
  13    5   18 1
  14    5   35 1
  15    6    7 1
  16    6   22 am
  17    7   36 1
  18    7   37 1
  19    8    9 1
  20    8   12 2
  21    9   10 1
  22   10   11 2
  23   11   12 1
  24   11   13 1
  25   13   14 2
  26   13   17 1
  27   14   15 1
  28   14   38 1
  29   15   16 2
  30   16   17 1
  31   16   39 1
  32   17   40 1
  33   18   19 1
  34   18   41 1
  35   18   42 1
  36   19   20 1
  37   19   43 1
  38   19   44 1
  39   20   21 ar
  40   20   24 ar
  41   21   22 1
  42   21   27 ar
  43   22   23 2
  44   24   25 ar
  45   24   45 1
  46   25   26 ar
  47   25   28 1
  48   26   27 ar
  49   26   46 1
  50   27   47 1
  51   28   29 3

#	End of record

