#	Name: ASD02198581
#	Creating user name:	WinNT
#	Creation time:	15. 06. 2019 20:19

#	Modifying user name:	WinNT
#	Modification time:	15. 06. 2019 20:19

#	Program:	/corina/corina34_cracker 3.40 0067  02.08.2006

@<TRIPOS>MOLECULE
ASD02198581
  51   55    0    0    0
SMALL
NO_CHARGES


@<TRIPOS>ATOM
   1 C1             0.0072     1.5097     0.1332 C.2     
   2 C2             0.0745     0.1699    -0.0951 C.2     
   3 N3            -1.0523    -0.5606    -0.2648 N.pl3   
   4 N4            -2.2303    -0.0572    -0.2240 N.2     
   5 C5            -2.4380     1.2254    -0.0110 C.2     
   6 C6            -1.2794     2.1065     0.1920 C.2     
   7 C7            -0.9248    -1.9328    -0.4968 C.ar    
   8 C8            -1.3868    -3.8607    -1.8521 C.ar    
   9 C9            -0.6715    -4.6549    -0.9565 C.ar    
  10 C10           -0.0890    -4.0792     0.1719 C.ar    
  11 C11           -0.2167    -2.7253     0.3987 C.ar    
  12 C12           -3.8113     1.7681     0.0290 C.2     
  13 N13           -4.3733     2.4806     1.0507 N.pl3   
  14 N14           -5.6853     2.7985     0.6779 N.2     
  15 C15           -5.9158     2.3055    -0.5128 C.2     
  16 C16           -4.7646     1.6563    -0.9592 C.2     
  17 C17           -3.7491     2.8302     2.2549 C.ar    
  18 C18           -2.9549     1.9060     2.9208 C.ar    
  19 O19           -1.4175     3.3043     0.3937 O.2     
  20 C20           -3.9186     4.1036     2.7823 C.ar    
  21 C21           -3.3019     4.4452     3.9699 C.ar    
  22 C22           -2.5158     3.5210     4.6334 C.ar    
  23 C23           -2.3408     2.2538     4.1080 C.ar    
  24 C24           -1.5123    -2.5056    -1.6222 C.ar    
  25 F25           -2.2054    -1.7348    -2.4887 F       
  26 O26            1.1344     2.2510     0.3048 O.3     
  27 C27            2.3828     1.5592     0.2342 C.3     
  28 C28           -0.5356    -6.1111    -1.2008 C.ar    
  29 N29           -1.0970    -6.6537    -2.2739 N.ar    
  30 C30            0.1854    -6.8977    -0.3047 C.ar    
  31 C31            0.3036    -8.2556    -0.5461 C.ar    
  32 C32           -0.3037    -8.7827    -1.6769 C.ar    
  33 C33           -0.9996    -7.9428    -2.5270 C.ar    
  34 H34            1.0379    -0.3161    -0.1417 H       
  35 H35           -1.8387    -4.3048    -2.7267 H       
  36 H36            0.4649    -4.6932     0.8665 H       
  37 H37            0.2345    -2.2800     1.2731 H       
  38 H38           -6.8427     2.3908    -1.0605 H       
  39 H39           -4.6447     1.1509    -1.9060 H       
  40 H40           -2.8179     0.9163     2.5110 H       
  41 H41           -4.5318     4.8261     2.2643 H       
  42 H42           -3.4333     5.4354     4.3807 H       
  43 H43           -2.0340     3.7908     5.5615 H       
  44 H44           -1.7263     1.5342     4.6285 H       
  45 H45            2.4169     0.7912     1.0069 H       
  46 H46            2.4851     1.0932    -0.7459 H       
  47 H47            3.1988     2.2654     0.3876 H       
  48 H48            0.6458    -6.4542     0.5657 H       
  49 H49            0.8565    -8.8905     0.1304 H       
  50 H50           -0.2300    -9.8382    -1.8933 H       
  51 H51           -1.4738    -8.3500    -3.4077 H       
@<TRIPOS>BOND
   1    1    2 2
   2    1   26 1
   3    1    6 1
   4    2    3 1
   5    2   34 1
   6    3    4 1
   7    3    7 1
   8    4    5 2
   9    5    6 1
  10    5   12 1
  11    6   19 2
  12    7   24 ar
  13    7   11 ar
  14    8    9 ar
  15    8   24 ar
  16    8   35 1
  17    9   10 ar
  18    9   28 1
  19   10   11 ar
  20   10   36 1
  21   11   37 1
  22   12   13 1
  23   12   16 2
  24   13   14 1
  25   13   17 1
  26   14   15 2
  27   15   16 1
  28   15   38 1
  29   16   39 1
  30   17   20 ar
  31   17   18 ar
  32   18   23 ar
  33   18   40 1
  34   20   21 ar
  35   20   41 1
  36   21   22 ar
  37   21   42 1
  38   22   23 ar
  39   22   43 1
  40   23   44 1
  41   24   25 1
  42   26   27 1
  43   27   45 1
  44   27   46 1
  45   27   47 1
  46   28   29 ar
  47   28   30 ar
  48   29   33 ar
  49   30   31 ar
  50   30   48 1
  51   31   32 ar
  52   31   49 1
  53   32   33 ar
  54   32   50 1
  55   33   51 1

#	End of record

