#	Name: ASD09200061
#	Creating user name:	WinNT
#	Creation time:	15. 06. 2019 21:21

#	Modifying user name:	WinNT
#	Modification time:	15. 06. 2019 21:21

#	Program:	/corina/corina34_cracker 3.40 0067  02.08.2006

@<TRIPOS>MOLECULE
ASD09200061
  34   37    0    0    0
SMALL
NO_CHARGES


@<TRIPOS>ATOM
   1 C1            -0.0167     1.3814     0.0096 C.ar    
   2 C2             0.0021    -0.0041     0.0020 C.ar    
   3 C3             1.1925    -0.6924    -0.0131 C.ar    
   4 O4             7.6064    -1.8026    -0.0770 O.3     
   5 O5             3.0561    -2.7207    -0.0408 O.2     
   6 C6             5.6072    -3.8195    -0.0691 C.3     
   7 C7             5.6045    -4.3434     1.3439 C.ar    
   8 C8             4.4365    -4.8340     1.8970 C.ar    
   9 C9             4.4341    -5.3145     3.1931 C.ar    
  10 C10            5.5997    -5.3044     3.9362 C.ar    
  11 C11            6.7677    -4.8138     3.3831 C.ar    
  12 C12            6.7714    -4.3385     2.0850 C.ar    
  13 C13            2.4166    -0.0050    -0.0210 C.ar    
  14 C14            2.3776     1.3851    -0.0132 C.ar    
  15 C15            1.1774     2.0772     0.0020 C.ar    
  16 N16            3.6948    -0.5709    -0.0358 N.am    
  17 C17            4.7416     0.2926    -0.0408 C.2     
  18 S18            4.0597     1.9272    -0.0257 S.3     
  19 C19            3.9687    -1.9094    -0.0452 C.2     
  20 C20            5.2903    -2.3462    -0.0592 C.2     
  21 C21            6.3113    -1.4084    -0.0635 C.2     
  22 N22            5.9985    -0.1124    -0.0541 N.2     
  23 Cl23          -1.5277     2.2362     0.0215 Cl      
  24 H24           -0.9297    -0.5501     0.0083 H       
  25 H25            1.1856    -1.7723    -0.0184 H       
  26 H26            6.5902    -3.9767    -0.5131 H       
  27 H27            4.8553    -4.3489    -0.6543 H       
  28 H28            3.5258    -4.8415     1.3165 H       
  29 H29            3.5214    -5.6974     3.6253 H       
  30 H30            5.5977    -5.6795     4.9489 H       
  31 H31            7.6783    -4.8056     3.9638 H       
  32 H32            7.6850    -3.9593     1.6514 H       
  33 H33            1.1750     3.1572     0.0078 H       
  34 H34            8.2399    -1.0720    -0.0789 H       
@<TRIPOS>BOND
   1    1    2 ar
   2    1   15 ar
   3    1   23 1
   4    2    3 ar
   5    2   24 1
   6    3   25 1
   7    3   13 ar
   8    4   21 1
   9    4   34 1
  10    5   19 2
  11    6    7 1
  12    6   26 1
  13    6   27 1
  14    6   20 1
  15    7    8 ar
  16    7   12 ar
  17    8    9 ar
  18    8   28 1
  19    9   29 1
  20    9   10 ar
  21   10   30 1
  22   10   11 ar
  23   11   31 1
  24   11   12 ar
  25   12   32 1
  26   13   14 ar
  27   13   16 1
  28   14   15 ar
  29   14   18 1
  30   15   33 1
  31   16   19 am
  32   16   17 1
  33   17   18 1
  34   17   22 2
  35   19   20 1
  36   20   21 2
  37   21   22 1

#	End of record

