#	Name: ASD03320005
#	Creating user name:	WinNT
#	Creation time:	15. 06. 2019 20:35

#	Modifying user name:	WinNT
#	Modification time:	15. 06. 2019 20:35

#	Program:	/corina/corina34_cracker 3.40 0067  02.08.2006

@<TRIPOS>MOLECULE
ASD03320005
  69   73    0    0    0
SMALL
NO_CHARGES


@<TRIPOS>ATOM
   1 C1             1.6835     1.0912     4.4540 C.ar    
   2 C2             1.3198    -0.1562     3.9497 C.ar    
   3 C3             0.2860    -0.8592     4.5343 C.ar    
   4 C4            -0.3891    -0.3278     5.6184 C.ar    
   5 C5            -0.0325     0.9098     6.1231 C.ar    
   6 C6             1.0038     1.6189     5.5504 C.ar    
   7 C7             2.7935     1.8515     3.8300 C.ar    
   8 C8             3.1648     3.1026     4.3290 C.ar    
   9 C9             4.2068     3.7747     3.7146 C.ar    
  10 N10            4.8164     3.2172     2.6806 N.ar    
  11 C11            4.4430     2.0286     2.2282 C.ar    
  12 N12            3.4551     1.3499     2.7895 N.ar    
  13 N13            5.1075     1.4803     1.1433 N.pl3   
  14 C14            6.0741     2.2284     0.4645 C.ar    
  15 C15            7.1808     1.5962    -0.0885 C.ar    
  16 C16            5.9263     3.6025     0.3376 C.ar    
  17 C17            6.8879     4.3412    -0.3366 C.ar    
  18 C18            7.9954     3.7035    -0.8825 C.ar    
  19 C19            8.1366     2.3349    -0.7594 C.ar    
  20 C20            7.3393     0.1034     0.0438 C.3     
  21 N21            6.7425     5.7259    -0.4672 N.am    
  22 C22            7.8287     6.5233    -0.4376 C.2     
  23 C23            7.6687     7.9921    -0.4802 C.ar    
  24 O24            8.9401     6.0345    -0.3761 O.2     
  25 C25            8.7916     8.8208    -0.4498 C.ar    
  26 C26            8.6352    10.1909    -0.4902 C.ar    
  27 C27            7.3689    10.7439    -0.5608 C.ar    
  28 C28            6.2517     9.9283    -0.5908 C.ar    
  29 C29            6.3943     8.5565    -0.5567 C.ar    
  30 C30            7.2058    12.2414    -0.6047 C.3     
  31 N31            7.2151    12.6943    -2.0021 N.3     
  32 C32            6.8237    14.1073    -2.1004 C.3     
  33 C33            6.9227    14.5610    -3.5588 C.3     
  34 N34            6.0538    13.7177    -4.3915 N.3     
  35 C35            6.4452    12.3046    -4.2932 C.3     
  36 C36            6.3462    11.8509    -2.8348 C.3     
  37 C37            6.0631    14.1706    -5.7889 C.3     
  38 H38            1.8458    -0.5718     3.1029 H       
  39 H39            0.0034    -1.8259     4.1444 H       
  40 H40           -1.1980    -0.8811     6.0723 H       
  41 H41           -0.5631     1.3198     6.9697 H       
  42 H42            1.2816     2.5849     5.9455 H       
  43 H43            2.6503     3.5353     5.1743 H       
  44 H44            4.5190     4.7438     4.0747 H       
  45 H45            4.9020     0.5773     0.8545 H       
  46 H46            5.0645     4.0957     0.7625 H       
  47 H47            8.7442     4.2780    -1.4075 H       
  48 H48            8.9983     1.8417    -1.1846 H       
  49 H49            6.8623    -0.3891    -0.8035 H       
  50 H50            8.3994    -0.1493     0.0614 H       
  51 H51            6.8707    -0.2310     0.9694 H       
  52 H52            5.8600     6.1126    -0.5789 H       
  53 H53            9.7806     8.3904    -0.3943 H       
  54 H54            9.5032    10.8331    -0.4664 H       
  55 H55            5.2661    10.3663    -0.6452 H       
  56 H56            5.5214     7.9209    -0.5805 H       
  57 H57            6.2595    12.5176    -0.1395 H       
  58 H58            8.0272    12.7124    -0.0646 H       
  59 H59            5.7978    14.2256    -1.7516 H       
  60 H60            7.4894    14.7127    -1.4852 H       
  61 H61            6.6051    15.6007    -3.6385 H       
  62 H62            7.9540    14.4684    -3.8993 H       
  63 H63            5.7795    11.6992    -4.9083 H       
  64 H64            7.4711    12.1863    -4.6420 H       
  65 H65            6.6638    10.8113    -2.7551 H       
  66 H66            5.3149    11.9436    -2.4943 H       
  67 H67            7.0790    14.1196    -6.1806 H       
  68 H68            5.4121    13.5292    -6.3830 H       
  69 H69            5.7052    15.1988    -5.8400 H       
@<TRIPOS>BOND
   1    1    2 ar
   2    1    7 1
   3    1    6 ar
   4    2    3 ar
   5    2   38 1
   6    3    4 ar
   7    3   39 1
   8    4    5 ar
   9    4   40 1
  10    5    6 ar
  11    5   41 1
  12    6   42 1
  13    7    8 ar
  14    7   12 ar
  15    8    9 ar
  16    8   43 1
  17    9   10 ar
  18    9   44 1
  19   10   11 ar
  20   11   12 ar
  21   11   13 1
  22   13   14 1
  23   13   45 1
  24   14   15 ar
  25   14   16 ar
  26   15   20 1
  27   15   19 ar
  28   16   17 ar
  29   16   46 1
  30   17   18 ar
  31   17   21 1
  32   18   19 ar
  33   18   47 1
  34   19   48 1
  35   20   49 1
  36   20   50 1
  37   20   51 1
  38   21   22 am
  39   21   52 1
  40   22   23 1
  41   22   24 2
  42   23   25 ar
  43   23   29 ar
  44   25   26 ar
  45   25   53 1
  46   26   27 ar
  47   26   54 1
  48   27   28 ar
  49   27   30 1
  50   28   29 ar
  51   28   55 1
  52   29   56 1
  53   30   31 1
  54   30   57 1
  55   30   58 1
  56   31   32 1
  57   31   36 1
  58   32   33 1
  59   32   59 1
  60   32   60 1
  61   33   34 1
  62   33   61 1
  63   33   62 1
  64   34   35 1
  65   34   37 1
  66   35   36 1
  67   35   63 1
  68   35   64 1
  69   36   65 1
  70   36   66 1
  71   37   67 1
  72   37   68 1
  73   37   69 1

#	End of record

