#	Name: ASD01903154
#	Creating user name:	WinNT
#	Creation time:	15. 06. 2019 19:54

#	Modifying user name:	WinNT
#	Modification time:	15. 06. 2019 19:54

#	Program:	/corina/corina34_cracker 3.40 0067  02.08.2006

@<TRIPOS>MOLECULE
ASD01903154
  40   42    0    0    0
SMALL
NO_CHARGES


@<TRIPOS>ATOM
   1 C1             1.7344    -1.7059     2.0601 C.ar    
   2 C2             0.7260    -1.1745     1.2717 C.ar    
   3 C3             1.0000    -0.0834     0.4622 C.ar    
   4 N4             2.2009     0.4516     0.4335 N.ar    
   5 C5             3.1943    -0.0269     1.1729 C.ar    
   6 C6             2.9905    -1.1216     2.0097 C.ar    
   7 C7             4.5307     0.6088     1.1076 C.2     
   8 N8             4.7341     1.6684     0.2999 N.am    
   9 O9             5.4436     0.1749     1.7823 O.2     
  10 C10            5.9672     2.3277     0.3088 C.ar    
  11 C11            7.1409     1.6063     0.4857 C.ar    
  12 C12            8.3571     2.2606     0.4940 C.ar    
  13 C13            8.4072     3.6323     0.3265 C.ar    
  14 C14            7.2405     4.3536     0.1506 C.ar    
  15 C15            6.0215     3.7047     0.1351 C.ar    
  16 S16            9.9610     4.4631     0.3377 S.o2    
  17 O17            9.6928     5.8108     0.6998 O.2     
  18 O18           10.8572     3.6284     1.0584 O.2     
  19 N19           10.5091     4.4989    -1.2245 N.am    
  20 C20            9.7603     5.1427    -2.2131 C.ar    
  21 C21            9.7207     4.6274    -3.5031 C.ar    
  22 C22            8.9786     5.2667    -4.4779 C.ar    
  23 C23            8.2763     6.4174    -4.1707 C.ar    
  24 C24            8.3143     6.9328    -2.8879 C.ar    
  25 C25            9.0492     6.2959    -1.9072 C.ar    
  26 Br26          10.6814     3.0540    -3.9240 Br      
  27 H27            1.5447    -2.5530     2.7025 H       
  28 H28           -0.2636    -1.6067     1.2877 H       
  29 H29            0.2167     0.3330    -0.1537 H       
  30 H30            3.7996    -1.5100     2.6103 H       
  31 H31            4.0252     1.9736    -0.2876 H       
  32 H32            7.1025     0.5350     0.6169 H       
  33 H33            9.2701     1.7003     0.6318 H       
  34 H34            7.2830     5.4248     0.0204 H       
  35 H35            5.1106     4.2685    -0.0023 H       
  36 H36           11.3500     4.0729    -1.4534 H       
  37 H37            8.9474     4.8672    -5.4809 H       
  38 H38            7.6971     6.9152    -4.9343 H       
  39 H39            7.7651     7.8322    -2.6516 H       
  40 H40            9.0779     6.6990    -0.9057 H       
@<TRIPOS>BOND
   1    1    2 ar
   2    1    6 ar
   3    1   27 1
   4    2    3 ar
   5    2   28 1
   6    3    4 ar
   7    3   29 1
   8    4    5 ar
   9    5    6 ar
  10    5    7 1
  11    6   30 1
  12    7    8 am
  13    7    9 2
  14    8   10 1
  15    8   31 1
  16   10   11 ar
  17   10   15 ar
  18   11   12 ar
  19   11   32 1
  20   12   13 ar
  21   12   33 1
  22   13   14 ar
  23   13   16 1
  24   14   15 ar
  25   14   34 1
  26   15   35 1
  27   16   17 2
  28   16   18 2
  29   16   19 am
  30   19   20 1
  31   19   36 1
  32   20   21 ar
  33   20   25 ar
  34   21   22 ar
  35   21   26 1
  36   22   23 ar
  37   22   37 1
  38   23   24 ar
  39   23   38 1
  40   24   25 ar
  41   24   39 1
  42   25   40 1

#	End of record

