#	Name: ASD05720060
#	Creating user name:	WinNT
#	Creation time:	15. 06. 2019 21:01

#	Modifying user name:	WinNT
#	Modification time:	15. 06. 2019 21:01

#	Program:	/corina/corina34_cracker 3.40 0067  02.08.2006

@<TRIPOS>MOLECULE
ASD05720060
  49   54    0    0    0
SMALL
NO_CHARGES


@<TRIPOS>ATOM
   1 O1             0.2237     1.3177     0.9957 O.3     
   2 C2             0.3549    -0.0041     1.1540 C.2     
   3 N3             1.2004    -0.5729     0.2838 N.am    
   4 C4             1.7400     0.4675    -0.6050 C.3     
   5 C5             1.0643     1.7605    -0.1090 C.3     
   6 O6            -0.2382    -0.6315     2.0088 O.2     
   7 C7             3.0949    -3.5989     0.0428 C.2     
   8 N8             2.7734    -2.3026     0.0955 N.2     
   9 C9             1.5164    -1.9241     0.2305 C.2     
  10 C10            0.4942    -2.8907     0.3211 C.2     
  11 C11            0.8159    -4.2033     0.2682 C.2     
  12 N12            2.1271    -4.5645     0.1279 N.pl3   
  13 N13            2.7551    -5.8123     0.0440 N.2     
  14 C14            4.0473    -5.6384    -0.0867 C.2     
  15 C15            4.3196    -4.2649    -0.0990 C.2     
  16 C16            5.6519    -3.6346    -0.2347 C.ar    
  17 C17            6.6709    -3.9561     0.6634 C.ar    
  18 C18            7.9120    -3.3682     0.5361 C.ar    
  19 C19            8.1478    -2.4515    -0.4916 C.ar    
  20 C20            7.1288    -2.1315    -1.3879 C.ar    
  21 C21            5.8911    -2.7228    -1.2644 C.ar    
  22 N22           11.1676    -0.6111    -1.3104 N.pl3   
  23 N23            9.8248    -0.9449    -1.5505 N.2     
  24 C24            9.4817    -1.8186    -0.6288 C.2     
  25 N25           10.5378    -2.0417     0.1655 N.2     
  26 C26           11.5525    -1.3223    -0.2356 C.2     
  27 F27            8.8991    -3.6782     1.4049 F       
  28 C28            1.3564     0.1843    -2.0588 C.3     
  29 C29            2.0491    -1.0965    -2.5288 C.3     
  30 C30            1.7747    -1.5638    -3.9596 C.3     
  31 C31            3.1339    -0.9609    -3.5992 C.3     
  32 H32            2.8228     0.5368    -0.5002 H       
  33 H33            0.4563     2.2012    -0.8990 H       
  34 H34            1.8119     2.4722     0.2412 H       
  35 H35           -0.5360    -2.5860     0.4320 H       
  36 H36            0.0460    -4.9575     0.3364 H       
  37 H37            4.7817    -6.4255    -0.1739 H       
  38 H38            6.4875    -4.6646     1.4576 H       
  39 H39            7.3115    -1.4228    -2.1821 H       
  40 H40            5.1038    -2.4775    -1.9619 H       
  41 H41           11.7120     0.0077    -1.8219 H       
  42 H42           12.5323    -1.3023     0.2182 H       
  43 H43            0.2759     0.0608    -2.1320 H       
  44 H44            1.6702     1.0183    -2.6865 H       
  45 H45            2.1867    -1.8634    -1.7665 H       
  46 H46            1.7321    -2.6381    -4.1387 H       
  47 H47            1.1006    -0.9588    -4.5661 H       
  48 H48            3.3541     0.0407    -3.9685 H       
  49 H49            3.9856    -1.6387    -3.5412 H       
@<TRIPOS>BOND
   1    1    2 1
   2    1    5 1
   3    2    3 am
   4    2    6 2
   5    3    4 1
   6    3    9 1
   7    4    5 1
   8    4   28 1
   9    4   32 1
  10    5   33 1
  11    5   34 1
  12    7    8 1
  13    7   12 1
  14    7   15 2
  15    8    9 2
  16    9   10 1
  17   10   11 2
  18   10   35 1
  19   11   12 1
  20   11   36 1
  21   12   13 1
  22   13   14 2
  23   14   15 1
  24   14   37 1
  25   15   16 1
  26   16   17 ar
  27   16   21 ar
  28   17   18 ar
  29   17   38 1
  30   18   19 ar
  31   18   27 1
  32   19   20 ar
  33   19   24 1
  34   20   21 ar
  35   20   39 1
  36   21   40 1
  37   22   23 1
  38   22   26 1
  39   22   41 1
  40   23   24 2
  41   24   25 1
  42   25   26 2
  43   26   42 1
  44   28   29 1
  45   28   43 1
  46   28   44 1
  47   29   30 1
  48   29   31 1
  49   29   45 1
  50   30   31 1
  51   30   46 1
  52   30   47 1
  53   31   48 1
  54   31   49 1

#	End of record

