#	Name: ASD01915333
#	Creating user name:	WinNT
#	Creation time:	15. 06. 2019 20:05

#	Modifying user name:	WinNT
#	Modification time:	15. 06. 2019 20:05

#	Program:	/corina/corina34_cracker 3.40 0067  02.08.2006

@<TRIPOS>MOLECULE
ASD01915333
  51   54    0    0    0
SMALL
NO_CHARGES


@<TRIPOS>ATOM
   1 C1            -0.0045     1.3249    -0.0199 C.2     
   2 N2             0.0095    -0.0259    -0.0292 N.pl3   
   3 C3            -1.3056    -0.4567    -0.0127 C.2     
   4 C4            -2.0824     0.6208     0.0061 C.2     
   5 O5            -1.2940     1.7192     0.0061 O.3     
   6 N6             1.2474     1.7375    -0.0352 N.2     
   7 C7             2.0666     0.6884    -0.0542 C.2     
   8 N8             1.3556    -0.4113    -0.0513 N.2     
   9 C9            -3.5893     0.6191     0.0283 C.3     
  10 C10           -1.7722    -1.8896    -0.0159 C.3     
  11 C11           -4.0805     1.2194     1.3471 C.3     
  12 O12           -4.0906     1.4113    -1.0805 O.3     
  13 C13           -5.2813     1.0541    -1.5978 C.2     
  14 N14           -5.8036     1.7478    -2.6286 N.am    
  15 O15           -5.8850     0.1064    -1.1354 O.2     
  16 C16           -6.9843     1.3105    -3.2396 C.ar    
  17 C17           -7.8988     2.2345    -3.7276 C.ar    
  18 C18           -9.0628     1.7997    -4.3306 C.ar    
  19 C19           -9.3180     0.4458    -4.4486 C.ar    
  20 C20           -8.4093    -0.4769    -3.9636 C.ar    
  21 C21           -7.2410    -0.0485    -3.3644 C.ar    
  22 C22            3.5719     0.7555    -0.0756 C.3     
  23 C23            4.0312     1.5077    -1.3262 C.3     
  24 C24            5.5595     1.5758    -1.3479 C.3     
  25 C25            6.0550     2.3101    -0.1005 C.3     
  26 C26            5.5958     1.5579     1.1502 C.3     
  27 C27            4.0674     1.4898     1.1719 C.3     
  28 H28           -3.9528    -0.4044    -0.0628 H       
  29 H29           -0.9077    -2.5533    -0.0330 H       
  30 H30           -2.3604    -2.0822     0.8814 H       
  31 H31           -2.3861    -2.0699    -0.8983 H       
  32 H32           -5.1704     1.2182     1.3632 H       
  33 H33           -3.7042     0.6247     2.1795 H       
  34 H34           -3.7170     2.2429     1.4382 H       
  35 H35           -5.3612     2.5502    -2.9469 H       
  36 H36           -7.7002     3.2921    -3.6355 H       
  37 H37           -9.7746     2.5179    -4.7100 H       
  38 H38          -10.2291     0.1083    -4.9201 H       
  39 H39           -8.6115    -1.5336    -4.0573 H       
  40 H40           -6.5316    -0.7696    -2.9861 H       
  41 H41            3.9805    -0.2549    -0.0887 H       
  42 H42            3.6781     0.9846    -2.2150 H       
  43 H43            3.6226     2.5181    -1.3131 H       
  44 H44            5.9681     0.5654    -1.3611 H       
  45 H45            5.8867     2.1117    -2.2389 H       
  46 H46            7.1438     2.3587    -0.1159 H       
  47 H47            5.6464     3.3205    -0.0873 H       
  48 H48            6.0044     0.5475     1.1370 H       
  49 H49            5.9488     2.0810     2.0389 H       
  50 H50            3.6588     2.5002     1.1851 H       
  51 H51            3.7402     0.9539     2.0629 H       
@<TRIPOS>BOND
   1    1    2 1
   2    1    6 2
   3    1    5 1
   4    2    3 1
   5    2    8 1
   6    3    4 2
   7    3   10 1
   8    4    5 1
   9    4    9 1
  10    6    7 1
  11    7    8 2
  12    7   22 1
  13    9   11 1
  14    9   12 1
  15    9   28 1
  16   10   29 1
  17   10   30 1
  18   10   31 1
  19   11   32 1
  20   11   33 1
  21   11   34 1
  22   12   13 1
  23   13   14 am
  24   13   15 2
  25   14   16 1
  26   14   35 1
  27   16   17 ar
  28   16   21 ar
  29   17   18 ar
  30   17   36 1
  31   18   19 ar
  32   18   37 1
  33   19   20 ar
  34   19   38 1
  35   20   21 ar
  36   20   39 1
  37   21   40 1
  38   22   23 1
  39   22   27 1
  40   22   41 1
  41   23   24 1
  42   23   42 1
  43   23   43 1
  44   24   25 1
  45   24   44 1
  46   24   45 1
  47   25   26 1
  48   25   46 1
  49   25   47 1
  50   26   27 1
  51   26   48 1
  52   26   49 1
  53   27   50 1
  54   27   51 1

#	End of record

