#	Name: ASD01120266
#	Creating user name:	WinNT
#	Creation time:	15. 06. 2019 18:59

#	Modifying user name:	WinNT
#	Modification time:	15. 06. 2019 18:59

#	Program:	/corina/corina34_cracker 3.40 0067  02.08.2006

@<TRIPOS>MOLECULE
ASD01120266
  27   28    0    0    0
SMALL
NO_CHARGES


@<TRIPOS>ATOM
   1 C1            -0.0187     1.5258     0.0104 C.3     
   2 C2             0.0021    -0.0041     0.0020 C.3     
   3 O3             0.6817    -0.4723    -1.1926 O.3     
   4 C4             0.7867    -1.8072    -1.3538 C.2     
   5 O5             0.3227    -2.5588    -0.5183 O.2     
   6 C6             1.4610    -2.3525    -2.5376 C.2     
   7 N7             2.0274    -1.6048    -3.5543 N.pl3   
   8 C8             2.5634    -2.4605    -4.4875 C.ar    
   9 C9             2.3251    -3.7749    -4.0411 C.ar    
  10 C10            1.6346    -3.6748    -2.8084 C.2     
  11 Br11           1.0481    -5.1190    -1.7378 Br      
  12 C12            2.7696    -4.8593    -4.8089 C.ar    
  13 C13            3.4293    -4.6353    -5.9819 C.ar    
  14 C14            3.6658    -3.3396    -6.4245 C.ar    
  15 C15            3.2393    -2.2576    -5.6878 C.ar    
  16 N16            3.4973    -0.8825    -6.1711 N.pl3   
  17 O17            4.0877    -0.7071    -7.2219 O.2     
  18 O18            3.1192     0.0735    -5.5180 O.2     
  19 H19            1.0039     1.9031     0.0027 H       
  20 H20           -0.5459     1.8868    -0.8726 H       
  21 H21           -0.5289     1.8773     0.9072 H       
  22 H22            0.5293    -0.3651     0.8851 H       
  23 H23           -1.0205    -0.3814     0.0098 H       
  24 H24            2.0434    -0.6360    -3.6014 H       
  25 H25            2.5907    -5.8699    -4.4728 H       
  26 H26            3.7713    -5.4729    -6.5718 H       
  27 H27            4.1895    -3.1798    -7.3554 H       
@<TRIPOS>BOND
   1    1    2 1
   2    1   19 1
   3    1   20 1
   4    1   21 1
   5    2    3 1
   6    2   22 1
   7    2   23 1
   8    3    4 1
   9    4    5 2
  10    4    6 1
  11    6    7 1
  12    6   10 2
  13    7    8 1
  14    7   24 1
  15    8    9 ar
  16    8   15 ar
  17    9   10 1
  18    9   12 ar
  19   10   11 1
  20   12   13 ar
  21   12   25 1
  22   13   14 ar
  23   13   26 1
  24   14   15 ar
  25   14   27 1
  26   15   16 1
  27   16   17 2
  28   16   18 2

#	End of record

