#	Name: ASD00170597
#	Creating user name:	WinNT
#	Creation time:	15. 06. 2019 18:32

#	Modifying user name:	WinNT
#	Modification time:	15. 06. 2019 18:32

#	Program:	/corina/corina34_cracker 3.40 0067  02.08.2006

@<TRIPOS>MOLECULE
ASD00170597
  35   37    0    0    0
SMALL
NO_CHARGES


@<TRIPOS>ATOM
   1 C1            -0.0189     1.5017    -0.0095 C.2     
   2 C2             0.0012    -0.0051    -0.0204 C.3     
   3 O3             1.0230     2.1222    -0.0277 O.2     
   4 N4            -1.1948     2.1598     0.0149 N.am    
   5 C5            -0.7754     6.0101     0.0815 C.2     
   6 C6            -2.0807     5.7357    -0.0280 C.2     
   7 C7            -2.3453     4.3093    -0.0615 C.2     
   8 C8            -1.2133     3.5459     0.0249 C.2     
   9 S9             0.1695     4.5315     0.1464 S.3     
  10 C10           -3.1592     6.8044    -0.1077 C.3     
  11 C11           -2.5744     8.1316     0.3806 C.3     
  12 C12           -1.2573     8.4010    -0.3532 C.3     
  13 C13           -0.1991     7.4115     0.1466 C.3     
  14 C14           -3.6935     3.7420    -0.1763 C.2     
  15 O15           -4.3043     3.4147     0.8263 O.2     
  16 O16           -3.7835     3.9735    -2.6739 O.3     
  17 C17           -4.3066     3.5685    -1.4984 C.2     
  18 C18           -5.5065     2.9684    -1.7542 C.2     
  19 C19           -5.6972     3.0233    -3.1439 C.2     
  20 C20           -4.6192     3.6466    -3.6688 C.2     
  21 H21            1.0334    -0.3545    -0.0451 H       
  22 H22           -0.4883    -0.3815     0.8778 H       
  23 H23           -0.5268    -0.3691    -0.9017 H       
  24 H24           -2.0282     1.6636     0.0254 H       
  25 H25           -3.4935     6.9100    -1.1398 H       
  26 H26           -4.0012     6.5216     0.5242 H       
  27 H27           -3.2782     8.9378     0.1736 H       
  28 H28           -2.3889     8.0753     1.4532 H       
  29 H29           -1.4043     8.2721    -1.4255 H       
  30 H30           -0.9278     9.4198    -0.1489 H       
  31 H31            0.0742     7.6469     1.1752 H       
  32 H32            0.6824     7.4741    -0.4915 H       
  33 H33           -6.1783     2.5352    -1.0280 H       
  34 H34           -6.5458     2.6396    -3.6907 H       
  35 H35           -4.4578     3.8479    -4.7175 H       
@<TRIPOS>BOND
   1    1    2 1
   2    1    3 2
   3    1    4 am
   4    2   21 1
   5    2   22 1
   6    2   23 1
   7    4    8 1
   8    4   24 1
   9    5    6 2
  10    5    9 1
  11    5   13 1
  12    6    7 1
  13    6   10 1
  14    7    8 2
  15    7   14 1
  16    8    9 1
  17   10   11 1
  18   10   25 1
  19   10   26 1
  20   11   12 1
  21   11   27 1
  22   11   28 1
  23   12   13 1
  24   12   29 1
  25   12   30 1
  26   13   31 1
  27   13   32 1
  28   14   15 2
  29   14   17 1
  30   16   17 1
  31   16   20 1
  32   17   18 2
  33   18   19 1
  34   18   33 1
  35   19   20 2
  36   19   34 1
  37   20   35 1

#	End of record

