#	Name: ASD02408378
#	Creating user name:	WinNT
#	Creation time:	15. 06. 2019 20:21

#	Modifying user name:	WinNT
#	Modification time:	15. 06. 2019 20:21

#	Program:	/corina/corina34_cracker 3.40 0067  02.08.2006

@<TRIPOS>MOLECULE
ASD02408378
  22   23    0    0    0
SMALL
NO_CHARGES


@<TRIPOS>ATOM
   1 C1            -0.0006     0.5399     0.6554 C.2     
   2 C2             0.0259     1.3218    -0.5230 C.2     
   3 C3             1.2950     0.0753     0.8652 C.2     
   4 N4             2.0580     0.5580    -0.1415 N.pl3   
   5 N5             1.2457     1.3248    -0.9838 N.2     
   6 C6             3.4303     0.3292    -0.3120 C.ar    
   7 C7             3.9377    -0.9589    -0.2155 C.ar    
   8 C8             5.2918    -1.1815    -0.3847 C.ar    
   9 C9             6.1408    -0.1215    -0.6495 C.ar    
  10 C10            5.6381     1.1631    -0.7463 C.ar    
  11 C11            4.2848     1.3911    -0.5838 C.ar    
  12 N12            1.7211    -0.7270     1.9062 N.pl3   
  13 Cl13           3.6546     3.0040    -0.7061 Cl      
  14 Cl14           5.9275    -2.7924    -0.2641 Cl      
  15 C15           -1.1423     0.2805     1.4798 C.1     
  16 N16           -2.0481     0.0747     2.1339 N.1     
  17 H17           -0.8189     1.8290    -0.9651 H       
  18 H18            3.2756    -1.7866    -0.0081 H       
  19 H19            7.1983    -0.2976    -0.7806 H       
  20 H20            6.3033     1.9886    -0.9527 H       
  21 H21            1.0761    -1.0944     2.5307 H       
  22 H22            2.6651    -0.9230     2.0126 H       
@<TRIPOS>BOND
   1    1    2 1
   2    1    3 2
   3    1   15 1
   4    2    5 2
   5    2   17 1
   6    3    4 1
   7    3   12 1
   8    4    5 1
   9    4    6 1
  10    6    7 ar
  11    6   11 ar
  12    7    8 ar
  13    7   18 1
  14    8    9 ar
  15    8   14 1
  16    9   10 ar
  17    9   19 1
  18   10   11 ar
  19   10   20 1
  20   11   13 1
  21   12   21 1
  22   12   22 1
  23   15   16 3

#	End of record

