#	Name: ASD01150397
#	Creating user name:	WinNT
#	Creation time:	15. 06. 2019 19:04

#	Modifying user name:	WinNT
#	Modification time:	15. 06. 2019 19:04

#	Program:	/corina/corina34_cracker 3.40 0067  02.08.2006

@<TRIPOS>MOLECULE
ASD01150397
  50   52    0    0    0
SMALL
NO_CHARGES


@<TRIPOS>ATOM
   1 C1             0.3806     1.5257     0.7458 C.ar    
   2 C2             0.4561     0.1760     1.0298 C.ar    
   3 C3             1.2862    -0.6436     0.2890 C.ar    
   4 C4             2.0476    -0.1122    -0.7441 C.ar    
   5 C5             1.9738     1.2431    -1.0324 C.ar    
   6 C6             1.1393     2.0635    -0.2868 C.ar    
   7 N7             1.0620     3.4311    -0.5743 N.am    
   8 C8            -0.1427     4.0150    -0.7031 C.2     
   9 N9            -0.2507     5.3282    -0.9789 N.am    
  10 C10            0.8592     6.0799    -1.1309 C.2     
  11 C11            2.1742     5.4484    -0.9915 C.2     
  12 N12            2.2395     4.1744    -0.7182 N.2     
  13 O13            0.7695     7.2677    -1.3811 O.2     
  14 C14           -1.5743     5.9413    -1.1145 C.3     
  15 O15           -1.1494     3.3466    -0.5688 O.2     
  16 C16           -2.0356     6.4430     0.2296 C.ar    
  17 C17           -1.7341     7.7322     0.6269 C.ar    
  18 C18           -2.1572     8.1924     1.8598 C.ar    
  19 C19           -2.8822     7.3634     2.6953 C.ar    
  20 C20           -3.1845     6.0744     2.2977 C.ar    
  21 C21           -2.7651     5.6157     1.0630 C.ar    
  22 N22            2.8886    -0.9427    -1.4931 N.am    
  23 C23            2.5155    -2.2084    -1.7676 C.2     
  24 O24            1.4908    -2.6543    -1.2962 O.2     
  25 C25            3.3714    -3.0695    -2.6603 C.3     
  26 C26           -3.3427     7.8647     4.0399 C.3     
  27 C27           -4.8698     7.8050     4.1108 C.3     
  28 C28           -2.7462     6.9878     5.1427 C.3     
  29 H29           -0.2723     2.1629     1.3239 H       
  30 H30           -0.1346    -0.2395     1.8327 H       
  31 H31            1.3433    -1.6984     0.5138 H       
  32 H32            2.5651     1.6587    -1.8349 H       
  33 H33            3.0765     6.0302    -1.1093 H       
  34 H34           -1.5185     6.7754    -1.8139 H       
  35 H35           -2.2813     5.2006    -1.4880 H       
  36 H36           -1.1677     8.3799    -0.0259 H       
  37 H37           -1.9211     9.1994     2.1705 H       
  38 H38           -3.7507     5.4267     2.9506 H       
  39 H39           -3.0013     4.6087     0.7523 H       
  40 H40            3.7402    -0.6076    -1.8148 H       
  41 H41            4.3626    -3.1769    -2.2198 H       
  42 H42            2.9122    -4.0524    -2.7658 H       
  43 H43            3.4585    -2.6020    -3.6412 H       
  44 H44           -3.0126     8.8945     4.1762 H       
  45 H45           -5.2947     8.4298     3.3251 H       
  46 H46           -5.1999     6.7752     3.9745 H       
  47 H47           -5.2029     8.1676     5.0833 H       
  48 H48           -1.6582     7.0303     5.0922 H       
  49 H49           -3.0793     7.3504     6.1152 H       
  50 H50           -3.0763     5.9580     5.0064 H       
@<TRIPOS>BOND
   1    1    2 ar
   2    1    6 ar
   3    1   29 1
   4    2    3 ar
   5    2   30 1
   6    3    4 ar
   7    3   31 1
   8    4    5 ar
   9    4   22 1
  10    5    6 ar
  11    5   32 1
  12    6    7 1
  13    7    8 am
  14    7   12 1
  15    8    9 am
  16    8   15 2
  17    9   10 am
  18    9   14 1
  19   10   11 1
  20   10   13 2
  21   11   12 2
  22   11   33 1
  23   14   16 1
  24   14   34 1
  25   14   35 1
  26   16   17 ar
  27   16   21 ar
  28   17   18 ar
  29   17   36 1
  30   18   19 ar
  31   18   37 1
  32   19   20 ar
  33   19   26 1
  34   20   21 ar
  35   20   38 1
  36   21   39 1
  37   22   23 am
  38   22   40 1
  39   23   24 2
  40   23   25 1
  41   25   41 1
  42   25   42 1
  43   25   43 1
  44   26   27 1
  45   26   28 1
  46   26   44 1
  47   27   45 1
  48   27   46 1
  49   27   47 1
  50   28   48 1
  51   28   49 1
  52   28   50 1

#	End of record

