#	Name: ASD01900471
#	Creating user name:	WinNT
#	Creation time:	15. 06. 2019 19:52

#	Modifying user name:	WinNT
#	Modification time:	15. 06. 2019 19:52

#	Program:	/corina/corina34_cracker 3.40 0067  02.08.2006

@<TRIPOS>MOLECULE
ASD01900471
  50   53    0    0    0
SMALL
NO_CHARGES


@<TRIPOS>ATOM
   1 C1            -0.0149     1.3608    -0.2943 C.2     
   2 N2            -0.1033     0.0259    -0.3128 N.am    
   3 C3             1.1079    -0.5541    -0.1999 C.2     
   4 C4             2.1005     0.5867    -0.0953 C.3     
   5 N5             1.2538     1.7900    -0.1683 N.am    
   6 O6            -0.9731     2.1027    -0.3863 O.2     
   7 O7             1.3526    -1.7415    -0.1844 O.2     
   8 C8             1.7055     3.1826    -0.1150 C.3     
   9 C9             2.8444     0.5322     1.2405 C.3     
  10 C10            3.4543    -0.8584     1.4282 C.3     
  11 C11            3.9571     1.5823     1.2478 C.3     
  12 C12            1.8659     0.8182     2.3813 C.3     
  13 C13           -1.3093    -0.6831    -0.4340 C.ar    
  14 C14           -2.0213    -1.0423     0.7039 C.ar    
  15 C15           -3.2077    -1.7393     0.5845 C.ar    
  16 C16           -3.6886    -2.0809    -0.6735 C.ar    
  17 C17           -2.9760    -1.7213    -1.8103 C.ar    
  18 C18           -1.7926    -1.0199    -1.6905 C.ar    
  19 Cl19          -1.4194    -0.6156     2.2753 Cl      
  20 N20           -4.8894    -2.7870    -0.7950 N.pl3   
  21 C21           -6.2806    -4.4507    -2.1414 C.ar    
  22 C22           -5.9769    -5.2612    -3.2519 C.ar    
  23 C23           -6.9712    -6.0821    -3.7830 C.ar    
  24 C24           -8.2190    -6.0633    -3.1916 C.ar    
  25 C25           -8.4483    -5.2386    -2.0979 C.ar    
  26 N26           -7.5005    -4.4713    -1.6096 N.ar    
  27 N27           -4.1376    -4.0859    -2.6830 N.2     
  28 N28           -4.6654    -5.0282    -3.5717 N.pl3   
  29 C29           -5.0535    -3.7146    -1.8284 C.2     
  30 H30            2.8032     0.5611    -0.9281 H       
  31 H31            0.8583     3.8463    -0.2881 H       
  32 H32            2.1338     3.3884     0.8660 H       
  33 H33            2.4606     3.3494    -0.8832 H       
  34 H34            4.1515    -1.0621     0.6155 H       
  35 H35            3.9844    -0.8972     2.3799 H       
  36 H36            2.6616    -1.6065     1.4231 H       
  37 H37            3.5333     2.5623     1.0284 H       
  38 H38            4.4310     1.6028     2.2292 H       
  39 H39            4.6998     1.3300     0.4909 H       
  40 H40            1.0731     0.0701     2.3762 H       
  41 H41            2.3959     0.7794     3.3330 H       
  42 H42            1.4314     1.8088     2.2476 H       
  43 H43           -3.7612    -2.0190     1.4687 H       
  44 H44           -3.3497    -1.9868    -2.7882 H       
  45 H45           -1.2410    -0.7368    -2.5748 H       
  46 H46           -5.6086    -2.6332    -0.1626 H       
  47 H47           -6.7708    -6.7155    -4.6346 H       
  48 H48           -9.0122    -6.6863    -3.5776 H       
  49 H49           -9.4260    -5.2280    -1.6394 H       
  50 H50           -4.1792    -5.4524    -4.2960 H       
@<TRIPOS>BOND
   1    1    2 am
   2    1    5 am
   3    1    6 2
   4    2    3 am
   5    2   13 1
   6    3    4 1
   7    3    7 2
   8    4    5 1
   9    4    9 1
  10    4   30 1
  11    5    8 1
  12    8   31 1
  13    8   32 1
  14    8   33 1
  15    9   10 1
  16    9   12 1
  17    9   11 1
  18   10   34 1
  19   10   35 1
  20   10   36 1
  21   11   37 1
  22   11   38 1
  23   11   39 1
  24   12   40 1
  25   12   41 1
  26   12   42 1
  27   13   14 ar
  28   13   18 ar
  29   14   15 ar
  30   14   19 1
  31   15   16 ar
  32   15   43 1
  33   16   17 ar
  34   16   20 1
  35   17   18 ar
  36   17   44 1
  37   18   45 1
  38   20   29 1
  39   20   46 1
  40   21   22 ar
  41   21   26 ar
  42   21   29 1
  43   22   23 ar
  44   22   28 1
  45   23   24 ar
  46   23   47 1
  47   24   25 ar
  48   24   48 1
  49   25   26 ar
  50   25   49 1
  51   27   28 1
  52   27   29 2
  53   28   50 1

#	End of record

