#	Name: ASD05503049
#	Creating user name:	WinNT
#	Creation time:	15. 06. 2019 21:01

#	Modifying user name:	WinNT
#	Modification time:	15. 06. 2019 21:01

#	Program:	/corina/corina34_cracker 3.40 0067  02.08.2006

@<TRIPOS>MOLECULE
ASD05503049
  35   36    0    0    0
SMALL
NO_CHARGES


@<TRIPOS>ATOM
   1 O1            -0.0161     1.3385     0.0094 O.3     
   2 C2             1.2552     1.7766    -0.0004 C.2     
   3 C3             2.0566     0.6784    -0.0139 C.2     
   4 N4             1.2427    -0.4143    -0.0120 N.2     
   5 C5             0.0021    -0.0041     0.0020 C.2     
   6 C6             3.5303     0.6713    -0.0285 C.2     
   7 N7             4.1985    -0.4991    -0.0411 N.am    
   8 O8             4.1435     1.7216    -0.0291 O.2     
   9 C9             5.6634    -0.5062    -0.0555 C.3     
  10 C10            6.1663    -1.9511    -0.0679 C.3     
  11 C11            7.6962    -1.9585    -0.0830 C.3     
  12 N12           -1.1149    -0.8228     0.0087 N.am    
  13 C13           -2.3483    -0.2798     0.0233 C.2     
  14 C14           -3.5398    -1.1532     0.0305 C.ar    
  15 O15           -2.4804     0.9285     0.0307 O.2     
  16 C16           -3.3919    -2.5414     0.0221 C.ar    
  17 C17           -4.5086    -3.3511     0.0293 C.ar    
  18 C18           -5.7738    -2.7910     0.0443 C.ar    
  19 C19           -5.9289    -1.4165     0.0523 C.ar    
  20 C20           -4.8201    -0.5938     0.0515 C.ar    
  21 Br21          -5.0336     1.2851     0.0624 Br      
  22 H22            1.5788     2.8070     0.0015 H       
  23 H23            3.7094    -1.3368    -0.0406 H       
  24 H24            6.0204     0.0104    -0.9464 H       
  25 H25            6.0379     0.0013     0.8334 H       
  26 H26            5.8092    -2.4678     0.8229 H       
  27 H27            5.7917    -2.4586    -0.9569 H       
  28 H28            8.0708    -1.4511     0.8059 H       
  29 H29            8.0545    -2.9879    -0.0919 H       
  30 H30            8.0533    -1.4419    -0.9739 H       
  31 H31           -1.0095    -1.7870     0.0028 H       
  32 H32           -2.4052    -2.9804     0.0096 H       
  33 H33           -4.3951    -4.4251     0.0228 H       
  34 H34           -6.6444    -3.4301     0.0496 H       
  35 H35           -6.9193    -0.9859     0.0637 H       
@<TRIPOS>BOND
   1    1    5 1
   2    1    2 1
   3    2    3 2
   4    2   22 1
   5    3    4 1
   6    3    6 1
   7    4    5 2
   8    5   12 1
   9    6    7 am
  10    6    8 2
  11    7    9 1
  12    7   23 1
  13    9   10 1
  14    9   24 1
  15    9   25 1
  16   10   11 1
  17   10   26 1
  18   10   27 1
  19   11   28 1
  20   11   29 1
  21   11   30 1
  22   12   13 am
  23   12   31 1
  24   13   14 1
  25   13   15 2
  26   14   16 ar
  27   14   20 ar
  28   16   17 ar
  29   16   32 1
  30   17   18 ar
  31   17   33 1
  32   18   19 ar
  33   18   34 1
  34   19   20 ar
  35   19   35 1
  36   20   21 1

#	End of record

