#	Name: ASD03091444
#	Creating user name:	WinNT
#	Creation time:	15. 06. 2019 20:30

#	Modifying user name:	WinNT
#	Modification time:	15. 06. 2019 20:30

#	Program:	/corina/corina34_cracker 3.40 0067  02.08.2006

@<TRIPOS>MOLECULE
ASD03091444
  31   33    0    0    0
SMALL
NO_CHARGES


@<TRIPOS>ATOM
   1 C1             0.0611     1.7683    -0.0677 C.3     
   2 C2             0.0004     0.2421    -0.1583 C.3     
   3 N3             0.6344    -0.3456     1.0288 N.3     
   4 C4            -0.0735     0.0432     2.2552 C.3     
   5 C5            -0.0156     1.5634     2.4197 C.3     
   6 C6             1.4478     2.0073     2.5177 C.3     
   7 N7             2.1178     1.7096     1.2444 N.am    
   8 C8             1.5257     2.2145    -0.0018 C.3     
   9 C9            -0.6617     2.2298     1.2013 C.3     
  10 C10            3.2546     0.9861     1.2201 C.2     
  11 O11            3.8034     0.6810     2.2612 O.2     
  12 S12            4.0712     0.1816    -2.3784 S.3     
  13 N13            3.2003     0.7254    -1.2020 N.2     
  14 C14            3.8338     0.5640    -0.0713 C.2     
  15 C15            5.0919    -0.0318    -0.1601 C.2     
  16 C16            5.4128    -0.3315    -1.4367 C.2     
  17 H17           -0.4148     2.2055    -0.9456 H       
  18 H18           -1.0404    -0.0775    -0.2100 H       
  19 H19            0.5270    -0.0898    -1.0531 H       
  20 H20            0.6927    -1.3497     0.9479 H       
  21 H21           -1.1138    -0.2757     2.1907 H       
  22 H22            0.3995    -0.4331     3.1140 H       
  23 H23           -0.5468     1.8531     3.3263 H       
  24 H24            1.4924     3.0789     2.7124 H       
  25 H25            1.9406     1.4661     3.3253 H       
  26 H26            2.0698     1.8096    -0.8551 H       
  27 H27            1.5770     3.3032    -0.0160 H       
  28 H28           -0.5807     3.3130     1.2931 H       
  29 H29           -1.7126     1.9459     1.1455 H       
  30 H30            5.7308    -0.2287     0.6880 H       
  31 H31            6.3211    -0.7962    -1.7909 H       
@<TRIPOS>BOND
   1    1    2 1
   2    1    8 1
   3    1    9 1
   4    1   17 1
   5    2    3 1
   6    2   18 1
   7    2   19 1
   8    3    4 1
   9    3   20 1
  10    4    5 1
  11    4   21 1
  12    4   22 1
  13    5    6 1
  14    5    9 1
  15    5   23 1
  16    6    7 1
  17    6   24 1
  18    6   25 1
  19    7    8 1
  20    7   10 am
  21    8   26 1
  22    8   27 1
  23    9   28 1
  24    9   29 1
  25   10   11 2
  26   10   14 1
  27   12   13 1
  28   12   16 1
  29   13   14 2
  30   14   15 1
  31   15   16 2
  32   15   30 1
  33   16   31 1

#	End of record

