#	Name: ASD01816289
#	Creating user name:	WinNT
#	Creation time:	15. 06. 2019 19:34

#	Modifying user name:	WinNT
#	Modification time:	15. 06. 2019 19:34

#	Program:	/corina/corina34_cracker 3.40 0067  02.08.2006

@<TRIPOS>MOLECULE
ASD01816289
  56   62    0    0    0
SMALL
NO_CHARGES


@<TRIPOS>ATOM
   1 C1            -0.0167     1.3813     0.0096 C.ar    
   2 C2             0.0021    -0.0041     0.0020 C.ar    
   3 C3             1.1983    -0.6909    -0.0126 C.ar    
   4 C4             2.4015     0.0059    -0.0203 C.ar    
   5 C5             2.3790     1.4106    -0.0130 C.ar    
   6 C6             1.1662     2.0917     0.0022 C.ar    
   7 N7             3.6052    -0.6771    -0.0345 N.pl3   
   8 C8             4.7970    -0.0585    -0.0425 C.2     
   9 C9             4.8999     1.3103    -0.0370 C.2     
  10 C10            3.6669     2.1302    -0.0214 C.2     
  11 C11            5.9971     2.2731    -0.0437 C.2     
  12 N12            5.4245     3.4962    -0.0333 N.am    
  13 N13            4.0322     3.3800    -0.0200 N.2     
  14 O14            7.1910     2.0232    -0.0557 O.2     
  15 C15            3.5778    -2.1419    -0.0406 C.3     
  16 C16            3.5552    -2.6379    -1.4634 C.ar    
  17 C17            4.7429    -2.8874    -2.1262 C.ar    
  18 C18            4.7254    -3.3417    -3.4304 C.ar    
  19 C19            3.5137    -3.5483    -4.0758 C.ar    
  20 C20            2.3228    -3.2973    -3.4076 C.ar    
  21 C21            2.3467    -2.8481    -2.1017 C.ar    
  22 N22            3.4926    -4.0088    -5.3997 N.pl3   
  23 C23            2.3877    -4.2503    -6.1408 C.2     
  24 C24            2.7941    -4.6801    -7.3579 C.2     
  25 C25            4.1931    -4.7024    -7.3618 C.2     
  26 N26            4.6126    -4.2947    -6.1911 N.2     
  27 C27            6.1218     4.7006    -0.0345 C.ar    
  28 C28            7.0599     4.9819    -1.0139 C.ar    
  29 C29            7.7394     6.1934    -0.9882 C.ar    
  30 N30            7.5199     7.0909    -0.0564 N.ar    
  31 C31            6.6285     6.8861     0.9198 C.ar    
  32 C32            5.8906     5.6789     0.9613 C.ar    
  33 C33            6.4042     7.8576     1.9107 C.ar    
  34 C34            5.4907     7.6231     2.8923 C.ar    
  35 C35            4.7707     6.4316     2.9335 C.ar    
  36 C36            4.9573     5.4701     1.9862 C.ar    
  37 H37           -0.9602     1.9069     0.0169 H       
  38 H38           -0.9289    -0.5515     0.0079 H       
  39 H39            1.2003    -1.7709    -0.0177 H       
  40 H40            1.1505     3.1715     0.0074 H       
  41 H41            5.6982    -0.6535    -0.0531 H       
  42 H42            4.4656    -2.5240     0.4633 H       
  43 H43            2.6860    -2.4908     0.4801 H       
  44 H44            5.6852    -2.7266    -1.6236 H       
  45 H45            5.6534    -3.5357    -3.9477 H       
  46 H46            1.3787    -3.4567    -3.9073 H       
  47 H47            1.4207    -2.6527    -1.5814 H       
  48 H48            1.3645    -4.1235    -5.8190 H       
  49 H49            2.1520    -4.9570    -8.1809 H       
  50 H50            4.8191    -5.0004    -8.1899 H       
  51 H51            7.2624     4.2627    -1.7937 H       
  52 H52            8.4690     6.4023    -1.7566 H       
  53 H53            6.9548     8.7866     1.8934 H       
  54 H54            5.3220     8.3726     3.6514 H       
  55 H55            4.0519     6.2698     3.7232 H       
  56 H56            4.3931     4.5501     2.0279 H       
@<TRIPOS>BOND
   1    1    2 ar
   2    1    6 ar
   3    1   37 1
   4    2    3 ar
   5    2   38 1
   6    3    4 ar
   7    3   39 1
   8    4    5 ar
   9    4    7 1
  10    5    6 ar
  11    5   10 1
  12    6   40 1
  13    7    8 1
  14    7   15 1
  15    8    9 2
  16    8   41 1
  17    9   10 1
  18    9   11 1
  19   10   13 2
  20   11   12 am
  21   11   14 2
  22   12   13 1
  23   12   27 1
  24   15   16 1
  25   15   42 1
  26   15   43 1
  27   16   17 ar
  28   16   21 ar
  29   17   18 ar
  30   17   44 1
  31   18   19 ar
  32   18   45 1
  33   19   20 ar
  34   19   22 1
  35   20   21 ar
  36   20   46 1
  37   21   47 1
  38   22   23 1
  39   22   26 1
  40   23   24 2
  41   23   48 1
  42   24   25 1
  43   24   49 1
  44   25   26 2
  45   25   50 1
  46   27   28 ar
  47   27   32 ar
  48   28   29 ar
  49   28   51 1
  50   29   30 ar
  51   29   52 1
  52   30   31 ar
  53   31   32 ar
  54   31   33 ar
  55   32   36 ar
  56   33   34 ar
  57   33   53 1
  58   34   35 ar
  59   34   54 1
  60   35   36 ar
  61   35   55 1
  62   36   56 1

#	End of record

