#	Name: ASD01903297
#	Creating user name:	WinNT
#	Creation time:	15. 06. 2019 19:54

#	Modifying user name:	WinNT
#	Modification time:	15. 06. 2019 19:54

#	Program:	/corina/corina34_cracker 3.40 0067  02.08.2006

@<TRIPOS>MOLECULE
ASD01903297
  47   51    0    0    0
SMALL
NO_CHARGES


@<TRIPOS>ATOM
   1 C1             0.1191     1.1154    -1.1556 C.ar    
   2 C2             0.0572    -0.1120    -0.5150 C.ar    
   3 C3             1.2024    -0.6342     0.0652 C.ar    
   4 N4             2.3428     0.0187     0.0151 N.ar    
   5 C5             2.4449     1.1967    -0.5886 C.ar    
   6 C6             1.3343     1.7812    -1.1930 C.ar    
   7 C7             3.7505     1.8955    -0.6193 C.2     
   8 O8             3.8497     2.9741    -1.1706 O.2     
   9 N9             4.8286     1.3352    -0.0359 N.am    
  10 C10            6.0757     1.9540    -0.1341 C.ar    
  11 C11            6.1614     3.3166    -0.3292 C.ar    
  12 C12            7.3965     3.9482    -0.4286 C.ar    
  13 C13            8.5690     3.2289    -0.3353 C.ar    
  14 C14            8.5152     1.8369    -0.1363 C.ar    
  15 C15            7.2567     1.1914    -0.0288 C.ar    
  16 N16            9.8053     3.8786    -0.4432 N.am    
  17 C17           10.4907     4.3881     0.5962 C.2     
  18 C18           11.7405     4.9904     0.0864 C.ar    
  19 C19           11.7233     4.7916    -1.3091 C.ar    
  20 C20           10.4662     4.0700    -1.5992 C.2     
  21 O21           10.1408     4.3584     1.7588 O.2     
  22 O22           10.0893     3.7163    -2.6982 O.2     
  23 C23            9.6767     1.0513    -0.0329 C.ar    
  24 C24            9.5433    -0.2905     0.1600 C.ar    
  25 N25            8.3536    -0.8690     0.2519 N.ar    
  26 C26            7.2289    -0.1965     0.1697 C.ar    
  27 C27           12.8101     5.6448     0.6760 C.ar    
  28 C28           13.8563     6.0996    -0.1117 C.ar    
  29 C29           13.8391     5.9050    -1.4801 C.ar    
  30 C30           12.7758     5.2519    -2.0838 C.ar    
  31 C31           12.8358     5.8618     2.1670 C.3     
  32 H32           -0.7585     1.5414    -1.6191 H       
  33 H33           -0.8746    -0.6561    -0.4679 H       
  34 H34            1.1576    -1.5902     0.5655 H       
  35 H35            1.4190     2.7394    -1.6841 H       
  36 H36            4.7377     0.5019     0.4522 H       
  37 H37            5.2567     3.9014    -0.4061 H       
  38 H38            7.4377     5.0165    -0.5814 H       
  39 H39           10.6552     1.5027    -0.1053 H       
  40 H40           10.4312    -0.9002     0.2400 H       
  41 H41            6.2834    -0.7122     0.2505 H       
  42 H42           14.6904     6.6097     0.3469 H       
  43 H43           14.6599     6.2642    -2.0831 H       
  44 H44           12.7680     5.1021    -3.1533 H       
  45 H45           13.3245     5.0150     2.6490 H       
  46 H46           13.3864     6.7752     2.3919 H       
  47 H47           11.8151     5.9519     2.5387 H       
@<TRIPOS>BOND
   1    1    2 ar
   2    1    6 ar
   3    1   32 1
   4    2    3 ar
   5    2   33 1
   6    3    4 ar
   7    3   34 1
   8    4    5 ar
   9    5    6 ar
  10    5    7 1
  11    6   35 1
  12    7    8 2
  13    7    9 am
  14    9   10 1
  15    9   36 1
  16   10   11 ar
  17   10   15 ar
  18   11   12 ar
  19   11   37 1
  20   12   13 ar
  21   12   38 1
  22   13   14 ar
  23   13   16 1
  24   14   15 ar
  25   14   23 ar
  26   15   26 ar
  27   16   17 am
  28   16   20 am
  29   17   18 1
  30   17   21 2
  31   18   19 ar
  32   18   27 ar
  33   19   20 1
  34   19   30 ar
  35   20   22 2
  36   23   24 ar
  37   23   39 1
  38   24   25 ar
  39   24   40 1
  40   25   26 ar
  41   26   41 1
  42   27   28 ar
  43   27   31 1
  44   28   29 ar
  45   28   42 1
  46   29   30 ar
  47   29   43 1
  48   30   44 1
  49   31   45 1
  50   31   46 1
  51   31   47 1

#	End of record

