#	Name: ASD01510124
#	Creating user name:	WinNT
#	Creation time:	15. 06. 2019 19:21

#	Modifying user name:	WinNT
#	Modification time:	15. 06. 2019 19:21

#	Program:	/corina/corina34_cracker 3.40 0067  02.08.2006

@<TRIPOS>MOLECULE
ASD01510124
  20   21    0    0    0
SMALL
NO_CHARGES


@<TRIPOS>ATOM
   1 Cl1            0.0021    -0.0041     0.0020 Cl      
   2 C2            -0.0215     1.7317     0.0116 C.ar    
   3 N3             1.1228     2.3886     0.0042 N.ar    
   4 C4             1.1503     3.7126     0.0106 C.ar    
   5 C5            -0.0428     4.4124     0.0253 C.ar    
   6 C6            -1.2370     3.6868     0.0328 C.ar    
   7 N7            -1.1820     2.3566     0.0205 N.ar    
   8 C8            -2.5443     4.3869     0.0490 C.ar    
   9 C9            -3.7301     3.6544     0.0564 C.ar    
  10 C10           -4.9437     4.3112     0.0720 C.ar    
  11 C11           -4.9848     5.6939     0.0798 C.ar    
  12 C12           -3.8111     6.4260     0.0725 C.ar    
  13 C13           -2.5917     5.7798     0.0627 C.ar    
  14 H14            2.0929     4.2396     0.0048 H       
  15 H15           -0.0511     5.4924     0.0311 H       
  16 H16           -3.6993     2.5748     0.0496 H       
  17 H17           -5.8632     3.7447     0.0777 H       
  18 H18           -5.9368     6.2038     0.0913 H       
  19 H19           -3.8491     7.5053     0.0787 H       
  20 H20           -1.6760     6.3524     0.0574 H       
@<TRIPOS>BOND
   1    1    2 1
   2    2    3 ar
   3    2    7 ar
   4    3    4 ar
   5    4    5 ar
   6    4   14 1
   7    5    6 ar
   8    5   15 1
   9    6    7 ar
  10    6    8 1
  11    8    9 ar
  12    8   13 ar
  13    9   10 ar
  14    9   16 1
  15   10   11 ar
  16   10   17 1
  17   11   12 ar
  18   11   18 1
  19   12   13 ar
  20   12   19 1
  21   13   20 1

#	End of record

