#	Name: ASD09750012
#	Creating user name:	WinNT
#	Creation time:	15. 06. 2019 21:23

#	Modifying user name:	WinNT
#	Modification time:	15. 06. 2019 21:23

#	Program:	/corina/corina34_cracker 3.40 0067  02.08.2006

@<TRIPOS>MOLECULE
ASD09750012
  70   73    0    0    0
SMALL
NO_CHARGES


@<TRIPOS>ATOM
   1 C1            -0.0167     1.3781     0.0096 C.ar    
   2 C2             0.0021    -0.0041     0.0020 C.ar    
   3 C3            -1.1855    -0.7115     0.0095 C.ar    
   4 C4            -2.3919    -0.0367     0.0251 C.ar    
   5 C5            -2.4106     1.3455     0.0336 C.ar    
   6 C6            -1.2230     2.0529     0.0305 C.ar    
   7 C7             1.2780     2.1493     0.0014 C.3     
   8 C8             1.7024     2.4181    -1.4438 C.3     
   9 C9             3.0169     3.2010    -1.4521 C.3     
  10 S10           -3.9057    -0.9383     0.0334 S.o2    
  11 O11           -4.8949    -0.0665    -0.4962 O.2     
  12 O12           -3.6160    -2.2139    -0.5218 O.2     
  13 O13           -4.2792    -1.1781     1.4893 O.3     
  14 C14           -4.7637    -0.0788     2.1238 C.ar    
  15 C15           -6.1355     0.1888     2.1141 C.ar    
  16 C16           -6.6230     1.3182     2.7673 C.ar    
  17 C17           -5.7513     2.1664     3.4198 C.ar    
  18 C18           -4.3936     1.8991     3.4273 C.ar    
  19 C19           -3.9002     0.7779     2.7875 C.ar    
  20 C20           -7.0683    -0.7259     1.4108 C.2     
  21 N21           -6.7358    -1.8204     0.7595 N.2     
  22 N22           -7.9057    -2.3924     0.2436 N.pl3   
  23 C23           -8.9484    -1.6130     0.6022 C.2     
  24 C24           -8.4668    -0.5798     1.3272 C.2     
  25 C25           -7.9843    -3.6226    -0.5480 C.3     
  26 C26           -8.1701    -4.8196     0.3867 C.3     
  27 C27          -10.7600    -1.0684    -1.0011 C.3     
  28 C28          -10.3955    -1.8560     0.2589 C.3     
  29 N29           -8.2490    -6.0531    -0.4071 N.4     
  30 C30           -8.3069    -7.2103     0.4941 C.3     
  31 C31           -8.4707    -8.4921    -0.3253 C.3     
  32 C32           -7.2777    -8.6411    -1.2739 C.3     
  33 C33           -7.1829    -7.3947    -2.1586 C.3     
  34 C34           -7.0668    -6.1535    -1.2712 C.3     
  35 H35            0.9446    -0.5313    -0.0101 H       
  36 H36           -1.1709    -1.7913     0.0029 H       
  37 H37           -3.3531     1.8728     0.0454 H       
  38 H38           -1.2376     3.1328     0.0372 H       
  39 H39            1.1397     3.0971     0.5217 H       
  40 H40            2.0505     1.5679     0.5048 H       
  41 H41            1.8407     1.4703    -1.9641 H       
  42 H42            0.9300     2.9995    -1.9472 H       
  43 H43            2.8785     4.1488    -0.9319 H       
  44 H44            3.7893     2.6196    -0.9488 H       
  45 H45            3.3192     3.3925    -2.4817 H       
  46 H46           -7.6819     1.5303     2.7629 H       
  47 H47           -6.1301     3.0420     3.9260 H       
  48 H48           -3.7170     2.5674     3.9392 H       
  49 H49           -2.8396     0.5744     2.7967 H       
  50 H50           -9.0498     0.2195     1.7604 H       
  51 H51           -8.8307    -3.5610    -1.2321 H       
  52 H52           -7.0641    -3.7468    -1.1188 H       
  53 H53           -7.3238    -4.8812     1.0708 H       
  54 H54           -9.0904    -4.6954     0.9575 H       
  55 H55          -10.6026    -0.0046    -0.8229 H       
  56 H56          -10.1304    -1.3952    -1.8287 H       
  57 H57          -11.8067    -1.2442    -1.2494 H       
  58 H58          -10.5530    -2.9197     0.0807 H       
  59 H59          -11.0251    -1.5292     1.0865 H       
  60 H60           -9.0801    -6.0314    -0.9788 H       
  61 H61           -7.3854    -7.2653     1.0737 H       
  62 H62           -9.1546    -7.1013     1.1707 H       
  63 H63           -8.5117    -9.3502     0.3455 H       
  64 H64           -9.3922    -8.4382    -0.9051 H       
  65 H65           -6.3613    -8.7464    -0.6932 H       
  66 H66           -7.4174    -9.5225    -1.8996 H       
  67 H67           -6.3033    -7.4684    -2.7982 H       
  68 H68           -8.0776    -7.3180    -2.7765 H       
  69 H69           -6.9989    -5.2644    -1.8980 H       
  70 H70           -6.1717    -6.2311    -0.6541 H       
@<TRIPOS>BOND
   1    1    2 ar
   2    1    7 1
   3    1    6 ar
   4    2    3 ar
   5    2   35 1
   6    3    4 ar
   7    3   36 1
   8    4    5 ar
   9    4   10 1
  10    5    6 ar
  11    5   37 1
  12    6   38 1
  13    7    8 1
  14    7   39 1
  15    7   40 1
  16    8    9 1
  17    8   41 1
  18    8   42 1
  19    9   43 1
  20    9   44 1
  21    9   45 1
  22   10   11 2
  23   10   12 2
  24   10   13 1
  25   13   14 1
  26   14   15 ar
  27   14   19 ar
  28   15   16 ar
  29   15   20 1
  30   16   17 ar
  31   16   46 1
  32   17   18 ar
  33   17   47 1
  34   18   19 ar
  35   18   48 1
  36   19   49 1
  37   20   21 2
  38   20   24 1
  39   21   22 1
  40   22   23 1
  41   22   25 1
  42   23   24 2
  43   23   28 1
  44   24   50 1
  45   25   26 1
  46   25   51 1
  47   25   52 1
  48   26   29 1
  49   26   53 1
  50   26   54 1
  51   27   28 1
  52   27   55 1
  53   27   56 1
  54   27   57 1
  55   28   58 1
  56   28   59 1
  57   29   30 1
  58   29   34 1
  59   29   60 1
  60   30   31 1
  61   30   61 1
  62   30   62 1
  63   31   32 1
  64   31   63 1
  65   31   64 1
  66   32   33 1
  67   32   65 1
  68   32   66 1
  69   33   34 1
  70   33   67 1
  71   33   68 1
  72   34   69 1
  73   34   70 1

#	End of record

