#	Name: ASD01912438
#	Creating user name:	WinNT
#	Creation time:	15. 06. 2019 19:59

#	Modifying user name:	WinNT
#	Modification time:	15. 06. 2019 19:59

#	Program:	/corina/corina34_cracker 3.40 0067  02.08.2006

@<TRIPOS>MOLECULE
ASD01912438
  46   48    0    0    0
SMALL
NO_CHARGES


@<TRIPOS>ATOM
   1 C1            -0.0162     1.3521    -0.2102 C.ar    
   2 C2             1.1673     2.0776    -0.3044 C.ar    
   3 C3             2.3709     1.4324    -0.0858 C.ar    
   4 C4             2.3507     0.0780     0.2210 C.ar    
   5 C5             1.1398    -0.5797     0.2982 C.ar    
   6 N6             0.0063     0.0616     0.0846 N.ar    
   7 N7             1.1411     3.3982    -0.6067 N.pl3   
   8 O8             2.1830     4.0019    -0.7896 O.2     
   9 O9             0.0755     3.9816    -0.6955 O.2     
  10 N10           -1.2334     1.9892    -0.4218 N.3     
  11 C11           -2.2723     1.4502     0.4691 C.3     
  12 C12           -3.5673     2.1844     0.1975 C.2     
  13 C13           -4.0314     2.2989    -1.2393 C.3     
  14 C14           -2.8506     2.7933    -2.0841 C.3     
  15 C15           -1.6398     1.8931    -1.8291 C.3     
  16 C16           -4.2778     2.7138     1.1925 C.2     
  17 C17           -3.8189     2.5924     2.5435 C.1     
  18 C18           -3.4427     2.4928     3.6511 C.1     
  19 C19           -2.9838     2.3714     5.0022 C.ar    
  20 C20           -3.7331     2.9287     6.0425 C.ar    
  21 C21           -3.2759     2.8024     7.3413 C.ar    
  22 C22           -2.0846     2.1238     7.5625 C.ar    
  23 C23           -1.3927     1.5966     6.4873 C.ar    
  24 N24           -1.8505     1.7246     5.2590 N.ar    
  25 C25           -0.0998     0.8599     6.7252 C.3     
  26 C26            1.1116    -2.0493     0.6307 C.3     
  27 H27            3.3054     1.9696    -0.1524 H       
  28 H28            3.2733    -0.4551     0.3970 H       
  29 H29           -2.4066     0.3864     0.2733 H       
  30 H30           -1.9776     1.5998     1.5078 H       
  31 H31           -4.3585     1.3234    -1.5992 H       
  32 H32           -4.8543     3.0107    -1.3046 H       
  33 H33           -3.1171     2.7551    -3.1403 H       
  34 H34           -2.6074     3.8187    -1.8055 H       
  35 H35           -0.8138     2.2080    -2.4668 H       
  36 H36           -1.9011     0.8606    -2.0608 H       
  37 H37           -5.1999     3.2345     0.9801 H       
  38 H38           -4.6556     3.4505     5.8347 H       
  39 H39           -3.8328     3.2227     8.1656 H       
  40 H40           -1.7015     2.0091     8.5657 H       
  41 H41           -0.3080    -0.1988     6.8800 H       
  42 H42            0.5511     0.9793     5.8591 H       
  43 H43            0.3927     1.2663     7.6086 H       
  44 H44            1.0450    -2.1762     1.7112 H       
  45 H45            0.2463    -2.5126     0.1564 H       
  46 H46            2.0230    -2.5222     0.2648 H       
@<TRIPOS>BOND
   1    1    2 ar
   2    1    6 ar
   3    1   10 1
   4    2    3 ar
   5    2    7 1
   6    3    4 ar
   7    3   27 1
   8    4    5 ar
   9    4   28 1
  10    5    6 ar
  11    5   26 1
  12    7    8 2
  13    7    9 2
  14   10   11 1
  15   10   15 1
  16   11   12 1
  17   11   29 1
  18   11   30 1
  19   12   13 1
  20   12   16 2
  21   13   14 1
  22   13   31 1
  23   13   32 1
  24   14   15 1
  25   14   33 1
  26   14   34 1
  27   15   35 1
  28   15   36 1
  29   16   17 1
  30   16   37 1
  31   17   18 3
  32   18   19 1
  33   19   20 ar
  34   19   24 ar
  35   20   21 ar
  36   20   38 1
  37   21   22 ar
  38   21   39 1
  39   22   23 ar
  40   22   40 1
  41   23   24 ar
  42   23   25 1
  43   25   41 1
  44   25   42 1
  45   25   43 1
  46   26   44 1
  47   26   45 1
  48   26   46 1

#	End of record

