#	Name: ASD01120339
#	Creating user name:	WinNT
#	Creation time:	15. 06. 2019 18:59

#	Modifying user name:	WinNT
#	Modification time:	15. 06. 2019 18:59

#	Program:	/corina/corina34_cracker 3.40 0067  02.08.2006

@<TRIPOS>MOLECULE
ASD01120339
  31   31    0    0    0
SMALL
NO_CHARGES


@<TRIPOS>ATOM
   1 C1             0.2076     1.5065    -0.1243 C.3     
   2 C2             0.2446    -0.0230    -0.1360 C.3     
   3 O3             0.8957    -0.4928     1.0461 O.3     
   4 C4             1.0119    -1.8293     1.1914 C.2     
   5 O5             0.5718    -2.5746     0.3367 O.2     
   6 C6             1.6471    -2.3649     2.3405 C.2     
   7 N7             2.1190    -1.5657     3.2571 N.2     
   8 N8             2.7466    -2.0949     4.3924 N.pl3   
   9 C9             3.2517    -1.2394     5.3735 C.ar    
  10 C10            3.2329     0.1357     5.1749 C.ar    
  11 C11            3.7333     0.9791     6.1472 C.ar    
  12 C12            4.2531     0.4563     7.3180 C.ar    
  13 C13            4.2736    -0.9130     7.5186 C.ar    
  14 C14            3.7692    -1.7612     6.5532 C.ar    
  15 N15            3.7912    -3.2255     6.7687 N.pl3   
  16 O16            2.8610    -3.9116     6.3847 O.2     
  17 O17            4.7396    -3.7443     7.3300 O.2     
  18 Br18           4.9373     1.6149     8.6467 Br      
  19 C19            1.7769    -3.8575     2.5029 C.3     
  20 H20            1.2258     1.8943    -0.0918 H       
  21 H21           -0.2890     1.8649    -1.0260 H       
  22 H22           -0.3402     1.8500     0.7532 H       
  23 H23           -0.7736    -0.4108    -0.1686 H       
  24 H24            0.7924    -0.3665    -1.0135 H       
  25 H25            2.8301    -3.0556     4.4969 H       
  26 H26            2.8277     0.5444     4.2611 H       
  27 H27            3.7193     2.0480     5.9933 H       
  28 H28            4.6806    -1.3181     8.4333 H       
  29 H29            2.7123    -4.1918     2.0542 H       
  30 H30            1.7722    -4.1094     3.5634 H       
  31 H31            0.9401    -4.3509     2.0085 H       
@<TRIPOS>BOND
   1    1    2 1
   2    1   20 1
   3    1   21 1
   4    1   22 1
   5    2    3 1
   6    2   23 1
   7    2   24 1
   8    3    4 1
   9    4    5 2
  10    4    6 1
  11    6    7 2
  12    6   19 1
  13    7    8 1
  14    8    9 1
  15    8   25 1
  16    9   10 ar
  17    9   14 ar
  18   10   11 ar
  19   10   26 1
  20   11   12 ar
  21   11   27 1
  22   12   13 ar
  23   12   18 1
  24   13   14 ar
  25   13   28 1
  26   14   15 1
  27   15   16 2
  28   15   17 2
  29   19   29 1
  30   19   30 1
  31   19   31 1

#	End of record

