#	Name: ASD01140180
#	Creating user name:	WinNT
#	Creation time:	15. 06. 2019 19:00

#	Modifying user name:	WinNT
#	Modification time:	15. 06. 2019 19:00

#	Program:	/corina/corina34_cracker 3.40 0067  02.08.2006

@<TRIPOS>MOLECULE
ASD01140180
  49   52    0    0    0
SMALL
NO_CHARGES


@<TRIPOS>ATOM
   1 C1             0.0180    -1.1779    -0.0044 C.1     
   2 C2             0.0021    -0.0041     0.0020 C.1     
   3 C3            -0.0173     1.4278     0.0099 C.ar    
   4 C4             1.1828     2.1433     0.0023 C.ar    
   5 C5             1.1592     3.5197    -0.0018 C.ar    
   6 C6            -0.0506     4.2087     0.0014 C.ar    
   7 C7            -1.2588     3.5072     0.0319 C.ar    
   8 C8            -1.2295     2.1065     0.0193 C.ar    
   9 C9            -2.5688     4.1639     0.1025 C.2     
  10 N10           -2.9629     5.2087    -0.5351 N.2     
  11 C11           -2.0942     5.9025    -1.4929 C.3     
  12 C12           -0.8816     6.3888    -0.7424 C.2     
  13 N13           -0.0106     5.6044    -0.0602 N.pl3   
  14 C14            0.9088     6.4216     0.5217 C.2     
  15 N15            0.6510     7.6532     0.1837 N.2     
  16 C16           -1.0705     8.8655    -1.2141 C.2     
  17 O17           -2.0615     8.7506    -1.9085 O.2     
  18 O18           -0.5369    10.0842    -0.9975 O.3     
  19 C19           -1.1981    11.2144    -1.6250 C.3     
  20 C20           -0.4547    12.5030    -1.2677 C.3     
  21 C21            0.9491    12.4671    -1.8751 C.3     
  22 C22           -1.2207    13.7048    -1.8243 C.3     
  23 C23           -3.5581     3.5481     1.0198 C.ar    
  24 C24           -4.8264     4.1099     1.1456 C.ar    
  25 C25           -5.7400     3.5235     2.0064 C.ar    
  26 C26           -5.3534     2.3945     2.7123 C.ar    
  27 C27           -4.0758     1.8894     2.5382 C.ar    
  28 N28           -3.2295     2.4632     1.7098 N.ar    
  29 C29           -0.4533     7.6740    -0.6099 C.2     
  30 H30            0.0322    -2.2278    -0.0102 H       
  31 H31            2.1264     1.6180    -0.0001 H       
  32 H32            2.0882     4.0704    -0.0071 H       
  33 H33           -2.1554     1.5506     0.0210 H       
  34 H34           -1.7894     5.2141    -2.2812 H       
  35 H35           -2.6250     6.7501    -1.9264 H       
  36 H36            1.7194     6.1017     1.1597 H       
  37 H37           -1.1960    11.0817    -2.7069 H       
  38 H38           -2.2264    11.2774    -1.2688 H       
  39 H39           -0.3795    12.5904    -0.1838 H       
  40 H40            0.8739    12.3797    -2.9589 H       
  41 H41            1.4787    13.3851    -1.6205 H       
  42 H42            1.4948    11.6109    -1.4785 H       
  43 H43           -2.2208    13.7304    -1.3916 H       
  44 H44           -0.6911    14.6228    -1.5697 H       
  45 H45           -1.2959    13.6174    -2.9082 H       
  46 H46           -5.0937     4.9905     0.5803 H       
  47 H47           -6.7307     3.9367     2.1251 H       
  48 H48           -6.0418     1.9138     3.3916 H       
  49 H49           -3.7712     1.0104     3.0868 H       
@<TRIPOS>BOND
   1    1    2 3
   2    1   30 1
   3    2    3 1
   4    3    4 ar
   5    3    8 ar
   6    4    5 ar
   7    4   31 1
   8    5    6 ar
   9    5   32 1
  10    6    7 ar
  11    6   13 1
  12    7    8 ar
  13    7    9 1
  14    8   33 1
  15    9   10 2
  16    9   23 1
  17   10   11 1
  18   11   12 1
  19   11   34 1
  20   11   35 1
  21   12   13 1
  22   12   29 2
  23   13   14 1
  24   14   15 2
  25   14   36 1
  26   15   29 1
  27   16   17 2
  28   16   18 1
  29   16   29 1
  30   18   19 1
  31   19   20 1
  32   19   37 1
  33   19   38 1
  34   20   21 1
  35   20   22 1
  36   20   39 1
  37   21   40 1
  38   21   41 1
  39   21   42 1
  40   22   43 1
  41   22   44 1
  42   22   45 1
  43   23   24 ar
  44   23   28 ar
  45   24   25 ar
  46   24   46 1
  47   25   26 ar
  48   25   47 1
  49   26   27 ar
  50   26   48 1
  51   27   28 ar
  52   27   49 1

#	End of record

