#	Name: ASD02038759
#	Creating user name:	WinNT
#	Creation time:	15. 06. 2019 20:17

#	Modifying user name:	WinNT
#	Modification time:	15. 06. 2019 20:17

#	Program:	/corina/corina34_cracker 3.40 0067  02.08.2006

@<TRIPOS>MOLECULE
ASD02038759
  43   45    0    0    0
SMALL
NO_CHARGES


@<TRIPOS>ATOM
   1 C1             1.3106    -0.8013    -0.4478 C.2     
   2 C2             0.0619    -0.0234    -0.2988 C.2     
   3 N3            -1.1174    -0.6615    -0.1623 N.am    
   4 C4            -1.1750    -2.1223    -0.2573 C.3     
   5 C5            -1.1407    -2.7175     1.1267 C.ar    
   6 C6            -2.3415     0.1056     0.0811 C.3     
   7 O7             0.0989     1.1916    -0.2995 O.2     
   8 N8             2.5494    -0.2927    -0.5784 N.2     
   9 C9             3.3750    -1.3027    -0.6831 C.2     
  10 N10            2.6469    -2.4327    -0.6171 N.pl3   
  11 N11            1.4074    -2.1125    -0.4702 N.2     
  12 C12           -2.3189    -3.0738     1.7543 C.ar    
  13 C13            0.0700    -2.9118     1.7651 C.ar    
  14 C14            0.1049    -3.4577     3.0352 C.ar    
  15 C15           -1.0705    -3.8104     3.6691 C.ar    
  16 C16           -2.2866    -3.6216     3.0282 C.ar    
  17 C17           -2.1717     0.9539     1.3452 C.3     
  18 C18           -3.4244     1.8104     1.5476 C.3     
  19 O19           -3.6351     2.6244     0.3921 O.3     
  20 C20           -3.8472     1.8846    -0.8120 C.3     
  21 C21           -2.6115     1.0311    -1.1092 C.3     
  22 O22           -3.4445    -3.9674     3.6500 O.3     
  23 C23           -3.3357    -4.5199     4.9634 C.3     
  24 F24           -2.7169    -3.5933     5.8093 F       
  25 F25           -4.6127    -4.8170     5.4516 F       
  26 F26           -2.5711    -5.6905     4.9149 F       
  27 H27           -2.0976    -2.4178    -0.7571 H       
  28 H28           -0.3203    -2.4832    -0.8294 H       
  29 H29           -3.1805    -0.5781     0.2108 H       
  30 H30            4.4467    -1.2407    -0.8013 H       
  31 H31            2.9967    -3.3360    -0.6676 H       
  32 H32           -3.2643    -2.9256     1.2535 H       
  33 H33            0.9902    -2.6370     1.2710 H       
  34 H34            1.0520    -3.6088     3.5317 H       
  35 H35           -1.0427    -4.2368     4.6610 H       
  36 H36           -2.0342     0.3005     2.2067 H       
  37 H37           -1.3017     1.6013     1.2353 H       
  38 H38           -4.2877     1.1621     1.6978 H       
  39 H39           -3.2917     2.4477     2.4218 H       
  40 H40           -4.7160     1.2372    -0.6926 H       
  41 H41           -4.0190     2.5753    -1.6375 H       
  42 H42           -1.7503     1.6800    -1.2687 H       
  43 H43           -2.7884     0.4328    -2.0030 H       
@<TRIPOS>BOND
   1    1    2 1
   2    1    8 1
   3    1   11 2
   4    2    3 am
   5    2    7 2
   6    3    4 1
   7    3    6 1
   8    4    5 1
   9    4   27 1
  10    4   28 1
  11    5   12 ar
  12    5   13 ar
  13    6   17 1
  14    6   21 1
  15    6   29 1
  16    8    9 2
  17    9   10 1
  18    9   30 1
  19   10   11 1
  20   10   31 1
  21   12   16 ar
  22   12   32 1
  23   13   14 ar
  24   13   33 1
  25   14   15 ar
  26   14   34 1
  27   15   16 ar
  28   15   35 1
  29   16   22 1
  30   17   18 1
  31   17   36 1
  32   17   37 1
  33   18   19 1
  34   18   38 1
  35   18   39 1
  36   19   20 1
  37   20   21 1
  38   20   40 1
  39   20   41 1
  40   21   42 1
  41   21   43 1
  42   22   23 1
  43   23   24 1
  44   23   25 1
  45   23   26 1

#	End of record

