#	Name: ASD01900003
#	Creating user name:	WinNT
#	Creation time:	15. 06. 2019 19:51

#	Modifying user name:	WinNT
#	Modification time:	15. 06. 2019 19:51

#	Program:	/corina/corina34_cracker 3.40 0067  02.08.2006

@<TRIPOS>MOLECULE
ASD01900003
  47   50    0    0    0
SMALL
NO_CHARGES


@<TRIPOS>ATOM
   1 N1             0.4913     1.7482    -0.5651 N.ar    
   2 C2             0.3669     0.4414    -0.4132 C.ar    
   3 N3             1.4024    -0.3653    -0.3347 N.ar    
   4 C4             2.6433     0.1125    -0.4071 C.ar    
   5 C5             2.8290     1.4992    -0.5695 C.ar    
   6 C6             1.6874     2.3204    -0.6477 C.ar    
   7 N7             1.8085     3.6870    -0.8063 N.3     
   8 N8             3.8900    -0.4438    -0.3612 N.pl3   
   9 N9             4.8328     0.5836    -0.4932 N.2     
  10 C10            4.2215     1.7276    -0.6160 C.2     
  11 C11            4.1761    -1.8062    -0.2078 C.ar    
  12 C12            3.5068    -2.7486    -0.9771 C.ar    
  13 C13            3.7912    -4.0915    -0.8234 C.ar    
  14 C14            4.7409    -4.4978     0.0957 C.ar    
  15 C15            5.4090    -3.5616     0.8638 C.ar    
  16 C16            5.1340    -2.2171     0.7102 C.ar    
  17 C17            5.8624    -1.1977     1.5476 C.3     
  18 C18            5.0483    -5.9638     0.2611 C.3     
  19 C19            0.4891     4.3293    -0.8614 C.3     
  20 C20            0.6612     5.8496    -0.8907 C.3     
  21 C21            1.4916     6.2409    -2.1162 C.3     
  22 C22            2.8418     5.5209    -2.0591 C.3     
  23 C23            2.6064     4.0100    -1.9959 C.3     
  24 C24           -0.7129     6.5178    -0.9703 C.3     
  25 F25           -1.4726     6.1564     0.1474 F       
  26 F26           -0.5547     7.9076    -0.9970 F       
  27 F27           -1.3677     6.1005    -2.1340 F       
  28 H28           -0.6251     0.0190    -0.3507 H       
  29 H29            4.6996     2.6889    -0.7339 H       
  30 H30            2.7643    -2.4319    -1.6947 H       
  31 H31            3.2709    -4.8250    -1.4215 H       
  32 H32            6.1500    -3.8821     1.5812 H       
  33 H33            6.7164    -0.8129     0.9902 H       
  34 H34            5.1871    -0.3771     1.7899 H       
  35 H35            6.2105    -1.6657     2.4684 H       
  36 H36            5.8510    -6.2458    -0.4202 H       
  37 H37            5.3590    -6.1562     1.2880 H       
  38 H38            4.1573    -6.5496     0.0353 H       
  39 H39           -0.0351     4.0057    -1.7607 H       
  40 H40           -0.0897     4.0462     0.0178 H       
  41 H41            1.1731     6.1754     0.0148 H       
  42 H42            0.9618     5.9499    -3.0233 H       
  43 H43            1.6534     7.3188    -2.1176 H       
  44 H44            3.4208     5.7620    -2.9506 H       
  45 H45            3.3879     5.8415    -1.1720 H       
  46 H46            3.5655     3.4950    -1.9408 H       
  47 H47            2.0724     3.6880    -2.8899 H       
@<TRIPOS>BOND
   1    1    2 ar
   2    1    6 ar
   3    2    3 ar
   4    2   28 1
   5    3    4 ar
   6    4    5 ar
   7    4    8 1
   8    5    6 ar
   9    5   10 1
  10    6    7 1
  11    7   19 1
  12    7   23 1
  13    8    9 1
  14    8   11 1
  15    9   10 2
  16   10   29 1
  17   11   12 ar
  18   11   16 ar
  19   12   13 ar
  20   12   30 1
  21   13   14 ar
  22   13   31 1
  23   14   15 ar
  24   14   18 1
  25   15   16 ar
  26   15   32 1
  27   16   17 1
  28   17   33 1
  29   17   34 1
  30   17   35 1
  31   18   36 1
  32   18   37 1
  33   18   38 1
  34   19   20 1
  35   19   39 1
  36   19   40 1
  37   20   21 1
  38   20   24 1
  39   20   41 1
  40   21   22 1
  41   21   42 1
  42   21   43 1
  43   22   23 1
  44   22   44 1
  45   22   45 1
  46   23   46 1
  47   23   47 1
  48   24   25 1
  49   24   26 1
  50   24   27 1

#	End of record

