#	Name: ASD01900192
#	Creating user name:	WinNT
#	Creation time:	15. 06. 2019 19:51

#	Modifying user name:	WinNT
#	Modification time:	15. 06. 2019 19:51

#	Program:	/corina/corina34_cracker 3.40 0067  02.08.2006

@<TRIPOS>MOLECULE
ASD01900192
  33   36    0    0    0
SMALL
NO_CHARGES


@<TRIPOS>ATOM
   1 N1            -0.0167     1.3829     0.0096 N.pl3   
   2 S2            -1.2934    -1.1092     0.1225 S.3     
   3 C3             0.0703    -0.0014    -0.0081 C.2     
   4 N4             1.1697    -0.6828    -0.1240 N.2     
   5 C5             1.0648    -1.9999    -0.1382 C.2     
   6 C6             2.1447    -3.0082    -0.4029 C.2     
   7 C7             1.8834    -4.0986    -1.2576 C.2     
   8 C8             0.6068    -4.2429    -2.0286 C.3     
   9 C9            -0.5706    -4.6972    -1.1486 C.3     
  10 C10           -0.5100    -3.9306     0.1819 C.3     
  11 C11           -0.1930    -2.4755     0.0345 C.2     
  12 N12            2.9425    -4.8550    -1.2585 N.2     
  13 N13            3.9214    -4.2500    -0.4538 N.pl3   
  14 C14            3.4043    -3.1035     0.0538 C.2     
  15 C15            1.1422     2.1529     0.0091 C.ar    
  16 C16            1.0494     3.5375    -0.0856 C.ar    
  17 C17            2.2093     4.2917    -0.0851 C.ar    
  18 C18            3.4278     3.6337     0.0105 C.ar    
  19 C19            3.4468     2.2546     0.1017 C.ar    
  20 N20            2.3230     1.5612     0.1042 N.ar    
  21 Cl21           4.9666     1.4243     0.2216 Cl      
  22 H22           -0.8856     1.8141     0.0184 H       
  23 H23            0.3582    -3.2827    -2.4807 H       
  24 H24            0.7559    -4.9750    -2.8223 H       
  25 H25           -1.5112    -4.4791    -1.6544 H       
  26 H26           -0.4937    -5.7677    -0.9583 H       
  27 H27           -1.4738    -4.0268     0.6819 H       
  28 H28            0.2515    -4.3895     0.8124 H       
  29 H29            4.8135    -4.5932    -0.2888 H       
  30 H30            3.9088    -2.4014     0.7010 H       
  31 H31            0.0847     4.0175    -0.1590 H       
  32 H32            2.1676     5.3685    -0.1578 H       
  33 H33            4.3514     4.1934     0.0133 H       
@<TRIPOS>BOND
   1    1    3 1
   2    1   15 1
   3    1   22 1
   4    2    3 1
   5    2   11 1
   6    3    4 2
   7    4    5 1
   8    5    6 1
   9    5   11 2
  10    6    7 1
  11    6   14 2
  12    7    8 1
  13    7   12 2
  14    8    9 1
  15    8   23 1
  16    8   24 1
  17    9   10 1
  18    9   25 1
  19    9   26 1
  20   10   11 1
  21   10   27 1
  22   10   28 1
  23   12   13 1
  24   13   14 1
  25   13   29 1
  26   14   30 1
  27   15   16 ar
  28   15   20 ar
  29   16   17 ar
  30   16   31 1
  31   17   18 ar
  32   17   32 1
  33   18   19 ar
  34   18   33 1
  35   19   20 ar
  36   19   21 1

#	End of record

