#	Name: ASD04880973
#	Creating user name:	WinNT
#	Creation time:	15. 06. 2019 20:53

#	Modifying user name:	WinNT
#	Modification time:	15. 06. 2019 20:53

#	Program:	/corina/corina34_cracker 3.40 0067  02.08.2006

@<TRIPOS>MOLECULE
ASD04880973
  83   89    0    0    0
SMALL
NO_CHARGES


@<TRIPOS>ATOM
   1 C1            -0.4545     2.3446     3.1221 C.ar    
   2 C2            -0.7165     1.3661     2.1804 C.ar    
   3 C3             0.2303     1.0527     1.2228 C.ar    
   4 C4             1.4415     1.7164     1.2037 C.ar    
   5 C5             1.7078     2.6995     2.1479 C.ar    
   6 C6             0.7542     3.0120     3.1088 C.ar    
   7 N7             2.9318     3.3723     2.1318 N.3     
   8 C8             3.0841     4.1591     0.9000 C.3     
   9 C9             4.3983     4.9414     0.9567 C.3     
  10 N10            5.5173     4.0030     1.1206 N.3     
  11 C11            5.3650     3.2162     2.3524 C.3     
  12 C12            4.0508     2.4339     2.2956 C.3     
  13 C13            6.7375     4.6737     1.1045 C.ar    
  14 C14            7.1748     5.2992    -0.0668 C.ar    
  15 C15            8.3856     5.9647    -0.0824 C.ar    
  16 C16            9.1698     6.0102     1.0741 C.ar    
  17 C17            8.7267     5.3828     2.2415 C.ar    
  18 C18            7.5162     4.7252     2.2545 C.ar    
  19 C19            1.0385     4.0783     4.1349 C.3     
  20 N20            6.3862     5.2510    -1.2239 N.am    
  21 C21            6.4796     6.2310    -2.1444 C.2     
  22 C22            5.5844     6.2299    -3.3155 C.2     
  23 O23            7.3027     7.1162    -2.0089 O.2     
  24 C24           10.4635     6.7191     1.0620 C.2     
  25 C25            5.5652     7.1488    -4.3194 C.2     
  26 O26            4.6033     6.7715    -5.1768 O.3     
  27 C27            4.0439     5.6461    -4.7106 C.2     
  28 N28            4.6257     5.3070    -3.5993 N.2     
  29 C29            2.9213     4.8902    -5.3736 C.3     
  30 C30            1.5998     5.6312    -5.5867 C.3     
  31 C31            2.5083     5.3287    -6.7800 C.3     
  32 N32           11.2187     6.7624     2.1775 N.am    
  33 O33           10.8485     7.2644     0.0456 O.2     
  34 C34           12.5034     7.4664     2.1654 C.3     
  35 C35           13.1537     7.3647     3.5466 C.3     
  36 C36           14.4954     8.0999     3.5341 C.3     
  37 C37           15.1184     8.1186     4.9633 C.3     
  38 C38           15.8511     6.7307     4.9785 C.3     
  39 C39           16.6690     6.9600     3.6587 C.3     
  40 C40           15.5222     7.3327     2.6701 C.3     
  41 C41           17.3626     8.3186     3.9819 C.3     
  42 C42           16.3357     9.0859     4.8459 C.3     
  43 H43           14.4248     8.3062     5.7830 H       
  44 H44           17.3199     6.1430     3.3473 H       
  45 H45           -1.1980     2.5901     3.8660 H       
  46 H46           -1.6626     0.8454     2.1933 H       
  47 H47            0.0227     0.2878     0.4891 H       
  48 H48            2.1808     1.4708     0.4556 H       
  49 H49            3.0963     3.4895     0.0400 H       
  50 H50            2.2503     4.8551     0.8076 H       
  51 H51            4.5273     5.5032     0.0316 H       
  52 H52            4.3751     5.6306     1.8009 H       
  53 H53            6.1988     2.5202     2.4448 H       
  54 H54            5.3528     3.8858     3.2124 H       
  55 H55            3.9217     1.8721     3.2207 H       
  56 H56            4.0740     1.7447     1.4515 H       
  57 H57            8.7257     6.4484    -0.9862 H       
  58 H58            9.3316     5.4173     3.1355 H       
  59 H59            7.1738     4.2448     3.1591 H       
  60 H60            1.4252     3.6152     5.0427 H       
  61 H61            1.7775     4.7753     3.7395 H       
  62 H62            0.1186     4.6159     4.3648 H       
  63 H63            5.7730     4.5123    -1.3625 H       
  64 H64            6.2019     8.0165    -4.4089 H       
  65 H65            2.8701     3.8262    -5.1424 H       
  66 H66            0.6792     5.0546    -5.4961 H       
  67 H67            1.5423     6.6654    -5.2473 H       
  68 H68            3.0486     6.1639    -7.2257 H       
  69 H69            2.1855     4.5531    -7.4745 H       
  70 H70           10.9116     6.3274     2.9883 H       
  71 H71           13.1587     7.0139     1.4211 H       
  72 H72           12.3407     8.5151     1.9167 H       
  73 H73           12.4984     7.8172     4.2909 H       
  74 H74           13.3163     6.3160     3.7953 H       
  75 H75           14.3673     9.1165     3.1621 H       
  76 H76           16.4998     6.6204     5.8475 H       
  77 H77           15.1527     5.8988     4.8873 H       
  78 H78           15.0712     6.4317     2.2543 H       
  79 H79           15.9009     7.9719     1.8726 H       
  80 H80           18.2821     8.1518     4.5431 H       
  81 H81           17.5712     8.8668     3.0632 H       
  82 H82           16.0395    10.0112     4.3519 H       
  83 H83           16.7504     9.2963     5.8317 H       
@<TRIPOS>BOND
   1    1    2 ar
   2    1    6 ar
   3    1   45 1
   4    2    3 ar
   5    2   46 1
   6    3    4 ar
   7    3   47 1
   8    4    5 ar
   9    4   48 1
  10    5    6 ar
  11    5    7 1
  12    6   19 1
  13    7    8 1
  14    7   12 1
  15    8    9 1
  16    8   49 1
  17    8   50 1
  18    9   10 1
  19    9   51 1
  20    9   52 1
  21   10   11 1
  22   10   13 1
  23   11   12 1
  24   11   53 1
  25   11   54 1
  26   12   55 1
  27   12   56 1
  28   13   14 ar
  29   13   18 ar
  30   14   15 ar
  31   14   20 1
  32   15   16 ar
  33   15   57 1
  34   16   17 ar
  35   16   24 1
  36   17   18 ar
  37   17   58 1
  38   18   59 1
  39   19   60 1
  40   19   61 1
  41   19   62 1
  42   20   21 am
  43   20   63 1
  44   21   22 1
  45   21   23 2
  46   22   25 2
  47   22   28 1
  48   24   32 am
  49   24   33 2
  50   25   26 1
  51   25   64 1
  52   26   27 1
  53   27   28 2
  54   27   29 1
  55   29   30 1
  56   29   31 1
  57   29   65 1
  58   30   31 1
  59   30   66 1
  60   30   67 1
  61   31   68 1
  62   31   69 1
  63   32   34 1
  64   32   70 1
  65   34   35 1
  66   34   71 1
  67   34   72 1
  68   35   36 1
  69   35   73 1
  70   35   74 1
  71   36   37 1
  72   36   40 1
  73   36   75 1
  74   37   38 1
  75   37   42 1
  76   37   43 1
  77   38   39 1
  78   38   76 1
  79   38   77 1
  80   39   40 1
  81   39   41 1
  82   39   44 1
  83   40   78 1
  84   40   79 1
  85   41   42 1
  86   41   80 1
  87   41   81 1
  88   42   82 1
  89   42   83 1

#	End of record

