#	Name: ASD01410501
#	Creating user name:	WinNT
#	Creation time:	15. 06. 2019 19:17

#	Modifying user name:	WinNT
#	Modification time:	15. 06. 2019 19:17

#	Program:	/corina/corina34_cracker 3.40 0067  02.08.2006

@<TRIPOS>MOLECULE
ASD01410501
  68   71    0    0    0
SMALL
NO_CHARGES


@<TRIPOS>ATOM
   1 C1             3.8356     6.1554    -2.7306 C.ar    
   2 C2             4.5688     5.7450    -3.8353 C.ar    
   3 C3             5.4295     4.6718    -3.7142 C.ar    
   4 N4             5.5609     4.0366    -2.5654 N.ar    
   5 C5             4.8795     4.3980    -1.4905 C.ar    
   6 C6             3.9958     5.4685    -1.5396 C.ar    
   7 O7             5.0451     3.7163    -0.3294 O.3     
   8 C8             5.8396     2.6124    -0.3448 C.ar    
   9 C9             7.2215     2.7502    -0.2413 C.ar    
  10 C10            8.0373     1.6341    -0.2555 C.ar    
  11 C11            7.4827     0.3680    -0.3738 C.ar    
  12 C12            6.0901     0.2235    -0.4785 C.ar    
  13 C13            5.2728     1.3578    -0.4574 C.ar    
  14 F14            7.7677     3.9805    -0.1268 F       
  15 N15            8.3049    -0.7565    -0.3890 N.am    
  16 C16            8.6994    -1.3186     0.7706 C.2     
  17 C17            8.7408    -1.3279    -1.6656 C.3     
  18 O18            9.3684    -2.3338     0.7574 O.2     
  19 C19            8.3194    -0.7019     2.0565 C.ar    
  20 C20            7.0841    -0.0629     2.1906 C.ar    
  21 C21            6.7349     0.5111     3.3936 C.ar    
  22 C22            7.6055     0.4569     4.4709 C.ar    
  23 C23            8.8310    -0.1734     4.3475 C.ar    
  24 C24            9.1918    -0.7594     3.1485 C.ar    
  25 C25            4.4268     6.4624    -5.1529 C.3     
  26 C26            5.4290     7.5856    -5.2239 C.2     
  27 C27            8.1871    -0.4858    -2.8169 C.3     
  28 C28           10.2696    -1.3328    -1.7267 C.3     
  29 C29            6.1653     0.0202    -4.0007 C.3     
  30 O30            6.7839    -0.7221    -2.9479 O.3     
  31 Cl31           7.1561     1.1837     5.9821 Cl      
  32 O32           10.7786    -2.3273    -0.8357 O.3     
  33 C33           12.2048    -2.4150    -0.8163 C.3     
  34 F34           10.3884    -1.3748     3.0280 F       
  35 C35            6.6731     7.4999    -5.7044 C.2     
  36 N36            7.3559     8.6260    -5.6571 N.2     
  37 C37            6.7571     9.6568    -5.1634 C.2     
  38 S38            5.1650     9.2455    -4.6951 S.3     
  39 C39            5.4927    -1.1164    -0.6048 C.2     
  40 O40            6.1882    -2.1056    -0.4834 O.2     
  41 O41            4.1748    -1.2458    -0.8552 O.3     
  42 C42            3.2221     5.8768    -0.3126 C.3     
  43 F43            2.4072     6.9722    -0.6182 F       
  44 F44            2.4262     4.8083     0.1140 F       
  45 F45            4.1145     6.2292     0.7056 F       
  46 H46            3.1589     6.9944    -2.7975 H       
  47 H47            6.0021     4.3483    -4.5709 H       
  48 H48            9.1083     1.7480    -0.1748 H       
  49 H49            4.2008     1.2537    -0.5374 H       
  50 H50            8.3704    -2.3494    -1.7518 H       
  51 H51            6.4043    -0.0186     1.3525 H       
  52 H52            5.7801     1.0050     3.4973 H       
  53 H53            9.5049    -0.2115     5.1906 H       
  54 H54            4.6069     5.7626    -5.9689 H       
  55 H55            3.4190     6.8688    -5.2385 H       
  56 H56            8.3600     0.5704    -2.6103 H       
  57 H57            8.6902    -0.7619    -3.7436 H       
  58 H58           10.5919    -1.5569    -2.7436 H       
  59 H59           10.6481    -0.3538    -1.4330 H       
  60 H60            6.2963     1.0869    -3.8187 H       
  61 H61            6.6264    -0.2454    -4.9520 H       
  62 H62            5.1015    -0.2147    -4.0344 H       
  63 H63           12.5115    -3.1921    -0.1161 H       
  64 H64           12.5673    -2.6616    -1.8143 H       
  65 H65           12.6235    -1.4584    -0.5037 H       
  66 H66            7.0851     6.5830    -6.0991 H       
  67 H67            7.1964    10.6385    -5.0648 H       
  68 H68            3.8283    -2.1455    -0.9297 H       
@<TRIPOS>BOND
   1    1    2 ar
   2    1    6 ar
   3    1   46 1
   4    2    3 ar
   5    2   25 1
   6    3    4 ar
   7    3   47 1
   8    4    5 ar
   9    5    6 ar
  10    5    7 1
  11    6   42 1
  12    7    8 1
  13    8    9 ar
  14    8   13 ar
  15    9   10 ar
  16    9   14 1
  17   10   11 ar
  18   10   48 1
  19   11   12 ar
  20   11   15 1
  21   12   13 ar
  22   12   39 1
  23   13   49 1
  24   15   16 am
  25   15   17 1
  26   16   18 2
  27   16   19 1
  28   17   28 1
  29   17   27 1
  30   17   50 1
  31   19   20 ar
  32   19   24 ar
  33   20   21 ar
  34   20   51 1
  35   21   22 ar
  36   21   52 1
  37   22   23 ar
  38   22   31 1
  39   23   24 ar
  40   23   53 1
  41   24   34 1
  42   25   26 1
  43   25   54 1
  44   25   55 1
  45   26   35 2
  46   26   38 1
  47   27   30 1
  48   27   56 1
  49   27   57 1
  50   28   32 1
  51   28   58 1
  52   28   59 1
  53   29   30 1
  54   29   60 1
  55   29   61 1
  56   29   62 1
  57   32   33 1
  58   33   63 1
  59   33   64 1
  60   33   65 1
  61   35   36 1
  62   35   66 1
  63   36   37 2
  64   37   38 1
  65   37   67 1
  66   39   40 2
  67   39   41 1
  68   41   68 1
  69   42   43 1
  70   42   44 1
  71   42   45 1

#	End of record

