#	Name: ASD00840154
#	Creating user name:	WinNT
#	Creation time:	15. 06. 2019 18:37

#	Modifying user name:	WinNT
#	Modification time:	15. 06. 2019 18:37

#	Program:	/corina/corina34_cracker 3.40 0067  02.08.2006

@<TRIPOS>MOLECULE
ASD00840154
  61   65    0    0    0
SMALL
NO_CHARGES


@<TRIPOS>ATOM
   1 C1            -0.0441     1.3267     0.2248 C.2     
   2 N2             0.0008    -0.0049     0.0215 N.am    
   3 O3             0.9519     1.9196     0.5893 O.2     
   4 O4            -1.1916     2.0010     0.0186 O.3     
   5 N5             1.7109    -1.8597     2.1954 N.am    
   6 C6             1.6902    -0.6175     1.6837 C.2     
   7 C7             1.2505    -0.7375     0.2400 C.3     
   8 C8             1.0362    -2.2207     0.0431 C.ar    
   9 C9             0.6373    -2.9729    -1.0393 C.ar    
  10 C10            0.5278    -4.3479    -0.9223 C.ar    
  11 C11            0.8206    -4.9616     0.2857 C.ar    
  12 C12            1.2203    -4.2075     1.3719 C.ar    
  13 C13            1.3326    -2.8233     1.2590 C.ar    
  14 O14            1.9704     0.4074     2.2686 O.2     
  15 F15            0.7141    -6.3034     0.4014 F       
  16 C16            3.6054    -0.7720    -0.6408 C.ar    
  17 C17            2.3272    -0.2294    -0.6838 C.ar    
  18 C18            2.0559     0.7836    -1.5866 C.ar    
  19 C19            3.0779     1.2202    -2.4187 C.ar    
  20 C20            4.3245     0.6353    -2.3213 C.ar    
  21 N21            4.5529    -0.3292    -1.4501 N.ar    
  22 O22            3.8857    -1.7618     0.2438 O.3     
  23 C23            5.2182    -2.2780     0.2390 C.3     
  24 C24            5.3429    -3.3778     1.2953 C.3     
  25 Cl25           0.0248    -5.3005    -2.2837 Cl      
  26 S26            2.1425    -2.2083     3.7557 S.o2    
  27 O27            2.5709    -3.5632     3.7604 O.2     
  28 O28            2.9608    -1.1330     4.1954 O.2     
  29 C29            0.6750    -2.1470     4.7290 C.ar    
  30 C30           -0.0875    -3.2870     4.9024 C.ar    
  31 C31           -1.2388    -3.2389     5.6659 C.ar    
  32 C32           -1.6275    -2.0509     6.2563 C.ar    
  33 C33           -0.8646    -0.9112     6.0836 C.ar    
  34 C34            0.2891    -0.9603     5.3237 C.ar    
  35 C35           -1.1406     3.3547     0.1313 C.ar    
  36 C36           -0.5667     4.1148    -0.8774 C.ar    
  37 C37           -0.5160     5.4903    -0.7605 C.ar    
  38 C38           -1.0364     6.1096     0.3608 C.ar    
  39 C39           -1.6089     5.3543     1.3675 C.ar    
  40 C40           -1.6675     3.9789     1.2525 C.ar    
  41 H41           -0.7944    -0.4782    -0.2694 H       
  42 H42            0.4099    -2.4904    -1.9784 H       
  43 H43            1.4466    -4.6918     2.3103 H       
  44 H44            1.0715     1.2242    -1.6429 H       
  45 H45            2.8994     2.0087    -3.1347 H       
  46 H46            5.1228     0.9710    -2.9665 H       
  47 H47            5.4442    -2.6911    -0.7441 H       
  48 H48            5.9197    -1.4752     0.4658 H       
  49 H49            5.1168    -2.9648     2.2783 H       
  50 H50            4.6414    -4.1807     1.0685 H       
  51 H51            6.3592    -3.7716     1.2916 H       
  52 H52            0.2162    -4.2151     4.4411 H       
  53 H53           -1.8349    -4.1293     5.8008 H       
  54 H54           -2.5274    -2.0132     6.8522 H       
  55 H55           -1.1684     0.0170     6.5447 H       
  56 H56            0.8872    -0.0707     5.1919 H       
  57 H57           -0.1594     3.6314    -1.7532 H       
  58 H58           -0.0693     6.0824    -1.5455 H       
  59 H59           -0.9952     7.1851     0.4507 H       
  60 H60           -2.0144     5.8403     2.2426 H       
  61 H61           -2.1189     3.3897     2.0370 H       
@<TRIPOS>BOND
   1    1    2 am
   2    1    3 2
   3    1    4 1
   4    2    7 1
   5    2   41 1
   6    4   35 1
   7    5    6 am
   8    5   13 1
   9    5   26 am
  10    6    7 1
  11    6   14 2
  12    7    8 1
  13    7   17 1
  14    8    9 ar
  15    8   13 ar
  16    9   10 ar
  17    9   42 1
  18   10   11 ar
  19   10   25 1
  20   11   12 ar
  21   11   15 1
  22   12   13 ar
  23   12   43 1
  24   16   17 ar
  25   16   21 ar
  26   16   22 1
  27   17   18 ar
  28   18   19 ar
  29   18   44 1
  30   19   20 ar
  31   19   45 1
  32   20   21 ar
  33   20   46 1
  34   22   23 1
  35   23   24 1
  36   23   47 1
  37   23   48 1
  38   24   49 1
  39   24   50 1
  40   24   51 1
  41   26   27 2
  42   26   28 2
  43   26   29 1
  44   29   30 ar
  45   29   34 ar
  46   30   31 ar
  47   30   52 1
  48   31   32 ar
  49   31   53 1
  50   32   33 ar
  51   32   54 1
  52   33   34 ar
  53   33   55 1
  54   34   56 1
  55   35   36 ar
  56   35   40 ar
  57   36   37 ar
  58   36   57 1
  59   37   38 ar
  60   37   58 1
  61   38   39 ar
  62   38   59 1
  63   39   40 ar
  64   39   60 1
  65   40   61 1

#	End of record

