#	Name: ASD01882204
#	Creating user name:	WinNT
#	Creation time:	15. 06. 2019 19:44

#	Modifying user name:	WinNT
#	Modification time:	15. 06. 2019 19:44

#	Program:	/corina/corina34_cracker 3.40 0067  02.08.2006

@<TRIPOS>MOLECULE
ASD01882204
  36   38    0    0    0
SMALL
NO_CHARGES


@<TRIPOS>ATOM
   1 N1            -0.0178     1.4608     0.0101 N.pl3   
   2 O2            -1.1251    -4.0062    -0.8311 O.3     
   3 C3            -2.4803    -4.4286    -1.0712 C.3     
   4 C4            -3.2866    -3.1208    -1.2309 C.3     
   5 O5            -2.2688    -2.1537    -1.5892 O.3     
   6 C6            -1.1296    -2.5719    -0.8132 C.3     
   7 C7            -1.2673    -2.0652     0.6202 C.3     
   8 C8            -1.2925    -0.5349     0.6212 C.3     
   9 C9             0.0021    -0.0041     0.0020 C.3     
  10 C10            0.1224    -0.5043    -1.4389 C.3     
  11 C11            0.1515    -2.0346    -1.4460 C.3     
  12 C12            1.1833     2.1762     0.0024 C.ar    
  13 C13            1.1660     3.5663     0.0101 C.ar    
  14 C14            2.3550     4.2702     0.0025 C.ar    
  15 C15            3.5615     3.5925    -0.0132 C.ar    
  16 C16            3.5811     2.2094    -0.0213 C.ar    
  17 C17            2.3957     1.4999    -0.0070 C.ar    
  18 Cl18          -0.3473     4.4166     0.0286 Cl      
  19 Br19           5.1866     4.5593    -0.0242 Br      
  20 H20           -0.8643     1.9343     0.0167 H       
  21 H21           -2.5358    -5.0215    -1.9842 H       
  22 H22           -2.8538    -5.0024    -0.2230 H       
  23 H23           -4.0243    -3.2174    -2.0275 H       
  24 H24           -3.7659    -2.8460    -0.2913 H       
  25 H25           -2.1938    -2.4440     1.0519 H       
  26 H26           -0.4214    -2.4150     1.2120 H       
  27 H27           -2.1444    -0.1850     0.0382 H       
  28 H28           -1.3801    -0.1735     1.6458 H       
  29 H29            0.8541    -0.3589     0.5818 H       
  30 H30           -0.7324    -0.1544    -2.0177 H       
  31 H31            1.0422    -0.1213    -1.8810 H       
  32 H32            1.0124    -2.3842    -0.8762 H       
  33 H33            0.2267    -2.3917    -2.4731 H       
  34 H34            2.3427     5.3501     0.0084 H       
  35 H35            4.5243     1.6835    -0.0342 H       
  36 H36            2.4121     0.4200    -0.0085 H       
@<TRIPOS>BOND
   1    1    9 1
   2    1   12 1
   3    1   20 1
   4    2    3 1
   5    2    6 1
   6    3    4 1
   7    3   21 1
   8    3   22 1
   9    4    5 1
  10    4   23 1
  11    4   24 1
  12    5    6 1
  13    6    7 1
  14    6   11 1
  15    7    8 1
  16    7   25 1
  17    7   26 1
  18    8    9 1
  19    8   27 1
  20    8   28 1
  21    9   10 1
  22    9   29 1
  23   10   11 1
  24   10   30 1
  25   10   31 1
  26   11   32 1
  27   11   33 1
  28   12   13 ar
  29   12   17 ar
  30   13   14 ar
  31   13   18 1
  32   14   15 ar
  33   14   34 1
  34   15   16 ar
  35   15   19 1
  36   16   17 ar
  37   16   35 1
  38   17   36 1

#	End of record

