#	Name: ASD01900804
#	Creating user name:	WinNT
#	Creation time:	15. 06. 2019 19:52

#	Modifying user name:	WinNT
#	Modification time:	15. 06. 2019 19:52

#	Program:	/corina/corina34_cracker 3.40 0067  02.08.2006

@<TRIPOS>MOLECULE
ASD01900804
  42   45    0    0    0
SMALL
NO_CHARGES


@<TRIPOS>ATOM
   1 N1            -0.7162     1.6079    -0.5683 N.am    
   2 C2            -1.0753     0.2862    -0.8572 C.ar    
   3 C3            -0.4446    -1.9744    -1.3530 C.ar    
   4 C4            -0.0910    -0.6705    -1.0680 C.ar    
   5 C5            -2.4163    -0.0696    -0.9275 C.ar    
   6 C6            -2.7704    -1.3737    -1.2126 C.ar    
   7 C7            -1.7846    -2.3297    -1.4291 C.ar    
   8 Cl8           -4.4460    -1.8191    -1.3001 Cl      
   9 C9            -1.4296     2.3198     0.3266 C.2     
  10 C10           -1.0162     3.6942     0.6749 C.ar    
  11 O11           -2.4134     1.8305     0.8471 O.2     
  12 C12           -1.6864     4.3864     1.6928 C.ar    
  13 C13           -1.2794     5.6837     2.0062 C.ar    
  14 C14           -0.2280     6.2332     1.2962 C.ar    
  15 C15            0.3879     5.4873     0.3011 C.ar    
  16 N16           -0.0077     4.2652     0.0252 N.ar    
  17 N17           -2.7378     3.7913     2.3776 N.pl3   
  18 N18           -2.1431    -3.6523    -1.7182 N.am    
  19 C19           -2.7050    -5.5859    -2.8602 C.ar    
  20 C20           -2.3392    -4.1594    -2.9475 C.2     
  21 C21           -2.3604    -4.7145    -0.7295 C.3     
  22 C22           -2.7253    -5.9512    -1.5121 C.ar    
  23 C23           -3.3377    -8.1815    -2.1156 C.ar    
  24 C24           -3.3206    -7.8306    -3.4553 C.ar    
  25 C25           -3.0040    -6.5412    -3.8335 C.ar    
  26 C26           -3.0395    -7.2396    -1.1457 C.ar    
  27 O27           -2.2313    -3.5320    -3.9833 O.2     
  28 Cl28          -3.6958    -9.0184    -4.6645 Cl      
  29 H29            0.0485     2.0102    -1.0091 H       
  30 H30            0.3213    -2.7180    -1.5172 H       
  31 H31            0.9515    -0.3944    -1.0092 H       
  32 H32           -3.1818     0.6734    -0.7589 H       
  33 H33           -1.7742     6.2455     2.7847 H       
  34 H34            0.1110     7.2352     1.5139 H       
  35 H35            1.2089     5.9173    -0.2534 H       
  36 H36           -2.8138     2.8247     2.4045 H       
  37 H37           -3.3963     4.3423     2.8289 H       
  38 H38           -1.4478    -4.8878    -0.1592 H       
  39 H39           -3.1754    -4.4413    -0.0593 H       
  40 H40           -3.5862    -9.1920    -1.8267 H       
  41 H41           -2.9919    -6.2711    -4.8791 H       
  42 H42           -3.0532    -7.5162    -0.1018 H       
@<TRIPOS>BOND
   1    1    2 1
   2    1    9 am
   3    1   29 1
   4    2    5 ar
   5    2    4 ar
   6    3    4 ar
   7    3    7 ar
   8    3   30 1
   9    4   31 1
  10    5    6 ar
  11    5   32 1
  12    6    7 ar
  13    6    8 1
  14    7   18 1
  15    9   10 1
  16    9   11 2
  17   10   12 ar
  18   10   16 ar
  19   12   13 ar
  20   12   17 1
  21   13   14 ar
  22   13   33 1
  23   14   15 ar
  24   14   34 1
  25   15   16 ar
  26   15   35 1
  27   17   36 1
  28   17   37 1
  29   18   21 1
  30   18   20 am
  31   19   20 1
  32   19   22 ar
  33   19   25 ar
  34   20   27 2
  35   21   22 1
  36   21   38 1
  37   21   39 1
  38   22   26 ar
  39   23   24 ar
  40   23   26 ar
  41   23   40 1
  42   24   25 ar
  43   24   28 1
  44   25   41 1
  45   26   42 1

#	End of record

