#	Name: ASD01911315
#	Creating user name:	WinNT
#	Creation time:	15. 06. 2019 19:57

#	Modifying user name:	WinNT
#	Modification time:	15. 06. 2019 19:57

#	Program:	/corina/corina34_cracker 3.40 0067  02.08.2006

@<TRIPOS>MOLECULE
ASD01911315
  29   31    0    0    0
SMALL
NO_CHARGES


@<TRIPOS>ATOM
   1 C1            -0.0167     1.3796     0.0096 C.ar    
   2 C2             0.0021    -0.0041     0.0020 C.ar    
   3 C3             1.2058    -0.6864    -0.0131 C.ar    
   4 C4             2.3967     0.0092    -0.0207 C.ar    
   5 C5             2.3856     1.4065    -0.0131 C.ar    
   6 C6             1.1662     2.0887     0.0021 C.ar    
   7 C7             3.6180     2.1358    -0.0210 C.1     
   8 C8             4.6283     2.7337    -0.0274 C.1     
   9 C9             5.8607     3.4630    -0.0352 C.ar    
  10 C10            5.8554     4.8638    -0.0276 C.ar    
  11 N11            6.9778     5.5478    -0.0351 N.ar    
  12 C12            8.1599     4.9499    -0.0497 C.ar    
  13 C13            8.2535     3.5457    -0.0576 C.ar    
  14 C14            7.0827     2.7860    -0.0447 C.ar    
  15 N15            9.4581     5.4125    -0.0595 N.pl3   
  16 C16           10.2790     4.3268    -0.0728 C.2     
  17 N17            9.5746     3.2332    -0.0717 N.2     
  18 C18            9.8778     6.8161    -0.0568 C.3     
  19 H19           -0.9600     1.9055     0.0169 H       
  20 H20           -0.9273    -0.5541     0.0083 H       
  21 H21            1.2128    -1.7664    -0.0186 H       
  22 H22            3.3355    -0.5246    -0.0322 H       
  23 H23            1.1501     3.1686     0.0077 H       
  24 H24            4.9128     5.3909    -0.0158 H       
  25 H25            7.1202     1.7067    -0.0503 H       
  26 H26           11.3582     4.3674    -0.0827 H       
  27 H27            9.9915     7.1593     0.9714 H       
  28 H28           10.8298     6.9116    -0.5791 H       
  29 H29            9.1245     7.4215    -0.5608 H       
@<TRIPOS>BOND
   1    1    2 ar
   2    1    6 ar
   3    1   19 1
   4    2    3 ar
   5    2   20 1
   6    3    4 ar
   7    3   21 1
   8    4    5 ar
   9    4   22 1
  10    5    6 ar
  11    5    7 1
  12    6   23 1
  13    7    8 3
  14    8    9 1
  15    9   10 ar
  16    9   14 ar
  17   10   11 ar
  18   10   24 1
  19   11   12 ar
  20   12   13 ar
  21   12   15 1
  22   13   14 ar
  23   13   17 1
  24   14   25 1
  25   15   16 1
  26   15   18 1
  27   16   17 2
  28   16   26 1
  29   18   27 1
  30   18   28 1
  31   18   29 1

#	End of record

