#	Name: ASD05720062
#	Creating user name:	WinNT
#	Creation time:	15. 06. 2019 21:01

#	Modifying user name:	WinNT
#	Modification time:	15. 06. 2019 21:01

#	Program:	/corina/corina34_cracker 3.40 0067  02.08.2006

@<TRIPOS>MOLECULE
ASD05720062
  33   34    0    0    0
SMALL
NO_CHARGES


@<TRIPOS>ATOM
   1 C1            -0.0143     1.2041     0.0087 C.2     
   2 C2            -1.3295     1.9397     0.0189 C.3     
   3 O3             0.0021    -0.0041     0.0020 O.2     
   4 O4             1.1389     1.8910     0.0013 O.3     
   5 C5            -1.4165     2.8114     1.2733 C.3     
   6 C6            -0.3481     3.8907     1.4592 C.3     
   7 C7            -1.7780     4.2861     1.0852 C.3     
   8 N8            -2.4300     0.9727     0.0189 N.am    
   9 C9            -2.8746     0.4578    -1.1446 C.2     
  10 O10           -2.3626     0.7956    -2.1935 O.2     
  11 O11           -3.8859    -0.4309    -1.1446 O.3     
  12 C12           -4.3128    -0.9438    -2.4343 C.3     
  13 C13           -5.4455    -1.9181    -2.2375 C.ar    
  14 C14           -6.7527    -1.4685    -2.2430 C.ar    
  15 C15           -7.7917    -2.3623    -2.0624 C.ar    
  16 C16           -7.5235    -3.7056    -1.8768 C.ar    
  17 C17           -6.2164    -4.1553    -1.8723 C.ar    
  18 C18           -5.1776    -3.2622    -2.0571 C.ar    
  19 H19           -1.4000     2.5704    -0.8673 H       
  20 H20            1.9569     1.3754    -0.0092 H       
  21 H21           -1.7883     2.3119     2.1680 H       
  22 H22           -0.0173     4.1015     2.4761 H       
  23 H23            0.4168     3.9797     0.6878 H       
  24 H24           -1.9539     4.6353     0.0677 H       
  25 H25           -2.3879     4.7571     1.8561 H       
  26 H26           -2.8387     0.7030     0.8562 H       
  27 H27           -4.6490    -0.1175    -3.0606 H       
  28 H28           -3.4778    -1.4503    -2.9183 H       
  29 H29           -6.9622    -0.4190    -2.3879 H       
  30 H30           -8.8130    -2.0109    -2.0660 H       
  31 H31           -8.3353    -4.4037    -1.7351 H       
  32 H32           -6.0068    -5.2047    -1.7269 H       
  33 H33           -4.1565    -3.6140    -2.0572 H       
@<TRIPOS>BOND
   1    1    3 2
   2    1    4 1
   3    1    2 1
   4    2    5 1
   5    2    8 1
   6    2   19 1
   7    4   20 1
   8    5    6 1
   9    5    7 1
  10    5   21 1
  11    6    7 1
  12    6   22 1
  13    6   23 1
  14    7   24 1
  15    7   25 1
  16    8    9 am
  17    8   26 1
  18    9   10 2
  19    9   11 1
  20   11   12 1
  21   12   13 1
  22   12   27 1
  23   12   28 1
  24   13   14 ar
  25   13   18 ar
  26   14   15 ar
  27   14   29 1
  28   15   16 ar
  29   15   30 1
  30   16   17 ar
  31   16   31 1
  32   17   18 ar
  33   17   32 1
  34   18   33 1

#	End of record

