#	Name: ASD02560143
#	Creating user name:	WinNT
#	Creation time:	15. 06. 2019 20:24

#	Modifying user name:	WinNT
#	Modification time:	15. 06. 2019 20:24

#	Program:	/corina/corina34_cracker 3.40 0067  02.08.2006

@<TRIPOS>MOLECULE
ASD02560143
  61   64    0    0    0
SMALL
NO_CHARGES


@<TRIPOS>ATOM
   1 N1            -0.2479     1.2911     0.0846 N.2     
   2 N2            -0.1880     0.0576     0.0896 N.2     
   3 C3             1.0835     1.8870    -0.0863 C.3     
   4 N4             2.0325     0.7841     0.2097 N.3     
   5 C5             1.1949    -0.4078    -0.0771 C.3     
   6 S6             1.5609    -1.7359     1.1031 S.3     
   7 C7             1.1576    -0.9825     2.7032 C.3     
   8 C8             1.4131    -1.9776     3.8057 C.2     
   9 O9             1.8266    -3.0860     3.5383 O.2     
  10 N10            1.1821    -1.6359     5.0888 N.am    
  11 C11            3.1365     0.8343    -0.6386 C.ar    
  12 C12            1.3087    -2.5933     6.1014 C.ar    
  13 C13            1.5746    -2.1960     7.4055 C.ar    
  14 C14            1.6990    -3.1433     8.4025 C.ar    
  15 C15            1.5590    -4.4864     8.1037 C.ar    
  16 C16            1.2948    -4.8851     6.8065 C.ar    
  17 C17            1.1631    -3.9421     5.8058 C.ar    
  18 S18            1.7184    -5.6919     9.3788 S.o2    
  19 O19            2.0781    -6.9083     8.7383 O.2     
  20 O20            2.5001    -5.0920    10.4027 O.2     
  21 C21            4.1249     1.8265    -0.4632 C.ar    
  22 C22            3.2765    -0.0884    -1.6536 C.ar    
  23 C23            4.3755    -0.0472    -2.5059 C.ar    
  24 C24            5.3414     0.9020    -2.3624 C.ar    
  25 C25            5.2391     1.8579    -1.3376 C.ar    
  26 C26            6.2208     2.8494    -1.1662 C.ar    
  27 C27            6.0902     3.7603    -0.1634 C.ar    
  28 C28            4.9960     3.7258     0.6988 C.ar    
  29 C29            4.0244     2.7820     0.5600 C.ar    
  30 N30            0.2103    -5.9293    10.0203 N.am    
  31 C31            6.5219     0.9239    -3.2988 C.3     
  32 C32            7.6889     0.1630    -2.6663 C.3     
  33 C33            1.7277    -0.7328     7.7319 C.3     
  34 C34            1.2675     2.3768    -1.5240 C.3     
  35 F35            0.2078     3.2231    -1.8676 F       
  36 F36            2.4749     3.0757    -1.6276 F       
  37 H37            1.2248     2.7082     0.6164 H       
  38 H38            1.3595    -0.7506    -1.0986 H       
  39 H39            1.7807    -0.1015     2.8574 H       
  40 H40            0.1074    -0.6909     2.7131 H       
  41 H41            0.9282    -0.7263     5.3103 H       
  42 H42            1.9061    -2.8350     9.4167 H       
  43 H43            1.1864    -5.9347     6.5763 H       
  44 H44            0.9563    -4.2542     4.7927 H       
  45 H45            2.5247    -0.8519    -1.7884 H       
  46 H46            4.4642    -0.7802    -3.2940 H       
  47 H47            7.0744     2.8880    -1.8267 H       
  48 H48            6.8460     4.5208    -0.0336 H       
  49 H49            4.9159     4.4601     1.4867 H       
  50 H50            3.1818     2.7672     1.2355 H       
  51 H51           -0.0281    -6.7929    10.3923 H       
  52 H52           -0.4347    -5.2049    10.0240 H       
  53 H53            6.2471     0.4498    -4.2410 H       
  54 H54            6.8192     1.9560    -3.4845 H       
  55 H55            8.5427     0.1789    -3.3436 H       
  56 H56            7.9637     0.6371    -1.7240 H       
  57 H57            7.3916    -0.8691    -2.4806 H       
  58 H58            0.7560    -0.3159     7.9967 H       
  59 H59            2.4135    -0.6175     8.5712 H       
  60 H60            2.1244    -0.2064     6.8637 H       
  61 H61            1.2834     1.5218    -2.1999 H       
@<TRIPOS>BOND
   1    1    2 2
   2    1    3 1
   3    2    5 1
   4    3    4 1
   5    3   34 1
   6    3   37 1
   7    4    5 1
   8    4   11 1
   9    5    6 1
  10    5   38 1
  11    6    7 1
  12    7    8 1
  13    7   39 1
  14    7   40 1
  15    8    9 2
  16    8   10 am
  17   10   12 1
  18   10   41 1
  19   11   21 ar
  20   11   22 ar
  21   12   13 ar
  22   12   17 ar
  23   13   14 ar
  24   13   33 1
  25   14   15 ar
  26   14   42 1
  27   15   16 ar
  28   15   18 1
  29   16   17 ar
  30   16   43 1
  31   17   44 1
  32   18   19 2
  33   18   20 2
  34   18   30 am
  35   21   25 ar
  36   21   29 ar
  37   22   23 ar
  38   22   45 1
  39   23   24 ar
  40   23   46 1
  41   24   25 ar
  42   24   31 1
  43   25   26 ar
  44   26   27 ar
  45   26   47 1
  46   27   28 ar
  47   27   48 1
  48   28   29 ar
  49   28   49 1
  50   29   50 1
  51   30   51 1
  52   30   52 1
  53   31   32 1
  54   31   53 1
  55   31   54 1
  56   32   55 1
  57   32   56 1
  58   32   57 1
  59   33   58 1
  60   33   59 1
  61   33   60 1
  62   34   35 1
  63   34   36 1
  64   34   61 1

#	End of record

