#	Name: ASD01180143
#	Creating user name:	WinNT
#	Creation time:	15. 06. 2019 19:06

#	Modifying user name:	WinNT
#	Modification time:	15. 06. 2019 19:06

#	Program:	/corina/corina34_cracker 3.40 0067  02.08.2006

@<TRIPOS>MOLECULE
ASD01180143
  17   18    0    0    0
SMALL
NO_CHARGES


@<TRIPOS>ATOM
   1 N1            -0.0157     1.3064     0.0092 N.ar    
   2 C2             0.0021    -0.0041     0.0020 C.ar    
   3 C3             1.1977    -0.7213    -0.0132 C.ar    
   4 C4             2.3913    -0.0563    -0.0210 C.ar    
   5 C5             2.3675     1.3512    -0.0132 C.ar    
   6 C6             3.5535     2.1019    -0.0209 C.ar    
   7 C7             3.4887     3.4641    -0.0135 C.ar    
   8 C8             2.2578     4.1210     0.0017 C.ar    
   9 C9             1.0899     3.4228     0.0100 C.ar    
  10 C10            1.1166     2.0173     0.0022 C.ar    
  11 F11            4.6304     4.1864    -0.0205 F       
  12 Br12           1.1673    -2.6121    -0.0225 Br      
  13 H13           -0.9341    -0.5426     0.0084 H       
  14 H14            3.3270    -0.5955    -0.0325 H       
  15 H15            4.5117     1.6037    -0.0323 H       
  16 H16            2.2316     5.2007     0.0073 H       
  17 H17            0.1456     3.9467     0.0224 H       
@<TRIPOS>BOND
   1    1    2 ar
   2    1   10 ar
   3    2    3 ar
   4    2   13 1
   5    3    4 ar
   6    3   12 1
   7    4    5 ar
   8    4   14 1
   9    5    6 ar
  10    5   10 ar
  11    6    7 ar
  12    6   15 1
  13    7    8 ar
  14    7   11 1
  15    8    9 ar
  16    8   16 1
  17    9   10 ar
  18    9   17 1

#	End of record

