#	Name: ASD01811731
#	Creating user name:	WinNT
#	Creation time:	15. 06. 2019 19:27

#	Modifying user name:	WinNT
#	Modification time:	15. 06. 2019 19:27

#	Program:	/corina/corina34_cracker 3.40 0067  02.08.2006

@<TRIPOS>MOLECULE
ASD01811731
  57   61    0    0    0
SMALL
NO_CHARGES


@<TRIPOS>ATOM
   1 C1            -0.1916     1.4837    -0.2108 C.ar    
   2 C2            -0.1022     0.1021    -0.1864 C.ar    
   3 C3             1.1292    -0.5177    -0.3073 C.ar    
   4 C4             2.2762     0.2345    -0.4534 C.ar    
   5 C5             2.1940     1.6281    -0.4794 C.ar    
   6 C6             0.9462     2.2433    -0.3561 C.ar    
   7 C7            -1.3492    -0.7289    -0.0273 C.3     
   8 C8            -1.5527    -1.0653     1.4514 C.3     
   9 C9             1.2176    -2.0219    -0.2787 C.3     
  10 C10            2.6415    -2.4463    -0.5304 C.ar    
  11 C11            3.5023    -2.6396     0.5343 C.ar    
  12 C12            4.8081    -3.0282     0.3068 C.ar    
  13 C13            5.2558    -3.2251    -0.9925 C.ar    
  14 C14            4.3890    -3.0306    -2.0595 C.ar    
  15 C15            3.0830    -2.6471    -1.8254 C.ar    
  16 N16            6.5807    -3.6190    -1.2267 N.pl3   
  17 C17            7.1421    -3.8440    -2.4362 C.2     
  18 C18            8.4303    -4.2044    -2.2315 C.2     
  19 C19            8.6648    -4.1999    -0.8521 C.2     
  20 N20            7.5590    -3.8434    -0.2496 N.2     
  21 C21            3.2176     2.6816    -0.6194 C.2     
  22 N22            2.6434     3.8965    -0.5863 N.am    
  23 C23            1.1950     3.7295    -0.4212 C.3     
  24 O24            4.4095     2.4796    -0.7458 O.2     
  25 C25            3.3477     5.1764    -0.6970 C.3     
  26 C26            4.0911     5.2543    -2.0421 C.3     
  27 C27            5.5894     5.4092    -1.7092 C.3     
  28 C28            5.7250     4.8175    -0.2842 C.3     
  29 C29            4.4202     5.2866     0.4063 C.3     
  30 O30            3.6360     6.3850    -2.7881 O.3     
  31 H31           -1.1544     1.9645    -0.1204 H       
  32 H32            3.2352    -0.2532    -0.5471 H       
  33 H33           -2.2089    -0.1679    -0.3939 H       
  34 H34           -1.2467    -1.6512    -0.5990 H       
  35 H35           -0.6930    -1.6263     1.8180 H       
  36 H36           -1.6552    -0.1429     2.0230 H       
  37 H37           -2.4547    -1.6663     1.5665 H       
  38 H38            0.8970    -2.3862     0.6973 H       
  39 H39            0.5722    -2.4385    -1.0520 H       
  40 H40            3.1534    -2.4863     1.5449 H       
  41 H41            5.4801    -3.1783     1.1388 H       
  42 H42            4.7346    -3.1827    -3.0714 H       
  43 H43            2.4082    -2.4957    -2.6549 H       
  44 H44            6.6506    -3.7529    -3.3935 H       
  45 H45            9.1502    -4.4518    -2.9975 H       
  46 H46            9.5990    -4.4441    -0.3681 H       
  47 H47            0.6688     4.1604    -1.2730 H       
  48 H48            0.8660     4.2053     0.5026 H       
  49 H49            2.6398     6.0010    -0.6133 H       
  50 H50            3.9278     4.3399    -2.6124 H       
  51 H51            6.1975     4.8447    -2.4160 H       
  52 H52            5.8746     6.4612    -1.7141 H       
  53 H53            5.7729     3.7292    -0.3207 H       
  54 H54            6.5989     5.2269     0.2226 H       
  55 H55            4.5166     6.3188     0.7429 H       
  56 H56            4.1752     4.6327     1.2432 H       
  57 H57            4.0676     6.4890    -3.6471 H       
@<TRIPOS>BOND
   1    1    2 ar
   2    1    6 ar
   3    1   31 1
   4    2    3 ar
   5    2    7 1
   6    3    4 ar
   7    3    9 1
   8    4    5 ar
   9    4   32 1
  10    5    6 ar
  11    5   21 1
  12    6   23 1
  13    7    8 1
  14    7   33 1
  15    7   34 1
  16    8   35 1
  17    8   36 1
  18    8   37 1
  19    9   10 1
  20    9   38 1
  21    9   39 1
  22   10   11 ar
  23   10   15 ar
  24   11   12 ar
  25   11   40 1
  26   12   13 ar
  27   12   41 1
  28   13   14 ar
  29   13   16 1
  30   14   15 ar
  31   14   42 1
  32   15   43 1
  33   16   17 1
  34   16   20 1
  35   17   18 2
  36   17   44 1
  37   18   19 1
  38   18   45 1
  39   19   20 2
  40   19   46 1
  41   21   22 am
  42   21   24 2
  43   22   23 1
  44   22   25 1
  45   23   47 1
  46   23   48 1
  47   25   26 1
  48   25   29 1
  49   25   49 1
  50   26   27 1
  51   26   30 1
  52   26   50 1
  53   27   28 1
  54   27   51 1
  55   27   52 1
  56   28   29 1
  57   28   53 1
  58   28   54 1
  59   29   55 1
  60   29   56 1
  61   30   57 1

#	End of record

