#	Name: ASD01148856
#	Creating user name:	WinNT
#	Creation time:	15. 06. 2019 19:03

#	Modifying user name:	WinNT
#	Modification time:	15. 06. 2019 19:03

#	Program:	/corina/corina34_cracker 3.40 0067  02.08.2006

@<TRIPOS>MOLECULE
ASD01148856
  23   23    0    0    0
SMALL
NO_CHARGES


@<TRIPOS>ATOM
   1 N1            -0.0169     1.3925     0.0097 N.pl3   
   2 C2             0.0021    -0.0041     0.0020 C.ar    
   3 C3             1.2136    -0.6839    -0.0132 C.ar    
   4 C4             1.2288    -2.0646    -0.0203 C.ar    
   5 C5             0.0396    -2.7708    -0.0127 C.ar    
   6 C6            -1.1679    -2.0974     0.0024 C.ar    
   7 C7            -1.1902    -0.7164     0.0154 C.ar    
   8 S8             2.7647    -2.9277    -0.0396 S.o2    
   9 O9             2.4583    -4.1747    -0.6481 O.2     
  10 O10            3.6703    -2.0180    -0.6491 O.2     
  11 C11            3.1764    -3.1583     1.7120 C.3     
  12 C12            4.5064    -3.9056     1.8292 C.3     
  13 H13            0.8165     1.8889     0.0044 H       
  14 H14           -0.8634     1.8661     0.0163 H       
  15 H15            2.1426    -0.1330    -0.0198 H       
  16 H16            0.0543    -3.8507    -0.0190 H       
  17 H17           -2.0947    -2.6519     0.0083 H       
  18 H18           -2.1337    -0.1911     0.0317 H       
  19 H19            3.2624    -2.1855     2.1961 H       
  20 H20            2.3904    -3.7372     2.1968 H       
  21 H21            5.2924    -3.3266     1.3444 H       
  22 H22            4.7538    -4.0441     2.8817 H       
  23 H23            4.4204    -4.8783     1.3451 H       
@<TRIPOS>BOND
   1    1    2 1
   2    1   13 1
   3    1   14 1
   4    2    3 ar
   5    2    7 ar
   6    3    4 ar
   7    3   15 1
   8    4    5 ar
   9    4    8 1
  10    5    6 ar
  11    5   16 1
  12    6    7 ar
  13    6   17 1
  14    7   18 1
  15    8    9 2
  16    8   10 2
  17    8   11 1
  18   11   12 1
  19   11   19 1
  20   11   20 1
  21   12   21 1
  22   12   22 1
  23   12   23 1

#	End of record

