#	Name: ASD01190004
#	Creating user name:	WinNT
#	Creation time:	15. 06. 2019 19:07

#	Modifying user name:	WinNT
#	Modification time:	15. 06. 2019 19:07

#	Program:	/corina/corina34_cracker 3.40 0067  02.08.2006

@<TRIPOS>MOLECULE
ASD01190004
  49   53    0    0    0
SMALL
NO_CHARGES


@<TRIPOS>ATOM
   1 C1            -0.9879     2.6812    -0.1414 C.1     
   2 C2             0.1542     1.9531    -0.7178 C.3     
   3 N3            -1.8693     3.2432     0.3034 N.1     
   4 C4             1.3879     0.9935     1.2573 C.ar    
   5 C5             2.5678     1.3148     1.9558 C.ar    
   6 C6             2.9606     0.5264     3.0395 C.ar    
   7 C7             2.1633    -0.5492     3.3835 C.ar    
   8 C8             1.0148    -0.8070     2.6513 C.ar    
   9 N9             0.6624    -0.0512     1.6330 N.ar    
  10 N10            1.2520     1.9203     0.2518 N.pl3   
  11 C11            3.1217     2.5001     1.2992 C.2     
  12 C12            2.2937     2.8082     0.2886 C.2     
  13 C13            4.3840     3.2299     1.6799 C.3     
  14 C14            4.6142     4.3908     0.7102 C.3     
  15 O15            4.2580     3.7378     3.0096 O.3     
  16 N16            8.8133    -0.2329     1.6757 N.pl3   
  17 N17            9.3192     0.0625     2.9459 N.2     
  18 C18            8.5744     0.9599     3.5269 C.2     
  19 C19            7.4933     1.3054     2.6093 C.ar    
  20 C20            6.4084     2.1868     2.6724 C.ar    
  21 C21            5.5526     2.2806     1.6134 C.ar    
  22 C22            5.7482     1.5088     0.4746 C.ar    
  23 C23            6.7999     0.6409     0.3897 C.ar    
  24 C24            7.6897     0.5240     1.4541 C.ar    
  25 C25            9.3675    -1.1493     0.7726 C.ar    
  26 C26           10.7453    -1.3067     0.6993 C.ar    
  27 C27           11.2896    -2.2106    -0.1916 C.ar    
  28 C28           10.4624    -2.9598    -1.0116 C.ar    
  29 C29            9.0882    -2.8044    -0.9401 C.ar    
  30 C30            8.5396    -1.9057    -0.0464 C.ar    
  31 F31           10.9969    -3.8433    -1.8829 F       
  32 F32            3.5294     5.2720     0.7719 F       
  33 F33            5.7860     5.0683     1.0636 F       
  34 F34            4.7375     3.8935    -0.5916 F       
  35 H35           -0.1486     0.9340    -0.9584 H       
  36 H36            0.4860     2.4574    -1.6254 H       
  37 H37            3.8610     0.7502     3.5923 H       
  38 H38            2.4329    -1.1833     4.2151 H       
  39 H39            0.3943    -1.6482     2.9229 H       
  40 H40            2.4274     3.6358    -0.3922 H       
  41 H41            4.1099     3.0557     3.6788 H       
  42 H42            8.7293     1.3742     4.5122 H       
  43 H43            6.2490     2.7896     3.5543 H       
  44 H44            5.0603     1.5958    -0.3534 H       
  45 H45            6.9405     0.0464    -0.5009 H       
  46 H46           11.3907    -0.7224     1.3384 H       
  47 H47           12.3611    -2.3331    -0.2492 H       
  48 H48            8.4449    -3.3894    -1.5807 H       
  49 H49            7.4676    -1.7883     0.0125 H       
@<TRIPOS>BOND
   1    1    2 1
   2    1    3 3
   3    2   10 1
   4    2   35 1
   5    2   36 1
   6    4    5 ar
   7    4    9 ar
   8    4   10 1
   9    5    6 ar
  10    5   11 1
  11    6    7 ar
  12    6   37 1
  13    7    8 ar
  14    7   38 1
  15    8    9 ar
  16    8   39 1
  17   10   12 1
  18   11   12 2
  19   11   13 1
  20   12   40 1
  21   13   14 1
  22   13   15 1
  23   13   21 1
  24   14   32 1
  25   14   33 1
  26   14   34 1
  27   15   41 1
  28   16   17 1
  29   16   24 1
  30   16   25 1
  31   17   18 2
  32   18   19 1
  33   18   42 1
  34   19   20 ar
  35   19   24 ar
  36   20   21 ar
  37   20   43 1
  38   21   22 ar
  39   22   23 ar
  40   22   44 1
  41   23   24 ar
  42   23   45 1
  43   25   26 ar
  44   25   30 ar
  45   26   27 ar
  46   26   46 1
  47   27   28 ar
  48   27   47 1
  49   28   29 ar
  50   28   31 1
  51   29   30 ar
  52   29   48 1
  53   30   49 1

#	End of record

