#	Name: ASD05213048
#	Creating user name:	WinNT
#	Creation time:	15. 06. 2019 20:57

#	Modifying user name:	WinNT
#	Modification time:	15. 06. 2019 20:57

#	Program:	/corina/corina34_cracker 3.40 0067  02.08.2006

@<TRIPOS>MOLECULE
ASD05213048
  43   45    0    0    0
SMALL
NO_CHARGES


@<TRIPOS>ATOM
   1 O1             3.6699    -8.5903    -0.0646 O.3     
   2 C2             2.7974    -7.5483    -0.0560 C.ar    
   3 C3             2.3429    -7.0127    -1.2523 C.ar    
   4 C4             1.4561    -5.9536    -1.2409 C.ar    
   5 C5             1.0214    -5.4273    -0.0384 C.ar    
   6 C6             1.4732    -5.9590     1.1552 C.ar    
   7 C7             2.3553    -7.0222     1.1492 C.ar    
   8 C8             0.0540    -4.2719    -0.0289 C.3     
   9 N9            -1.3157    -4.7809    -0.1344 N.pl3   
  10 C10           -1.9344    -4.8542    -1.3726 C.2     
  11 C11           -2.0314    -5.2125     1.0688 C.3     
  12 C12           -2.6757    -4.0188     1.7253 C.ar    
  13 S13           -3.5232    -5.4255    -1.6412 S.3     
  14 C14           -3.3487    -5.1307    -3.3693 C.2     
  15 C15           -2.1292    -4.6367    -3.5841 C.2     
  16 N16           -1.3943    -4.4942    -2.4954 N.2     
  17 C17           -3.9936    -3.7059     1.4485 C.ar    
  18 C18           -4.5856    -2.6118     2.0503 C.ar    
  19 C19           -3.8584    -1.8288     2.9308 C.ar    
  20 C20           -2.5386    -2.1432     3.2073 C.ar    
  21 C21           -1.9502    -3.2409     2.6083 C.ar    
  22 F22           -4.4360    -0.7587     3.5194 F       
  23 C23           -1.6312    -4.2653    -4.9571 C.3     
  24 C24           -4.3956    -5.3916    -4.4214 C.3     
  25 H25            4.5997    -8.3246    -0.0704 H       
  26 H26            2.6824    -7.4233    -2.1918 H       
  27 H27            1.1023    -5.5361    -2.1719 H       
  28 H28            1.1328    -5.5457     2.0932 H       
  29 H29            2.7079    -7.4372     2.0819 H       
  30 H30            0.1636    -3.7139     0.9010 H       
  31 H31            0.2637    -3.6154    -0.8734 H       
  32 H32           -2.7999    -5.9353     0.7948 H       
  33 H33           -1.3295    -5.6742     1.7632 H       
  34 H34           -4.5605    -4.3165     0.7614 H       
  35 H35           -5.6150    -2.3673     1.8337 H       
  36 H36           -1.9704    -1.5332     3.8939 H       
  37 H37           -0.9208    -3.4863     2.8238 H       
  38 H38           -1.8750    -3.2229    -5.1623 H       
  39 H39           -0.5506    -4.4011    -5.0007 H       
  40 H40           -2.1078    -4.9033    -5.7013 H       
  41 H41           -5.2916    -5.7955    -3.9502 H       
  42 H42           -4.6411    -4.4587    -4.9289 H       
  43 H43           -4.0113    -6.1093    -5.1462 H       
@<TRIPOS>BOND
   1    1    2 1
   2    1   25 1
   3    2    3 ar
   4    2    7 ar
   5    3    4 ar
   6    3   26 1
   7    4    5 ar
   8    4   27 1
   9    5    6 ar
  10    5    8 1
  11    6    7 ar
  12    6   28 1
  13    7   29 1
  14    8    9 1
  15    8   30 1
  16    8   31 1
  17    9   10 1
  18    9   11 1
  19   10   13 1
  20   10   16 2
  21   11   12 1
  22   11   32 1
  23   11   33 1
  24   12   17 ar
  25   12   21 ar
  26   13   14 1
  27   14   15 2
  28   14   24 1
  29   15   16 1
  30   15   23 1
  31   17   18 ar
  32   17   34 1
  33   18   19 ar
  34   18   35 1
  35   19   20 ar
  36   19   22 1
  37   20   21 ar
  38   20   36 1
  39   21   37 1
  40   23   38 1
  41   23   39 1
  42   23   40 1
  43   24   41 1
  44   24   42 1
  45   24   43 1

#	End of record

