#	Name: ASD03320169
#	Creating user name:	WinNT
#	Creation time:	15. 06. 2019 20:36

#	Modifying user name:	WinNT
#	Modification time:	15. 06. 2019 20:36

#	Program:	/corina/corina34_cracker 3.40 0067  02.08.2006

@<TRIPOS>MOLECULE
ASD03320169
  42   44    0    0    0
SMALL
NO_CHARGES


@<TRIPOS>ATOM
   1 C1            -0.0077     1.3437    -0.1945 C.ar    
   2 C2             0.0217    -0.0349     0.0276 C.ar    
   3 C3            -1.1531    -0.7587     0.0439 C.ar    
   4 C4            -2.3651    -0.1247    -0.1588 C.ar    
   5 C5            -2.4072     1.2529    -0.3813 C.ar    
   6 C6            -1.2279     1.9887    -0.3942 C.ar    
   7 C7             1.2508     2.1180    -0.2118 C.2     
   8 O8             1.2237     3.3179    -0.4053 O.2     
   9 N9             2.4288     1.4939    -0.0131 N.am    
  10 C10            3.6277     2.2086    -0.1264 C.ar    
  11 C11           -3.7089     1.9313    -0.5987 C.ar    
  12 C12            3.6885     3.5330     0.2864 C.ar    
  13 C13            4.8711     4.2371     0.1743 C.ar    
  14 C14            5.9980     3.6219    -0.3510 C.ar    
  15 C15            5.9379     2.2988    -0.7636 C.ar    
  16 C16            4.7578     1.5915    -0.6464 C.ar    
  17 O17            7.1618     4.3161    -0.4619 O.3     
  18 C18            8.2824     3.6203    -1.0115 C.3     
  19 F19            7.9754     3.1918    -2.3074 F       
  20 F20            9.3882     4.4763    -1.0531 F       
  21 F21            8.5808     2.5116    -0.2121 F       
  22 Cl22          -3.8377    -1.0438    -0.1370 Cl      
  23 C23           -4.6260     1.4402    -1.5311 C.ar    
  24 N24           -5.7748     2.0726    -1.6951 N.ar    
  25 C25           -6.0605     3.1560    -0.9906 C.ar    
  26 N26           -5.2184     3.6519    -0.0981 N.ar    
  27 C27           -4.0515     3.0741     0.1280 C.ar    
  28 O28           -7.2487     3.7752    -1.1889 O.3     
  29 C29           -7.5118     4.9406    -0.4050 C.3     
  30 H30            0.9654    -0.5353     0.1865 H       
  31 H31           -1.1258    -1.8246     0.2154 H       
  32 H32           -1.2558     3.0546    -0.5661 H       
  33 H33            2.4461     0.5497     0.2084 H       
  34 H34            2.8111     4.0124     0.6948 H       
  35 H35            4.9186     5.2672     0.4954 H       
  36 H36            6.8156     1.8205    -1.1728 H       
  37 H37            4.7112     0.5615    -0.9677 H       
  38 H38           -4.3993     0.5569    -2.1097 H       
  39 H39           -3.3692     3.4843     0.8578 H       
  40 H40           -7.4907     4.6793     0.6529 H       
  41 H41           -6.7511     5.6945    -0.6082 H       
  42 H42           -8.4941     5.3372    -0.6619 H       
@<TRIPOS>BOND
   1    1    2 ar
   2    1    7 1
   3    1    6 ar
   4    2    3 ar
   5    2   30 1
   6    3    4 ar
   7    3   31 1
   8    4    5 ar
   9    4   22 1
  10    5    6 ar
  11    5   11 1
  12    6   32 1
  13    7    8 2
  14    7    9 am
  15    9   10 1
  16    9   33 1
  17   10   12 ar
  18   10   16 ar
  19   11   23 ar
  20   11   27 ar
  21   12   13 ar
  22   12   34 1
  23   13   14 ar
  24   13   35 1
  25   14   15 ar
  26   14   17 1
  27   15   16 ar
  28   15   36 1
  29   16   37 1
  30   17   18 1
  31   18   19 1
  32   18   20 1
  33   18   21 1
  34   23   24 ar
  35   23   38 1
  36   24   25 ar
  37   25   26 ar
  38   25   28 1
  39   26   27 ar
  40   27   39 1
  41   28   29 1
  42   29   40 1
  43   29   41 1
  44   29   42 1

#	End of record

