#	Name: ASD02500635
#	Creating user name:	WinNT
#	Creation time:	15. 06. 2019 20:23

#	Modifying user name:	WinNT
#	Modification time:	15. 06. 2019 20:23

#	Program:	/corina/corina34_cracker 3.40 0067  02.08.2006

@<TRIPOS>MOLECULE
ASD02500635
  65   69    0    0    0
SMALL
NO_CHARGES


@<TRIPOS>ATOM
   1 N1            -3.5352     5.5766    -0.0129 N.ar    
   2 C2            -4.6608     6.2147    -0.2231 C.ar    
   3 C3            -5.7809     6.0097     0.5799 C.ar    
   4 C4            -5.7226     5.1240     1.6178 C.ar    
   5 C5            -4.5123     4.4402     1.8403 C.ar    
   6 C6            -4.3770     3.5154     2.8878 C.ar    
   7 C7            -3.1894     2.8746     3.0705 C.ar    
   8 C8            -2.1056     3.1249     2.2315 C.ar    
   9 C9            -2.2019     4.0151     1.2065 C.ar    
  10 C10           -3.4113     4.6965     0.9857 C.ar    
  11 S11           -0.8154     4.3131     0.1608 S.o2    
  12 O12           -0.6575     5.7239     0.0961 O.2     
  13 O13            0.2130     3.4353     0.5981 O.2     
  14 N14           -1.2354     3.8192    -1.3629 N.am    
  15 C15           -1.4422     2.4667    -1.6244 C.ar    
  16 C16           -1.1129     1.9402    -2.8752 C.ar    
  17 C17           -1.3175     0.6005    -3.1350 C.ar    
  18 C18           -1.8547    -0.2271    -2.1438 C.ar    
  19 C19           -2.1822     0.3053    -0.8943 C.ar    
  20 C20           -1.9708     1.6422    -0.6380 C.ar    
  21 O21           -0.5911     2.7477    -3.8372 O.3     
  22 C22           -0.2776     2.1419    -5.0929 C.3     
  23 C23           -2.0755    -1.6599    -2.4173 C.2     
  24 O24           -2.5072    -2.0131    -3.4978 O.2     
  25 N25           -1.7989    -2.5773    -1.4696 N.am    
  26 C26           -1.9247    -4.0153    -1.7514 C.3     
  27 C27           -0.6229    -4.7086    -1.3356 C.3     
  28 N28           -0.3183    -4.3739     0.0619 N.3     
  29 C29           -0.0834    -2.9331     0.2257 C.3     
  30 C30           -1.3572    -2.1672    -0.1279 C.3     
  31 C31            0.8264    -5.1530     0.5524 C.3     
  32 C32            1.2635    -4.6154     1.8907 C.ar    
  33 C33            0.7144    -5.1248     3.0526 C.ar    
  34 C34            1.1156    -4.6320     4.2810 C.ar    
  35 C35            2.0675    -3.6283     4.3462 C.ar    
  36 C36            2.6158    -3.1198     3.1828 C.ar    
  37 C37            2.2174    -3.6172     1.9559 C.ar    
  38 Cl38           2.5718    -3.0082     5.8873 Cl      
  39 Cl39           0.4259    -5.2710     5.7404 Cl      
  40 H40           -4.7214     6.9182    -1.0403 H       
  41 H41           -6.6942     6.5511     0.3819 H       
  42 H42           -6.5811     4.9531     2.2504 H       
  43 H43           -5.2098     3.3135     3.5452 H       
  44 H44           -3.0861     2.1633     3.8765 H       
  45 H45           -1.1740     2.6044     2.3975 H       
  46 H46           -1.3374     4.4716    -2.0734 H       
  47 H47           -1.0636     0.1919    -4.1019 H       
  48 H48           -2.5974    -0.3322    -0.1279 H       
  49 H49           -2.2203     2.0514     0.3298 H       
  50 H50            0.4590     1.3527    -4.9418 H       
  51 H51           -1.1823     1.7163    -5.5269 H       
  52 H52            0.1298     2.8947    -5.7679 H       
  53 H53           -2.7575    -4.4285    -1.1823 H       
  54 H54           -2.0955    -4.1660    -2.8173 H       
  55 H55           -0.7381    -5.7880    -1.4343 H       
  56 H56            0.1907    -4.3692    -1.9766 H       
  57 H57            0.1927    -2.7247     1.2594 H       
  58 H58            0.7227    -2.6183    -0.4370 H       
  59 H59           -1.1530    -1.0965    -0.1211 H       
  60 H60           -2.1344    -2.3992     0.6002 H       
  61 H61            0.5359    -6.1983     0.6580 H       
  62 H62            1.6500    -5.0747    -0.1572 H       
  63 H63           -0.0282    -5.9074     3.0011 H       
  64 H64            3.3582    -2.3370     3.2328 H       
  65 H65            2.6488    -3.2228     1.0477 H       
@<TRIPOS>BOND
   1    1    2 ar
   2    1   10 ar
   3    2    3 ar
   4    2   40 1
   5    3    4 ar
   6    3   41 1
   7    4    5 ar
   8    4   42 1
   9    5    6 ar
  10    5   10 ar
  11    6    7 ar
  12    6   43 1
  13    7    8 ar
  14    7   44 1
  15    8    9 ar
  16    8   45 1
  17    9   10 ar
  18    9   11 1
  19   11   12 2
  20   11   13 2
  21   11   14 am
  22   14   15 1
  23   14   46 1
  24   15   16 ar
  25   15   20 ar
  26   16   17 ar
  27   16   21 1
  28   17   18 ar
  29   17   47 1
  30   18   19 ar
  31   18   23 1
  32   19   20 ar
  33   19   48 1
  34   20   49 1
  35   21   22 1
  36   22   50 1
  37   22   51 1
  38   22   52 1
  39   23   24 2
  40   23   25 am
  41   25   26 1
  42   25   30 1
  43   26   27 1
  44   26   53 1
  45   26   54 1
  46   27   28 1
  47   27   55 1
  48   27   56 1
  49   28   29 1
  50   28   31 1
  51   29   30 1
  52   29   57 1
  53   29   58 1
  54   30   59 1
  55   30   60 1
  56   31   32 1
  57   31   61 1
  58   31   62 1
  59   32   33 ar
  60   32   37 ar
  61   33   34 ar
  62   33   63 1
  63   34   35 ar
  64   34   39 1
  65   35   36 ar
  66   35   38 1
  67   36   37 ar
  68   36   64 1
  69   37   65 1

#	End of record

