#	Name: ASD02860002
#	Creating user name:	WinNT
#	Creation time:	15. 06. 2019 20:26

#	Modifying user name:	WinNT
#	Modification time:	15. 06. 2019 20:26

#	Program:	/corina/corina34_cracker 3.40 0067  02.08.2006

@<TRIPOS>MOLECULE
ASD02860002
 156  161    0    0    0
SMALL
NO_CHARGES


@<TRIPOS>ATOM
   1 N1            -1.1736     2.8077     0.0091 N.3     
   2 C2            -0.6259     1.4766    -0.2845 C.3     
   3 C3            -0.1638     1.4285    -1.7181 C.2     
   4 C4            -1.7090     0.4191    -0.0620 C.3     
   5 N5             0.7199     0.4895    -2.1101 N.am    
   6 O6            -0.5871     2.2349    -2.5190 O.2     
   7 C7            -2.0838     0.3831     1.3972 C.2     
   8 C8            -1.5853    -0.4441     2.3295 C.2     
   9 N9            -2.1635    -0.1832     3.5418 N.pl3   
  10 C10           -3.0713     0.8444     3.4160 C.ar    
  11 C11           -3.0566     1.2484     2.0686 C.ar    
  12 C12           -3.9154     1.4919     4.3125 C.ar    
  13 C13           -4.7283     2.5128     3.8714 C.ar    
  14 C14           -4.7147     2.9036     2.5393 C.ar    
  15 C15           -3.8881     2.2864     1.6434 C.ar    
  16 C16            1.1692     0.4427    -3.5037 C.3     
  17 C17            1.8397     1.7447    -3.8593 C.2     
  18 N18            2.6749     1.8062    -4.9153 N.am    
  19 O19            1.6277     2.7371    -3.1952 O.2     
  20 C20           -0.0355     0.2223    -4.4208 C.3     
  21 C21           -0.6416    -1.1551    -4.1445 C.3     
  22 C22           -1.8463    -1.3754    -5.0615 C.3     
  23 N23           -2.4266    -2.6943    -4.7970 N.pl3   
  24 C24           -3.5265    -3.1161    -5.5058 C.2     
  25 N25           -4.0711    -4.3539    -5.2575 N.am    
  26 N26           -4.0530    -2.3426    -6.4132 N.2     
  27 C27            3.3267     3.0718    -5.2609 C.3     
  28 C28            4.2153     2.8689    -6.4898 C.3     
  29 C29            4.8960     4.1907    -6.8508 C.3     
  30 N30            5.7492     3.9959    -8.0307 N.3     
  31 C31            6.4205     5.2471    -8.4073 C.3     
  32 C32            7.2979     5.0049    -9.6371 C.3     
  33 C33            7.9971     6.3080   -10.0294 C.3     
  34 N34            8.8372     6.0762   -11.2070 N.am    
  35 C35            9.5528     7.0892   -11.7343 C.2     
  36 C36           10.4169     6.8507   -12.9457 C.3     
  37 O37            9.5012     8.1928   -11.2340 O.2     
  38 N38           11.0864     8.0985   -13.3212 N.am    
  39 C39           11.4875     8.2916   -14.5934 C.2     
  40 C40           12.1762     9.5751   -14.9797 C.3     
  41 O41           11.2941     7.4324   -15.4272 O.2     
  42 N42           12.9234     9.3733   -16.2283 N.3     
  43 C43           11.1308    10.6737   -15.1829 C.3     
  44 C44           11.8249    11.9847   -15.4485 C.2     
  45 C45           12.1222    12.9289   -14.5418 C.2     
  46 N46           12.7517    13.9795   -15.1518 N.pl3   
  47 C47           12.8780    13.7307   -16.5000 C.ar    
  48 C48           12.3088    12.4677   -16.7440 C.ar    
  49 C49           13.4264    14.4472   -17.5590 C.ar    
  50 C50           13.4004    13.9169   -18.8301 C.ar    
  51 C51           12.8318    12.6726   -19.0667 C.ar    
  52 C52           12.2942    11.9487   -18.0403 C.ar    
  53 C53           11.4669     5.7862   -12.6214 C.3     
  54 C54           12.2633     5.4538   -13.8849 C.3     
  55 C55           13.3132     4.3892   -13.5606 C.3     
  56 N56           14.0757     4.0710   -14.7704 N.pl3   
  57 C57           15.0811     3.1344   -14.7228 C.2     
  58 N58           15.3558     2.5296   -13.6014 N.2     
  59 N59           15.7966     2.8358   -15.8581 N.pl3   
  60 S60           -5.3230    -4.9095    -6.1884 S.o2    
  61 O61           -4.8680    -4.8759    -7.5341 O.2     
  62 O62           -5.7982    -6.0910    -5.5579 O.2     
  63 C63           -6.6237    -3.7265    -6.0731 C.ar    
  64 C64           -7.2507    -3.5041    -4.8613 C.ar    
  65 C65           -8.2705    -2.5784    -4.7725 C.ar    
  66 C66           -8.6706    -1.8675    -5.8992 C.ar    
  67 C67           -8.0381    -2.0893    -7.1103 C.ar    
  68 C68           -7.0133    -3.0168    -7.1926 C.ar    
  69 O69           -9.6850    -0.9726    -5.7749 O.3     
  70 C70           -9.8436     0.0040    -6.8050 C.3     
  71 C71           -9.8198    -0.7136    -8.1606 C.3     
  72 C72           -8.4328    -1.3322    -8.3529 C.3     
  73 C73           -6.3274    -3.2615    -8.5119 C.3     
  74 C74           -6.8212    -4.2723    -3.6380 C.3     
  75 C75           -8.9531    -2.3373    -3.4508 C.3     
  76 C76          -11.1805     0.7268    -6.6282 C.3     
  77 C77           -8.6975     1.0152    -6.7372 C.3     
  78 H78           -0.4603     3.5172    -0.0680 H       
  79 H79           -1.9576     3.0165    -0.5908 H       
  80 H80            0.2178     1.2771     0.3762 H       
  81 H81           -2.5878     0.6684    -0.6568 H       
  82 H82           -1.3308    -0.5575    -0.3642 H       
  83 H83            1.0585    -0.1554    -1.4694 H       
  84 H84           -0.8388    -1.2036     2.1492 H       
  85 H85           -1.9639    -0.6525     4.3669 H       
  86 H86           -3.9335     1.1950     5.3507 H       
  87 H87           -5.3831     3.0139     4.5689 H       
  88 H88           -5.3585     3.7056     2.2098 H       
  89 H89           -3.8829     2.5958     0.6087 H       
  90 H90            1.8768    -0.3767    -3.6301 H       
  91 H91            2.8445     1.0124    -5.4464 H       
  92 H92           -0.7827     0.9928    -4.2306 H       
  93 H93            0.2852     0.2761    -5.4611 H       
  94 H94            0.1056    -1.9256    -4.3346 H       
  95 H95           -0.9623    -1.2088    -3.1041 H       
  96 H96           -2.5934    -0.6049    -4.8714 H       
  97 H97           -1.5256    -1.3217    -6.1019 H       
  98 H98           -2.0348    -3.2700    -4.1217 H       
  99 H99           -3.7221    -4.9016    -4.5371 H       
 100 H100          -4.8789    -2.6013    -6.8512 H       
 101 H101           2.5681     3.8229    -5.4811 H       
 102 H102           3.9372     3.4070    -4.4225 H       
 103 H103           4.9739     2.1178    -6.2696 H       
 104 H104           3.6048     2.5337    -7.3283 H       
 105 H105           4.1374     4.9418    -7.0710 H       
 106 H106           5.5065     4.5259    -6.0124 H       
 107 H107           6.4199     3.2586    -7.8741 H       
 108 H108           5.6725     6.0055    -8.6383 H       
 109 H109           7.0416     5.5895    -7.5796 H       
 110 H110           8.0459     4.2465    -9.4062 H       
 111 H111           6.6768     4.6624   -10.4648 H       
 112 H112           7.2491     7.0664   -10.2604 H       
 113 H113           8.6182     6.6505    -9.2017 H       
 114 H114           8.8785     5.1935   -11.6071 H       
 115 H115           9.7959     6.5082   -13.7733 H       
 116 H116          11.2411     8.7857   -12.6544 H       
 117 H117          12.8646     9.8706   -14.1880 H       
 118 H118          13.6626     8.6983   -16.1022 H       
 119 H119          12.3069     9.0985   -16.9783 H       
 120 H120          10.4970    10.4195   -16.0325 H       
 121 H121          10.5178    10.7623   -14.2859 H       
 122 H122          11.8973    12.8684   -13.4872 H       
 123 H123          13.0624    14.7805   -14.7014 H       
 124 H124          13.8708    15.4161   -17.3852 H       
 125 H125          13.8264    14.4748   -19.6509 H       
 126 H126          12.8193    12.2713   -20.0693 H       
 127 H127          11.8536    10.9815   -18.2318 H       
 128 H128          12.1431     6.1644   -11.8547 H       
 129 H129          10.9715     4.8863   -12.2570 H       
 130 H130          11.5871     5.0755   -14.6515 H       
 131 H131          12.7587     6.3537   -14.2493 H       
 132 H132          13.9894     4.7675   -12.7940 H       
 133 H133          12.8178     3.4893   -13.1962 H       
 134 H134          13.8713     4.5211   -15.6050 H       
 135 H135          16.0651     1.8688   -13.5678 H       
 136 H136          15.5922     3.2859   -16.6927 H       
 137 H137          16.5060     2.1750   -15.8246 H       
 138 H138         -10.5769    -1.4977    -8.1746 H       
 139 H139         -10.0166     0.0022    -8.9587 H       
 140 H140          -7.7063    -0.5420    -8.5424 H       
 141 H141          -8.4548    -2.0152    -9.2021 H       
 142 H142          -5.3359    -2.8091    -8.4953 H       
 143 H143          -6.2345    -4.3345    -8.6796 H       
 144 H144          -6.9158    -2.8179    -9.3151 H       
 145 H145          -6.0322    -3.7241    -3.1231 H       
 146 H146          -7.6730    -4.3967    -2.9695 H       
 147 H147          -6.4476    -5.2518    -3.9367 H       
 148 H148          -8.4325    -1.5456    -2.9120 H       
 149 H149          -9.9870    -2.0394    -3.6248 H       
 150 H150          -8.9334    -3.2528    -2.8594 H       
 151 H151         -11.2011     1.2199    -5.6563 H       
 152 H152         -11.2981     1.4710    -7.4158 H       
 153 H153         -11.9946     0.0044    -6.6865 H       
 154 H154          -7.7478     0.4977    -6.8729 H       
 155 H155          -8.8218     1.7587    -7.5245 H       
 156 H156          -8.7062     1.5097    -5.7659 H       
@<TRIPOS>BOND
   1    1    2 1
   2    1   78 1
   3    1   79 1
   4    2    3 1
   5    2    4 1
   6    2   80 1
   7    3    5 am
   8    3    6 2
   9    4    7 1
  10    4   81 1
  11    4   82 1
  12    5   16 1
  13    5   83 1
  14    7    8 2
  15    7   11 1
  16    8    9 1
  17    8   84 1
  18    9   10 1
  19    9   85 1
  20   10   11 ar
  21   10   12 ar
  22   11   15 ar
  23   12   13 ar
  24   12   86 1
  25   13   14 ar
  26   13   87 1
  27   14   15 ar
  28   14   88 1
  29   15   89 1
  30   16   17 1
  31   16   20 1
  32   16   90 1
  33   17   18 am
  34   17   19 2
  35   18   27 1
  36   18   91 1
  37   20   21 1
  38   20   92 1
  39   20   93 1
  40   21   22 1
  41   21   94 1
  42   21   95 1
  43   22   23 1
  44   22   96 1
  45   22   97 1
  46   23   24 1
  47   23   98 1
  48   24   25 1
  49   24   26 2
  50   25   60 am
  51   25   99 1
  52   26  100 1
  53   27   28 1
  54   27  101 1
  55   27  102 1
  56   28   29 1
  57   28  103 1
  58   28  104 1
  59   29   30 1
  60   29  105 1
  61   29  106 1
  62   30   31 1
  63   30  107 1
  64   31   32 1
  65   31  108 1
  66   31  109 1
  67   32   33 1
  68   32  110 1
  69   32  111 1
  70   33   34 1
  71   33  112 1
  72   33  113 1
  73   34   35 am
  74   34  114 1
  75   35   36 1
  76   35   37 2
  77   36   38 1
  78   36   53 1
  79   36  115 1
  80   38   39 am
  81   38  116 1
  82   39   40 1
  83   39   41 2
  84   40   42 1
  85   40   43 1
  86   40  117 1
  87   42  118 1
  88   42  119 1
  89   43   44 1
  90   43  120 1
  91   43  121 1
  92   44   45 2
  93   44   48 1
  94   45   46 1
  95   45  122 1
  96   46   47 1
  97   46  123 1
  98   47   48 ar
  99   47   49 ar
 100   48   52 ar
 101   49   50 ar
 102   49  124 1
 103   50   51 ar
 104   50  125 1
 105   51   52 ar
 106   51  126 1
 107   52  127 1
 108   53   54 1
 109   53  128 1
 110   53  129 1
 111   54   55 1
 112   54  130 1
 113   54  131 1
 114   55   56 1
 115   55  132 1
 116   55  133 1
 117   56   57 1
 118   56  134 1
 119   57   58 2
 120   57   59 1
 121   58  135 1
 122   59  136 1
 123   59  137 1
 124   60   61 2
 125   60   62 2
 126   60   63 1
 127   63   64 ar
 128   63   68 ar
 129   64   65 ar
 130   64   74 1
 131   65   66 ar
 132   65   75 1
 133   66   67 ar
 134   66   69 1
 135   67   68 ar
 136   67   72 1
 137   68   73 1
 138   69   70 1
 139   70   71 1
 140   70   76 1
 141   70   77 1
 142   71   72 1
 143   71  138 1
 144   71  139 1
 145   72  140 1
 146   72  141 1
 147   73  142 1
 148   73  143 1
 149   73  144 1
 150   74  145 1
 151   74  146 1
 152   74  147 1
 153   75  148 1
 154   75  149 1
 155   75  150 1
 156   76  151 1
 157   76  152 1
 158   76  153 1
 159   77  154 1
 160   77  155 1
 161   77  156 1

#	End of record

