#	Name: ASD05633006
#	Creating user name:	WinNT
#	Creation time:	15. 06. 2019 21:01

#	Modifying user name:	WinNT
#	Modification time:	15. 06. 2019 21:01

#	Program:	/corina/corina34_cracker 3.40 0067  02.08.2006

@<TRIPOS>MOLECULE
ASD05633006
  45   47    0    0    0
SMALL
NO_CHARGES


@<TRIPOS>ATOM
   1 C1            -0.0167     1.3779     0.0096 C.ar    
   2 C2             0.0021    -0.0041     0.0020 C.ar    
   3 C3            -1.1857    -0.7116     0.0095 C.ar    
   4 C4            -2.3919    -0.0369     0.0251 C.ar    
   5 C5            -2.4106     1.3455     0.0336 C.ar    
   6 C6            -1.2232     2.0528     0.0305 C.ar    
   7 S7             1.4971     2.2796     0.0000 S.o2    
   8 O8             1.1710     3.5184     0.6150 O.2     
   9 O9             2.4369     1.3929     0.5915 O.2     
  10 C10            1.8692     2.5206    -1.7590 C.3     
  11 C11           -3.7258     2.0812     0.0501 C.3     
  12 C12           -4.1512     2.3178     1.4763 C.2     
  13 N13           -5.3053     2.9632     1.7370 N.am    
  14 O14           -3.4549     1.9275     2.3894 O.2     
  15 C15           -5.7188     3.1932     3.1235 C.3     
  16 C16           -6.4863     1.9985     3.6478 C.ar    
  17 C17           -7.6000     2.4278     4.3448 C.ar    
  18 C18           -7.6572     3.9404     4.3365 C.3     
  19 C19           -6.7098     4.3742     3.1979 C.3     
  20 C20           -6.2305     0.6429     3.5244 C.ar    
  21 C21           -7.0844    -0.2802     4.0953 C.ar    
  22 C22           -8.1984     0.1492     4.7924 C.ar    
  23 C23           -8.4549     1.5005     4.9169 C.ar    
  24 C24            3.1577     3.2896    -1.8991 C.2     
  25 O25            3.7629     3.6391    -0.9134 O.2     
  26 O26            3.6330     3.5862    -3.1188 O.3     
  27 H27            0.9446    -0.5313    -0.0101 H       
  28 H28           -1.1711    -1.7915     0.0029 H       
  29 H29           -3.3198    -0.5895     0.0302 H       
  30 H30           -1.2378     3.1327     0.0372 H       
  31 H31            1.9704     1.5504    -2.2452 H       
  32 H32            1.0597     3.0796    -2.2283 H       
  33 H33           -3.6131     3.0384    -0.4590 H       
  34 H34           -4.4820     1.4849    -0.4605 H       
  35 H35           -5.8621     3.2753     1.0067 H       
  36 H36           -4.8482     3.3880     3.7498 H       
  37 H37           -8.6730     4.2794     4.1332 H       
  38 H38           -7.3090     4.3372     5.2901 H       
  39 H39           -6.1924     5.2985     3.4553 H       
  40 H40           -7.2549     4.4822     2.2602 H       
  41 H41           -5.3607     0.3067     2.9796 H       
  42 H42           -6.8819    -1.3366     3.9975 H       
  43 H43           -8.8672    -0.5714     5.2395 H       
  44 H44           -9.3253     1.8352     5.4616 H       
  45 H45            4.4630     4.0809    -3.1582 H       
@<TRIPOS>BOND
   1    1    2 ar
   2    1    7 1
   3    1    6 ar
   4    2    3 ar
   5    2   27 1
   6    3    4 ar
   7    3   28 1
   8    4    5 ar
   9    4   29 1
  10    5    6 ar
  11    5   11 1
  12    6   30 1
  13    7    8 2
  14    7    9 2
  15    7   10 1
  16   10   24 1
  17   10   31 1
  18   10   32 1
  19   11   12 1
  20   11   33 1
  21   11   34 1
  22   12   13 am
  23   12   14 2
  24   13   15 1
  25   13   35 1
  26   15   16 1
  27   15   19 1
  28   15   36 1
  29   16   17 ar
  30   16   20 ar
  31   17   18 1
  32   17   23 ar
  33   18   19 1
  34   18   37 1
  35   18   38 1
  36   19   39 1
  37   19   40 1
  38   20   21 ar
  39   20   41 1
  40   21   22 ar
  41   21   42 1
  42   22   23 ar
  43   22   43 1
  44   23   44 1
  45   24   25 2
  46   24   26 1
  47   26   45 1

#	End of record

