#	Name: ASD00842814
#	Creating user name:	WinNT
#	Creation time:	15. 06. 2019 18:45

#	Modifying user name:	WinNT
#	Modification time:	15. 06. 2019 18:45

#	Program:	/corina/corina34_cracker 3.40 0067  02.08.2006

@<TRIPOS>MOLECULE
ASD00842814
  96  101    0    0    0
SMALL
NO_CHARGES


@<TRIPOS>ATOM
   1 N1            -0.0051     1.3211     0.0355 N.ar    
   2 C2             0.0089    -0.0012     0.0185 C.ar    
   3 C3             1.2116    -0.6961    -0.0015 C.ar    
   4 C4             2.3994     0.0138    -0.0035 C.ar    
   5 C5             2.3418     1.4008     0.0147 C.ar    
   6 C6             1.1109     2.0254     0.0341 C.ar    
   7 C7             1.2227    -2.2030    -0.0203 C.3     
   8 C8             0.4753    -2.7238    -1.2294 C.2     
   9 N9             2.5989    -2.7050    -0.0122 N.am    
  10 C10            3.4467    -2.3635    -1.0028 C.2     
  11 N11            4.7402    -2.7372    -0.9415 N.am    
  12 O12            3.0445    -1.7184    -1.9517 O.2     
  13 C13            5.2676    -3.4159     0.2500 C.3     
  14 C14            6.4984    -2.6520     0.7484 C.3     
  15 C15            7.5064    -2.5152    -0.3949 C.3     
  16 C16            6.8759    -1.7204    -1.5408 C.3     
  17 C17            5.6481    -2.4789    -2.0674 C.3     
  18 N18            8.7022    -1.8120     0.0884 N.3     
  19 C19            9.7417    -1.7661    -0.9494 C.3     
  20 C20           10.9363    -0.9588    -0.4358 C.3     
  21 N21           11.4506    -1.5783     0.7936 N.3     
  22 C22           10.4111    -1.6242     1.8314 C.3     
  23 C23            9.2165    -2.4314     1.3178 C.3     
  24 C24           12.6463    -0.8751     1.2769 C.3     
  25 O25            0.7556    -2.5211    -2.3919 O.2     
  26 N26           -0.5572    -3.4524    -0.7728 N.am    
  27 C27            0.4484    -2.7529     1.1556 C.ar    
  28 C28           -0.6018    -3.4897     0.6218 C.ar    
  29 C29            0.6133    -2.6432     2.5179 C.ar    
  30 C30           -0.2747    -3.2723     3.3743 C.ar    
  31 C31           -1.3264    -4.0103     2.8547 C.ar    
  32 C32           -1.4923    -4.1206     1.4874 C.ar    
  33 Cl33          -0.0708    -3.1375     5.0930 Cl      
  34 F34           -2.1935    -4.6246     3.6890 F       
  35 C35           -1.0276    -5.8359    -2.0659 C.ar    
  36 C36            0.1502    -5.9981    -2.7813 C.ar    
  37 C37           -1.7088    -6.9420    -1.5943 C.ar    
  38 C38           -1.2191    -8.2115    -1.8334 C.ar    
  39 C39           -0.0414    -8.3790    -2.5486 C.ar    
  40 C40            0.6435    -7.2712    -3.0230 C.ar    
  41 O41            0.4396    -9.6280    -2.7838 O.3     
  42 O42            0.8194    -4.9100    -3.2451 O.3     
  43 C43            2.0248    -5.1517    -3.9736 C.3     
  44 C44           -0.3182   -10.7232    -2.2658 C.3     
  45 C45           13.0055    -1.3815     2.6753 C.3     
  46 C46           14.2509    -0.6492     3.1787 C.3     
  47 O47           -1.1626    -0.6857     0.0212 O.3     
  48 C48           -2.3649     0.0863     0.0426 C.3     
  49 C49           -3.5735    -0.8519     0.0424 C.3     
  50 F50           -3.5485    -1.6442    -1.1104 F       
  51 F51           -3.5264    -1.6733     1.1739 F       
  52 S52           -1.6513    -4.2181    -1.7521 S.o2    
  53 O53           -2.8323    -4.3862    -0.9799 O.2     
  54 O54           -1.6269    -3.5306    -2.9955 O.2     
  55 H55            3.3496    -0.4994    -0.0185 H       
  56 H56            3.2502     1.9848     0.0141 H       
  57 H57            1.0605     3.1041     0.0480 H       
  58 H58            2.9001    -3.2832     0.7061 H       
  59 H59            4.5060    -3.4302     1.0297 H       
  60 H60            5.5504    -4.4370    -0.0062 H       
  61 H61            6.1982    -1.6611     1.0892 H       
  62 H62            6.9560    -3.1979     1.5735 H       
  63 H63            7.7875    -3.5060    -0.7518 H       
  64 H64            6.5721    -0.7384    -1.1784 H       
  65 H65            7.6022    -1.6033    -2.3451 H       
  66 H66            5.9645    -3.4222    -2.5124 H       
  67 H67            5.1373    -1.8727    -2.8155 H       
  68 H68           10.0632    -2.7801    -1.1872 H       
  69 H69            9.3405    -1.2920    -1.8452 H       
  70 H70           11.7203    -0.9479    -1.1930 H       
  71 H71           10.6207     0.0627    -0.2238 H       
  72 H72           10.8123    -2.0983     2.7272 H       
  73 H73           10.0896    -0.6102     2.0692 H       
  74 H74            8.4325    -2.4424     2.0749 H       
  75 H75            9.5321    -3.4530     1.1058 H       
  76 H76           13.4778    -1.0632     0.5977 H       
  77 H77           12.4463     0.1956     1.3185 H       
  78 H78            1.4345    -2.0674     2.9184 H       
  79 H79           -2.3142    -4.6970     1.0889 H       
  80 H80           -2.6254    -6.8137    -1.0377 H       
  81 H81           -1.7529    -9.0743    -1.4633 H       
  82 H82            1.5599    -7.3995    -3.5799 H       
  83 H83            2.7334    -5.6823    -3.3378 H       
  84 H84            1.8028    -5.7559    -4.8532 H       
  85 H85            2.4576    -4.2012    -4.2856 H       
  86 H86           -0.3884   -10.6358    -1.1816 H       
  87 H87           -1.3191   -10.7088    -2.6971 H       
  88 H88            0.1750   -11.6604    -2.5236 H       
  89 H89           12.1740    -1.1934     3.3545 H       
  90 H90           13.2056    -2.4522     2.6337 H       
  91 H91           15.0824    -0.8373     2.4995 H       
  92 H92           14.0508     0.4215     3.2203 H       
  93 H93           14.5068    -1.0100     4.1749 H       
  94 H94           -2.3844     0.7036     0.9408 H       
  95 H95           -2.4016     0.7263    -0.8390 H       
  96 H96           -4.4906    -0.2631     0.0587 H       
@<TRIPOS>BOND
   1    1    2 ar
   2    1    6 ar
   3    2    3 ar
   4    2   47 1
   5    3    4 ar
   6    3    7 1
   7    4    5 ar
   8    4   55 1
   9    5    6 ar
  10    5   56 1
  11    6   57 1
  12    7    8 1
  13    7    9 1
  14    7   27 1
  15    8   25 2
  16    8   26 am
  17    9   10 am
  18    9   58 1
  19   10   11 am
  20   10   12 2
  21   11   13 1
  22   11   17 1
  23   13   14 1
  24   13   59 1
  25   13   60 1
  26   14   15 1
  27   14   61 1
  28   14   62 1
  29   15   16 1
  30   15   18 1
  31   15   63 1
  32   16   17 1
  33   16   64 1
  34   16   65 1
  35   17   66 1
  36   17   67 1
  37   18   19 1
  38   18   23 1
  39   19   20 1
  40   19   68 1
  41   19   69 1
  42   20   21 1
  43   20   70 1
  44   20   71 1
  45   21   22 1
  46   21   24 1
  47   22   23 1
  48   22   72 1
  49   22   73 1
  50   23   74 1
  51   23   75 1
  52   24   45 1
  53   24   76 1
  54   24   77 1
  55   26   52 am
  56   26   28 1
  57   27   28 ar
  58   27   29 ar
  59   28   32 ar
  60   29   30 ar
  61   29   78 1
  62   30   31 ar
  63   30   33 1
  64   31   32 ar
  65   31   34 1
  66   32   79 1
  67   35   36 ar
  68   35   37 ar
  69   35   52 1
  70   36   42 1
  71   36   40 ar
  72   37   38 ar
  73   37   80 1
  74   38   39 ar
  75   38   81 1
  76   39   40 ar
  77   39   41 1
  78   40   82 1
  79   41   44 1
  80   42   43 1
  81   43   83 1
  82   43   84 1
  83   43   85 1
  84   44   86 1
  85   44   87 1
  86   44   88 1
  87   45   46 1
  88   45   89 1
  89   45   90 1
  90   46   91 1
  91   46   92 1
  92   46   93 1
  93   47   48 1
  94   48   49 1
  95   48   94 1
  96   48   95 1
  97   49   50 1
  98   49   51 1
  99   49   96 1
 100   52   53 2
 101   52   54 2

#	End of record

