#	Name: ASD01914091
#	Creating user name:	WinNT
#	Creation time:	15. 06. 2019 20:02

#	Modifying user name:	WinNT
#	Modification time:	15. 06. 2019 20:02

#	Program:	/corina/corina34_cracker 3.40 0067  02.08.2006

@<TRIPOS>MOLECULE
ASD01914091
  50   52    0    0    0
SMALL
NO_CHARGES


@<TRIPOS>ATOM
   1 N1            -0.0158     1.3165     0.0093 N.ar    
   2 C2             0.0021    -0.0041     0.0020 C.ar    
   3 C3             2.3925     0.0202    -0.0202 C.ar    
   4 C4             2.3298     1.4116    -0.0126 C.ar    
   5 O5             3.5881    -0.6224    -0.0355 O.3     
   6 C6             1.1980    -0.6949    -0.0127 C.ar    
   7 C7             1.0956     2.0279     0.0025 C.ar    
   8 Cl8           -1.4955    -0.8821     0.0116 Cl      
   9 C9             3.5567    -2.0510    -0.0424 C.3     
  10 C10            4.9661    -2.5843    -0.0593 C.ar    
  11 N11            5.1664    -3.8883    -0.0678 N.ar    
  12 C12            6.3772    -4.4059    -0.0827 C.ar    
  13 C13            7.5018    -3.5802    -0.0894 C.ar    
  14 C14            7.3214    -2.1916    -0.0806 C.ar    
  15 C15            6.0288    -1.6984    -0.0712 C.ar    
  16 C16            8.8611    -4.1615    -0.1051 C.2     
  17 N17            9.0217    -5.4996    -0.1130 N.am    
  18 C18           10.3686    -6.0756    -0.1285 C.3     
  19 C19           10.3292    -7.4811     0.4749 C.3     
  20 C20           11.7359    -8.0826     0.4586 C.3     
  21 C21           11.6965    -9.4881     1.0620 C.3     
  22 C22           11.1918    -9.4100     2.5042 C.3     
  23 C23            9.7851    -8.8084     2.5205 C.3     
  24 C24            9.8245    -7.4030     1.9171 C.3     
  25 O25            9.8338    -3.4325    -0.1108 O.2     
  26 C26           10.8733    -6.1537    -1.5707 C.3     
  27 H27            3.2353     2.0002    -0.0181 H       
  28 H28            1.2064    -1.7749    -0.0178 H       
  29 H29            1.0383     3.1064     0.0081 H       
  30 H30            3.0441    -2.4075     0.8510 H       
  31 H31            3.0261    -2.3985    -0.9288 H       
  32 H32            6.5008    -5.4788    -0.0893 H       
  33 H33            8.1694    -1.5228    -0.0855 H       
  34 H34            5.8512    -0.6332    -0.0643 H       
  35 H35            8.2455    -6.0813    -0.1084 H       
  36 H36           11.0393    -5.4473     0.4576 H       
  37 H37            9.6586    -8.1094    -0.1112 H       
  38 H38           12.0954    -8.1383    -0.5688 H       
  39 H39           12.4065    -7.4543     1.0447 H       
  40 H40           11.0258   -10.1164     0.4759 H       
  41 H41           12.6986    -9.9167     1.0504 H       
  42 H42           11.1637   -10.4113     2.9341 H       
  43 H43           11.8625    -8.7817     3.0903 H       
  44 H44            9.1145    -9.4368     1.9344 H       
  45 H45            9.4256    -8.7528     3.5479 H       
  46 H46           10.4952    -6.7746     2.5032 H       
  47 H47            8.8224    -6.9744     1.9287 H       
  48 H48           10.9014    -5.1524    -2.0006 H       
  49 H49           11.8754    -6.5823    -1.5823 H       
  50 H50           10.2026    -6.7820    -2.1568 H       
@<TRIPOS>BOND
   1    1    2 ar
   2    1    7 ar
   3    2    6 ar
   4    2    8 1
   5    3    4 ar
   6    3    5 1
   7    3    6 ar
   8    4    7 ar
   9    4   27 1
  10    5    9 1
  11    6   28 1
  12    7   29 1
  13    9   10 1
  14    9   30 1
  15    9   31 1
  16   10   11 ar
  17   10   15 ar
  18   11   12 ar
  19   12   13 ar
  20   12   32 1
  21   13   14 ar
  22   13   16 1
  23   14   15 ar
  24   14   33 1
  25   15   34 1
  26   16   17 am
  27   16   25 2
  28   17   18 1
  29   17   35 1
  30   18   19 1
  31   18   26 1
  32   18   36 1
  33   19   20 1
  34   19   24 1
  35   19   37 1
  36   20   21 1
  37   20   38 1
  38   20   39 1
  39   21   22 1
  40   21   40 1
  41   21   41 1
  42   22   23 1
  43   22   42 1
  44   22   43 1
  45   23   24 1
  46   23   44 1
  47   23   45 1
  48   24   46 1
  49   24   47 1
  50   26   48 1
  51   26   49 1
  52   26   50 1

#	End of record

