#	Name: ASD01720006
#	Creating user name:	WinNT
#	Creation time:	15. 06. 2019 19:22

#	Modifying user name:	WinNT
#	Modification time:	15. 06. 2019 19:22

#	Program:	/corina/corina34_cracker 3.40 0067  02.08.2006

@<TRIPOS>MOLECULE
ASD01720006
  72   76    0    0    0
SMALL
NO_CHARGES


@<TRIPOS>ATOM
   1 P1            -0.0180     1.4758     0.0102 P.3     
   2 O2             0.0021    -0.0041     0.0020 O.2     
   3 O3             1.4924     2.0330    -0.0013 O.3     
   4 O4            -0.7967     2.0091    -1.2942 O.3     
   5 O5            -0.7716     1.9950     1.3348 O.3     
   6 C6            -2.0945     1.5864     1.6883 C.3     
   7 O7            -1.6909     1.7731     4.0768 O.3     
   8 C8            -2.5045     2.2631     2.9978 C.3     
   9 C9            -3.9677     1.9140     3.3323 C.3     
  10 C10           -3.8875     1.2333     4.7205 C.3     
  11 C11           -2.5253     1.7446     5.2547 C.3     
  12 O12           -4.9593     1.6635     5.5620 O.3     
  13 O13           -4.7615     3.1002     3.4021 O.3     
  14 C14           -2.1282     1.0944     7.5291 C.ar    
  15 C15           -1.6221     0.2337     8.5041 C.ar    
  16 C16           -0.9551    -0.9287     8.0995 C.ar    
  17 C17           -0.8271    -1.1730     6.7433 C.ar    
  18 C18           -1.3566    -0.2696     5.8397 C.ar    
  19 N19           -1.9809     0.8180     6.2503 N.ar    
  20 C20           -1.7871     0.5444     9.9401 C.2     
  21 N21           -1.2938    -0.2948    10.8722 N.am    
  22 O22           -2.3677     1.5567    10.2800 O.2     
  23 P23            2.8173     1.6563    -0.8349 P.3     
  24 O24            2.9041     0.1865    -0.9854 O.2     
  25 O25            2.7487     2.3416    -2.2901 O.3     
  26 O26            4.1162     2.1930    -0.0496 O.3     
  27 C27            5.4521     1.9246    -0.4803 C.3     
  28 O28            6.3316     4.0091     0.4053 O.3     
  29 C29            6.4409     2.5782     0.4873 C.3     
  30 C30            7.8834     2.2056     0.0934 C.3     
  31 C31            8.5712     3.5689    -0.1616 C.3     
  32 C32            7.6549     4.5458     0.6183 C.3     
  33 O33            9.8972     3.5786     0.3708 O.3     
  34 O34            8.5301     1.5113     1.1618 O.3     
  35 N35            7.3457     7.6553    -1.1619 N.2     
  36 C36            6.9826     6.4290    -0.9209 C.2     
  37 N37            7.7572     5.8997     0.0680 N.pl3   
  38 C38            8.6499     6.8675     0.4538 C.ar    
  39 N39            9.6288     6.9378     1.3498 N.ar    
  40 C40           10.3320     8.0418     1.4900 C.ar    
  41 N41           10.1091     9.1213     0.7629 N.ar    
  42 C42            9.1512     9.1451    -0.1581 C.ar    
  43 C43            8.3735     7.9900    -0.3452 C.ar    
  44 N44            8.9248    10.2814    -0.9150 N.pl3   
  45 H45           -0.8486     2.9728    -1.3546 H       
  46 H46           -2.7873     1.8749     0.8978 H       
  47 H47           -2.1187     0.5041     1.8155 H       
  48 H48           -2.3920     3.3437     2.9100 H       
  49 H49           -4.3742     1.2247     2.5923 H       
  50 H50           -3.8839     0.1478     4.6217 H       
  51 H51           -2.6291     2.7446     5.6758 H       
  52 H52           -5.8380     1.4452     5.2224 H       
  53 H53           -5.6921     2.9390     3.6099 H       
  54 H54           -2.6490     1.9927     7.8262 H       
  55 H55           -0.5505    -1.6168     8.8269 H       
  56 H56           -0.3184    -2.0594     6.3942 H       
  57 H57           -1.2581    -0.4578     4.7808 H       
  58 H58           -0.8305    -1.1027    10.6009 H       
  59 H59           -1.4021    -0.0910    11.8143 H       
  60 H60            2.6902     3.3066    -2.2681 H       
  61 H61            5.6188     0.8476    -0.4977 H       
  62 H62            5.6000     2.3314    -1.4807 H       
  63 H63            6.2381     2.2487     1.5063 H       
  64 H64            7.8871     1.6009    -0.8134 H       
  65 H65            8.5787     3.8079    -1.2251 H       
  66 H66            7.9045     4.5418     1.6794 H       
  67 H67           10.4846     2.9199    -0.0245 H       
  68 H68            9.4415     1.2525     0.9681 H       
  69 H69            6.1850     5.9078    -1.4293 H       
  70 H70           11.1206     8.0656     2.2275 H       
  71 H71            9.4682    11.0728    -0.7762 H       
  72 H72            8.2226    10.2864    -1.5842 H       
@<TRIPOS>BOND
   1    1    2 2
   2    1    3 1
   3    1    4 1
   4    1    5 1
   5    3   23 1
   6    4   45 1
   7    5    6 1
   8    6    8 1
   9    6   46 1
  10    6   47 1
  11    7    8 1
  12    7   11 1
  13    8    9 1
  14    8   48 1
  15    9   10 1
  16    9   13 1
  17    9   49 1
  18   10   11 1
  19   10   12 1
  20   10   50 1
  21   11   19 1
  22   11   51 1
  23   12   52 1
  24   13   53 1
  25   14   15 ar
  26   14   19 ar
  27   14   54 1
  28   15   16 ar
  29   15   20 1
  30   16   17 ar
  31   16   55 1
  32   17   18 ar
  33   17   56 1
  34   18   19 ar
  35   18   57 1
  36   20   21 am
  37   20   22 2
  38   21   58 1
  39   21   59 1
  40   23   24 2
  41   23   25 1
  42   23   26 1
  43   25   60 1
  44   26   27 1
  45   27   29 1
  46   27   61 1
  47   27   62 1
  48   28   29 1
  49   28   32 1
  50   29   30 1
  51   29   63 1
  52   30   31 1
  53   30   34 1
  54   30   64 1
  55   31   32 1
  56   31   33 1
  57   31   65 1
  58   32   37 1
  59   32   66 1
  60   33   67 1
  61   34   68 1
  62   35   36 2
  63   35   43 1
  64   36   37 1
  65   36   69 1
  66   37   38 1
  67   38   39 ar
  68   38   43 ar
  69   39   40 ar
  70   40   41 ar
  71   40   70 1
  72   41   42 ar
  73   42   43 ar
  74   42   44 1
  75   44   71 1
  76   44   72 1

#	End of record

