#	Name: ASD06150004
#	Creating user name:	WinNT
#	Creation time:	15. 06. 2019 21:05

#	Modifying user name:	WinNT
#	Modification time:	15. 06. 2019 21:05

#	Program:	/corina/corina34_cracker 3.40 0067  02.08.2006

@<TRIPOS>MOLECULE
ASD06150004
 140  140    0    0    0
SMALL
NO_CHARGES


@<TRIPOS>ATOM
   1 C1            -1.3522     1.6692     0.8764 C.3     
   2 C2             0.1072     2.1248     0.9343 C.3     
   3 C3             0.1698     3.6260     0.8169 C.2     
   4 N4             0.6999     1.7085     2.2123 N.3     
   5 O5             0.6577     4.2813     1.7062 O.2     
   6 C6            -1.9424     2.0207    -0.4908 C.3     
   7 C7            -1.2428     1.1985    -1.5749 C.3     
   8 C8            -3.4392     1.7041    -0.4968 C.3     
   9 C9             0.8203     0.3686     4.7138 C.3     
  10 C10            0.5579     1.8725     4.6115 C.3     
  11 C11            1.8662     2.6168     4.6840 C.2     
  12 N12           -0.1035     2.1683     3.3336 N.3     
  13 O13            2.2135     3.3240     3.7620 O.2     
  14 O14            1.7767    -0.0164     3.7243 O.3     
  15 C15            3.6740     4.6389     6.3602 C.3     
  16 C16            3.9223     3.2201     5.8441 C.3     
  17 C17            4.8579     2.5012     6.7815 C.2     
  18 N18            2.6504     2.4965     5.7735 N.am    
  19 O19            4.4978     1.4845     7.3360 O.2     
  20 S20            2.5478     5.5043     5.2318 S.3     
  21 C21            7.8294     1.2648     6.9415 C.3     
  22 C22            7.0424     2.2328     7.8272 C.3     
  23 C23            7.9957     3.1872     8.4990 C.2     
  24 N24            6.0949     2.9880     7.0036 N.am    
  25 O25            8.1589     4.3005     8.0463 O.2     
  26 C26            8.7829     0.4405     7.8088 C.3     
  27 C27            7.9728    -0.4736     8.7303 C.3     
  28 C28            8.6346     2.0573     5.9098 C.3     
  29 C29            8.6616     4.5712    11.2932 C.3     
  30 C30            9.5156     3.7626    10.3145 C.3     
  31 C31           10.5842     3.0203    11.0749 C.2     
  32 N32            8.6670     2.8036     9.6030 N.am    
  33 O33           10.6323     1.8094    11.0271 O.2     
  34 C34            7.6573     5.4210    10.5121 C.3     
  35 S35            6.6448     6.3796    11.6725 S.3     
  36 C36            5.5353     7.3063    10.5767 C.3     
  37 C37           13.7094     2.6996    11.6197 C.3     
  38 C38           12.5254     2.9805    12.5471 C.3     
  39 C39           12.9871     3.8183    13.7116 C.2     
  40 N40           11.4866     3.7021    11.8080 N.am    
  41 O41           12.4968     4.9105    13.9050 O.2     
  42 C42           13.2765     1.7618    10.5224 C.ar    
  43 C43           12.7687     2.2696     9.3408 C.ar    
  44 C44           12.3712     1.4120     8.3334 C.ar    
  45 C45           12.4818     0.0402     8.5080 C.ar    
  46 C46           12.9915    -0.4669     9.6945 C.ar    
  47 C47           13.3930     0.3951    10.6966 C.ar    
  48 O48           12.0910    -0.8056     7.5186 O.3     
  49 C49           13.4617     3.9425    16.8621 C.3     
  50 C50           14.3939     4.1681    15.6701 C.3     
  51 C51           15.7979     3.7720    16.0484 C.2     
  52 N52           13.9450     3.3537    14.5381 N.am    
  53 O53           16.3674     2.8957    15.4330 O.2     
  54 C54           12.0629     4.4600    16.5207 C.3     
  55 C55           11.1446     4.2377    17.6947 C.2     
  56 O56           11.5673     3.7168    18.7051 O.2     
  57 N57            9.8537     4.6180    17.6220 N.am    
  58 C58           18.4763     5.1805    18.1349 C.3     
  59 C59           17.7854     4.0065    17.4384 C.3     
  60 C60           17.7395     2.8247    18.3724 C.2     
  61 N61           16.4206     4.3915    17.0706 N.am    
  62 O62           16.6765     2.3528    18.6973 O.2     
  63 N63           19.4772     8.6205    16.8977 N.pl3   
  64 C64           20.0751     9.7911    17.3006 C.2     
  65 N65           20.5070     9.9148    18.5241 N.2     
  66 N66           20.2173    10.8313    16.4129 N.pl3   
  67 C67           18.6346     6.3381    17.1471 C.3     
  68 C68           19.3256     7.5121    17.8436 C.3     
  69 H69           -1.4024     0.5908     1.0274 H       
  70 H70           -1.9213     2.1724     1.6580 H       
  71 H71            0.6619     1.6727     0.1121 H       
  72 H72           -0.2217     4.1157    -0.0624 H       
  73 H73            0.8254     0.7078     2.2437 H       
  74 H74           -1.7948     3.0825    -0.6881 H       
  75 H75           -1.4524     0.1400    -1.4202 H       
  76 H76           -1.6103     1.5022    -2.5551 H       
  77 H77           -0.1673     1.3674    -1.5218 H       
  78 H78           -3.9376     2.2898     0.2756 H       
  79 H79           -3.8597     1.9545    -1.4707 H       
  80 H80           -3.5868     0.6423    -0.2995 H       
  81 H81            1.2085     0.1342     5.7050 H       
  82 H82           -0.1104    -0.1746     4.5503 H       
  83 H83           -0.0846     2.1860     5.4343 H       
  84 H84           -0.3085     3.1529     3.2519 H       
  85 H85            1.9916    -0.9592     3.7309 H       
  86 H86            3.2275     4.5912     7.3534 H       
  87 H87            4.6203     5.1772     6.4127 H       
  88 H88            4.3688     3.2677     4.8509 H       
  89 H89            2.3727     1.9309     6.5110 H       
  90 H90            2.4220     6.7165     5.8007 H       
  91 H91            7.1371     0.5978     6.4277 H       
  92 H92            6.4970     1.6704     8.5851 H       
  93 H93            6.3579     3.8384     6.6181 H       
  94 H94            9.4244    -0.1652     7.1687 H       
  95 H95            9.3978     1.1101     8.4102 H       
  96 H96            7.2741     0.1259     9.3139 H       
  97 H97            7.4190    -1.1958     8.1305 H       
  98 H98            8.6483    -1.0020     9.4032 H       
  99 H99            9.2670     2.7826     6.4217 H       
 100 H100           9.2584     1.3743     5.3332 H       
 101 H101           7.9519     2.5796     5.2395 H       
 102 H102           8.1251     3.8911    11.9549 H       
 103 H103           9.3052     5.2218    11.8853 H       
 104 H104           9.9825     4.4371     9.5967 H       
 105 H105           8.5883     1.8924     9.9263 H       
 106 H106           8.1939     6.1010     9.8505 H       
 107 H107           7.0137     4.7703     9.9201 H       
 108 H108           4.8695     7.9280    11.1752 H       
 109 H109           6.1249     7.9392     9.9135 H       
 110 H110           4.9448     6.6085     9.9830 H       
 111 H111          14.0578     3.6350    11.1818 H       
 112 H112          14.5176     2.2424    12.1906 H       
 113 H113          12.1208     2.0378    12.9155 H       
 114 H114          11.4482     4.6706    11.8462 H       
 115 H115          12.6825     3.3376     9.2055 H       
 116 H116          11.9743     1.8092     7.4108 H       
 117 H117          13.0786    -1.5344     9.8328 H       
 118 H118          13.7940     0.0010    11.6187 H       
 119 H119          12.7925    -1.0280     6.8914 H       
 120 H120          13.4101     2.8771    17.0865 H       
 121 H121          13.8455     4.4785    17.7301 H       
 122 H122          14.3766     5.2212    15.3895 H       
 123 H123          14.3372     2.4801    14.3834 H       
 124 H124          12.1144     5.5254    16.2962 H       
 125 H125          11.6791     3.9239    15.6526 H       
 126 H126           9.5156     5.0346    16.8139 H       
 127 H127           9.2626     4.4749    18.3777 H       
 128 H128          17.8733     5.5060    18.9825 H       
 129 H129          19.4589     4.8666    18.4873 H       
 130 H130          18.3418     3.7384    16.5402 H       
 131 H131          18.6573     2.3998    18.7511 H       
 132 H132          15.9651     5.0923    17.5628 H       
 133 H133          19.1557     8.5284    15.9872 H       
 134 H134          20.9289    10.7407    18.8084 H       
 135 H135          19.8958    10.7392    15.5024 H       
 136 H136          20.6391    11.6572    16.6972 H       
 137 H137          19.2377     6.0125    16.2995 H       
 138 H138          17.6521     6.6519    16.7947 H       
 139 H139          20.3082     7.1982    18.1960 H       
 140 H140          18.7225     7.8376    18.6912 H       
@<TRIPOS>BOND
   1    1    6 1
   2    1    2 1
   3    1   69 1
   4    1   70 1
   5    2    4 1
   6    2    3 1
   7    2   71 1
   8    3    5 2
   9    3   72 1
  10    4   12 1
  11    4   73 1
  12    6    7 1
  13    6    8 1
  14    6   74 1
  15    7   75 1
  16    7   76 1
  17    7   77 1
  18    8   78 1
  19    8   79 1
  20    8   80 1
  21    9   14 1
  22    9   10 1
  23    9   81 1
  24    9   82 1
  25   10   12 1
  26   10   11 1
  27   10   83 1
  28   11   13 2
  29   11   18 am
  30   12   84 1
  31   14   85 1
  32   15   20 1
  33   15   16 1
  34   15   86 1
  35   15   87 1
  36   16   17 1
  37   16   18 1
  38   16   88 1
  39   17   19 2
  40   17   24 am
  41   18   89 1
  42   20   90 1
  43   21   22 1
  44   21   26 1
  45   21   28 1
  46   21   91 1
  47   22   23 1
  48   22   24 1
  49   22   92 1
  50   23   25 2
  51   23   32 am
  52   24   93 1
  53   26   27 1
  54   26   94 1
  55   26   95 1
  56   27   96 1
  57   27   97 1
  58   27   98 1
  59   28   99 1
  60   28  100 1
  61   28  101 1
  62   29   34 1
  63   29   30 1
  64   29  102 1
  65   29  103 1
  66   30   31 1
  67   30   32 1
  68   30  104 1
  69   31   33 2
  70   31   40 am
  71   32  105 1
  72   34   35 1
  73   34  106 1
  74   34  107 1
  75   35   36 1
  76   36  108 1
  77   36  109 1
  78   36  110 1
  79   37   42 1
  80   37   38 1
  81   37  111 1
  82   37  112 1
  83   38   39 1
  84   38   40 1
  85   38  113 1
  86   39   41 2
  87   39   52 am
  88   40  114 1
  89   42   43 ar
  90   42   47 ar
  91   43   44 ar
  92   43  115 1
  93   44   45 ar
  94   44  116 1
  95   45   46 ar
  96   45   48 1
  97   46   47 ar
  98   46  117 1
  99   47  118 1
 100   48  119 1
 101   49   54 1
 102   49   50 1
 103   49  120 1
 104   49  121 1
 105   50   52 1
 106   50   51 1
 107   50  122 1
 108   51   53 2
 109   51   61 am
 110   52  123 1
 111   54   55 1
 112   54  124 1
 113   54  125 1
 114   55   56 2
 115   55   57 am
 116   57  126 1
 117   57  127 1
 118   58   67 1
 119   58   59 1
 120   58  128 1
 121   58  129 1
 122   59   61 1
 123   59   60 1
 124   59  130 1
 125   60   62 2
 126   60  131 1
 127   61  132 1
 128   63   68 1
 129   63   64 1
 130   63  133 1
 131   64   65 2
 132   64   66 1
 133   65  134 1
 134   66  135 1
 135   66  136 1
 136   67   68 1
 137   67  137 1
 138   67  138 1
 139   68  139 1
 140   68  140 1

#	End of record

