#	Name: ASD03092971
#	Creating user name:	WinNT
#	Creation time:	15. 06. 2019 20:33

#	Modifying user name:	WinNT
#	Modification time:	15. 06. 2019 20:33

#	Program:	/corina/corina34_cracker 3.40 0067  02.08.2006

@<TRIPOS>MOLECULE
ASD03092971
  48   51    0    0    0
SMALL
NO_CHARGES


@<TRIPOS>ATOM
   1 C1            -0.0187     1.5258     0.0104 C.3     
   2 C2             0.0021    -0.0041     0.0020 C.3     
   3 C3            -1.2387    -0.6776    -0.5878 C.3     
   4 C4             1.3513    -0.6911    -0.2180 C.3     
   5 H5             1.3553    -1.6231    -0.7832 H       
   6 C6             0.7014    -0.7075     1.1670 C.3     
   7 H7             1.1466    -0.0804     1.9393 H       
   8 C8             0.1156    -2.0110     1.6453 C.ar    
   9 C9             0.0219    -3.0853     0.7804 C.ar    
  10 C10           -0.5154    -4.2810     1.2192 C.ar    
  11 C11           -0.9585    -4.4026     2.5230 C.ar    
  12 C12           -0.8639    -3.3286     3.3881 C.ar    
  13 C13           -0.3227    -2.1342     2.9505 C.ar    
  14 S14           -1.6444    -5.9263     3.0819 S.o2    
  15 N15           -0.3964    -6.8351     3.6812 N.am    
  16 O16           -2.4775    -5.6094     4.1886 O.2     
  17 O17           -2.1141    -6.6035     1.9243 O.2     
  18 C18            2.5581     0.1909    -0.4104 C.2     
  19 N19            3.0195     1.0590     0.4393 N.2     
  20 O20            4.0028     1.6070    -0.0125 O.3     
  21 C21            4.2702     1.1259    -1.2303 C.2     
  22 N22            3.3587     0.2199    -1.4907 N.2     
  23 C23            5.4056     1.5412    -2.1300 C.3     
  24 C24            5.3858     3.0735    -2.3557 C.3     
  25 C25            6.8556     3.3821    -2.7345 C.3     
  26 C26            7.6840     2.4477    -1.8287 C.3     
  27 C27            6.7620     1.2773    -1.4443 C.3     
  28 H28            1.0039     1.9031     0.0027 H       
  29 H29           -0.5459     1.8868    -0.8726 H       
  30 H30           -0.5289     1.8773     0.9072 H       
  31 H31           -1.6281    -0.0702    -1.4047 H       
  32 H32           -0.9716    -1.6650    -0.9644 H       
  33 H33           -2.0001    -0.7775     0.1857 H       
  34 H34            0.3681    -2.9904    -0.2382 H       
  35 H35           -0.5893    -5.1201     0.5433 H       
  36 H36           -1.2104    -3.4234     4.4066 H       
  37 H37           -0.2453    -1.2962     3.6275 H       
  38 H38            0.5076    -6.4836     3.6719 H       
  39 H39           -0.5695    -7.7189     4.0415 H       
  40 H40            5.3499     1.0127    -3.0816 H       
  41 H41            4.7132     3.3350    -3.1726 H       
  42 H42            5.1050     3.5951    -1.4407 H       
  43 H43            7.0350     3.1528    -3.7849 H       
  44 H44            7.0926     4.4252    -2.5249 H       
  45 H45            8.5531     2.0758    -2.3713 H       
  46 H46            8.0026     2.9817    -0.9334 H       
  47 H47            6.6332     1.2431    -0.3625 H       
  48 H48            7.1837     0.3373    -1.8004 H       
@<TRIPOS>BOND
   1    1    2 1
   2    1   28 1
   3    1   29 1
   4    1   30 1
   5    2    6 1
   6    2    3 1
   7    2    4 1
   8    3   31 1
   9    3   32 1
  10    3   33 1
  11    4    5 1
  12    4    6 1
  13    4   18 1
  14    6    7 1
  15    6    8 1
  16    8   13 ar
  17    8    9 ar
  18    9   10 ar
  19    9   34 1
  20   10   11 ar
  21   10   35 1
  22   11   12 ar
  23   11   14 1
  24   12   13 ar
  25   12   36 1
  26   13   37 1
  27   14   15 am
  28   14   16 2
  29   14   17 2
  30   15   38 1
  31   15   39 1
  32   18   22 1
  33   18   19 2
  34   19   20 1
  35   20   21 1
  36   21   22 2
  37   21   23 1
  38   23   27 1
  39   23   24 1
  40   23   40 1
  41   24   25 1
  42   24   41 1
  43   24   42 1
  44   25   26 1
  45   25   43 1
  46   25   44 1
  47   26   27 1
  48   26   45 1
  49   26   46 1
  50   27   47 1
  51   27   48 1

#	End of record

