#	Name: ASD03091856
#	Creating user name:	WinNT
#	Creation time:	15. 06. 2019 20:31

#	Modifying user name:	WinNT
#	Modification time:	15. 06. 2019 20:31

#	Program:	/corina/corina34_cracker 3.40 0067  02.08.2006

@<TRIPOS>MOLECULE
ASD03091856
  46   50    0    0    0
SMALL
NO_CHARGES


@<TRIPOS>ATOM
   1 N1             0.0947     1.2036    -1.2734 N.am    
   2 C2             0.0863    -0.1072    -0.9790 C.2     
   3 C3             1.5064    -0.4939    -0.6248 C.3     
   4 C4             2.2844     0.7941    -0.7694 C.ar    
   5 C5             3.6105     1.1077    -0.5916 C.ar    
   6 C6             4.0490     2.4151    -0.8051 C.ar    
   7 C7             3.1345     3.3921    -1.1976 C.ar    
   8 C8             1.8079     3.0695    -1.3734 C.ar    
   9 C9             1.3670     1.7630    -1.1606 C.ar    
  10 O10           -0.8780    -0.8427    -0.9942 O.2     
  11 C11            5.4776     2.7634    -0.6155 C.ar    
  12 C12            5.9032     4.0731    -0.8319 C.ar    
  13 C13            7.2381     4.3855    -0.6518 C.ar    
  14 C14            8.1098     3.3729    -0.2588 C.ar    
  15 C15            7.6158     2.0913    -0.0616 C.ar    
  16 N16            6.3371     1.8267    -0.2363 N.ar    
  17 O17            9.4296     3.6370    -0.0710 O.3     
  18 C18           11.6278     6.6453     0.3979 C.3     
  19 C19           11.1148     5.2169     0.6411 C.3     
  20 C20            9.8401     5.0015    -0.1798 C.3     
  21 C21           10.1089     5.3369    -1.6496 C.3     
  22 C22           10.6901     6.7572    -1.7375 C.3     
  23 C23            9.8084     7.6836    -0.8687 C.3     
  24 C24           10.4281     7.6097     0.5423 C.3     
  25 N25           12.0025     6.7405    -1.0382 N.3     
  26 H26           -0.6936     1.7030    -1.5382 H       
  27 H27            1.5584    -0.8584     0.4011 H       
  28 H28            1.8816    -1.2466    -1.3181 H       
  29 H29            4.3113     0.3444    -0.2872 H       
  30 H30            3.4683     4.4057    -1.3639 H       
  31 H31            1.1051     3.8313    -1.6771 H       
  32 H32            5.1996     4.8337    -1.1367 H       
  33 H33            7.5966     5.3915    -0.8125 H       
  34 H34            8.2870     1.3020     0.2432 H       
  35 H35           12.4489     6.9059     1.0658 H       
  36 H36           11.8740     4.4986     0.3317 H       
  37 H37           10.8938     5.0837     1.7001 H       
  38 H38            9.0502     5.6491     0.2005 H       
  39 H39           10.8229     4.6241    -2.0621 H       
  40 H40            9.1762     5.2887    -2.2115 H       
  41 H41           10.7657     7.1068    -2.7672 H       
  42 H42            9.8452     8.7055    -1.2461 H       
  43 H43            8.7804     7.3217    -0.8510 H       
  44 H44            9.7048     7.2114     1.2538 H       
  45 H45           10.7696     8.5952     0.8587 H       
  46 H46           12.5206     7.5867    -1.2213 H       
@<TRIPOS>BOND
   1    1    2 am
   2    1    9 1
   3    1   26 1
   4    2    3 1
   5    2   10 2
   6    3    4 1
   7    3   27 1
   8    3   28 1
   9    4    5 ar
  10    4    9 ar
  11    5    6 ar
  12    5   29 1
  13    6    7 ar
  14    6   11 1
  15    7    8 ar
  16    7   30 1
  17    8    9 ar
  18    8   31 1
  19   11   12 ar
  20   11   16 ar
  21   12   13 ar
  22   12   32 1
  23   13   14 ar
  24   13   33 1
  25   14   15 ar
  26   14   17 1
  27   15   16 ar
  28   15   34 1
  29   17   20 1
  30   18   19 1
  31   18   24 1
  32   18   25 1
  33   18   35 1
  34   19   20 1
  35   19   36 1
  36   19   37 1
  37   20   21 1
  38   20   38 1
  39   21   22 1
  40   21   39 1
  41   21   40 1
  42   22   23 1
  43   22   25 1
  44   22   41 1
  45   23   24 1
  46   23   42 1
  47   23   43 1
  48   24   44 1
  49   24   45 1
  50   25   46 1

#	End of record

