#	Name: ASD07930685
#	Creating user name:	WinNT
#	Creation time:	15. 06. 2019 21:13

#	Modifying user name:	WinNT
#	Modification time:	15. 06. 2019 21:13

#	Program:	/corina/corina34_cracker 3.40 0067  02.08.2006

@<TRIPOS>MOLECULE
ASD07930685
  40   42    0    0    0
SMALL
NO_CHARGES


@<TRIPOS>ATOM
   1 C1            -0.0863     1.4516     0.2582 C.3     
   2 N2             0.6199    -0.2457    -2.0937 N.2     
   3 N3            -0.9714    -1.7128    -1.2124 N.pl3   
   4 C4            -0.9005    -2.8248    -0.2586 C.3     
   5 C5            -1.1283    -2.2888     1.1615 C.3     
   6 S6             0.1021    -0.9866     1.4847 S.o2    
   7 N7            -0.0381    -0.0081     0.1433 N.am    
   8 C8            -0.1074    -0.6442    -1.0881 C.2     
   9 C9             0.4788    -3.4818    -0.3416 C.3     
  10 O10           -0.3058    -0.1655     2.5703 O.2     
  11 O11            1.4213    -1.5094     1.4096 O.2     
  12 C12           -1.9634    -3.8404    -0.5898 C.2     
  13 C13           -2.8233    -3.6916    -1.6587 C.2     
  14 C14           -3.7121    -4.6932    -1.8106 C.2     
  15 S15           -3.4649    -5.8933    -0.5488 S.3     
  16 C16           -2.1396    -4.9556     0.1272 C.2     
  17 C17           -4.7369    -4.7707    -2.8731 C.ar    
  18 C18           -5.6038    -5.8599    -2.9287 C.ar    
  19 C19           -6.5676    -5.9248    -3.9338 C.ar    
  20 C20           -6.6581    -4.8986    -4.8775 C.ar    
  21 C21           -5.7951    -3.8223    -4.8163 C.ar    
  22 C22           -4.8421    -3.7491    -3.8201 C.ar    
  23 C23           -7.4625    -7.0408    -3.9990 C.1     
  24 Cl24          -1.2061    -5.4057     1.5199 Cl      
  25 N25           -8.1725    -7.9261    -4.0508 N.1     
  26 H26            0.9257     1.8536     0.2088 H       
  27 H27           -0.6801     1.8610    -0.5590 H       
  28 H28           -0.5403     1.7263     1.2103 H       
  29 H29            1.2222     0.5072    -1.9884 H       
  30 H30           -1.6219    -1.7305    -1.9317 H       
  31 H31           -2.1328    -1.8730     1.2405 H       
  32 H32           -1.0066    -3.0966     1.8831 H       
  33 H33            1.2465    -2.7468    -0.0999 H       
  34 H34            0.5309    -4.3081     0.3674 H       
  35 H35            0.6416    -3.8587    -1.3513 H       
  36 H36           -2.7871    -2.8394    -2.3212 H       
  37 H37           -5.5291    -6.6505    -2.1968 H       
  38 H38           -7.4042    -4.9474    -5.6567 H       
  39 H39           -5.8691    -3.0319    -5.5485 H       
  40 H40           -4.1707    -2.9043    -3.7780 H       
@<TRIPOS>BOND
   1    1    7 1
   2    1   26 1
   3    1   27 1
   4    1   28 1
   5    2    8 2
   6    2   29 1
   7    3    4 1
   8    3    8 1
   9    3   30 1
  10    4    5 1
  11    4    9 1
  12    4   12 1
  13    5    6 1
  14    5   31 1
  15    5   32 1
  16    6    7 am
  17    6   10 2
  18    6   11 2
  19    7    8 1
  20    9   33 1
  21    9   34 1
  22    9   35 1
  23   12   13 1
  24   12   16 2
  25   13   14 2
  26   13   36 1
  27   14   15 1
  28   14   17 1
  29   15   16 1
  30   16   24 1
  31   17   18 ar
  32   17   22 ar
  33   18   19 ar
  34   18   37 1
  35   19   20 ar
  36   19   23 1
  37   20   21 ar
  38   20   38 1
  39   21   22 ar
  40   21   39 1
  41   22   40 1
  42   23   25 3

#	End of record

