#	Name: ASD01913619
#	Creating user name:	WinNT
#	Creation time:	15. 06. 2019 20:01

#	Modifying user name:	WinNT
#	Modification time:	15. 06. 2019 20:01

#	Program:	/corina/corina34_cracker 3.40 0067  02.08.2006

@<TRIPOS>MOLECULE
ASD01913619
  57   61    0    0    0
SMALL
NO_CHARGES


@<TRIPOS>ATOM
   1 C1             0.0893     1.4552     0.3129 C.ar    
   2 C2             0.0486    -0.0128     0.1334 C.2     
   3 N3            -1.0124    -0.8155     0.3819 N.pl3   
   4 N4            -0.6023    -2.1226     0.0732 N.2     
   5 C5             0.6466    -2.0460    -0.3334 C.2     
   6 N6             1.0362    -0.7667    -0.3013 N.2     
   7 C7             1.4851    -3.1923    -0.7638 C.ar    
   8 C8             2.7996    -2.9809    -1.1746 C.ar    
   9 C9             3.5759    -4.0496    -1.5736 C.ar    
  10 C10            3.0500    -5.3313    -1.5662 C.ar    
  11 C11            1.7432    -5.5459    -1.1589 C.ar    
  12 C12            0.9618    -4.4836    -0.7528 C.ar    
  13 C13           -2.3283    -0.4024     0.8757 C.3     
  14 C14           -3.2439    -0.1410    -0.2924 C.2     
  15 N15           -4.5146     0.2533    -0.0776 N.am    
  16 O16           -2.8371    -0.2855    -1.4259 O.2     
  17 C17           -4.9679     0.4164     1.3002 C.3     
  18 C18            1.3144     2.1122     0.4321 C.ar    
  19 C19            1.3470     3.4808     0.5987 C.ar    
  20 C20            0.1655     4.2035     0.6478 C.ar    
  21 C21           -1.0540     3.5557     0.5303 C.ar    
  22 C22           -1.0971     2.1881     0.3576 C.ar    
  23 F23            3.8135    -6.3749    -1.9576 F       
  24 F24            0.2026     5.5441     0.8112 F       
  25 C25           -5.2944     1.8898     1.5670 C.3     
  26 C26           -6.6749     2.1857     1.0240 C.ar    
  27 C27           -6.8908     2.2280    -0.3316 C.ar    
  28 C28           -5.7506     1.9803    -1.2939 C.3     
  29 C29           -5.3696     0.5025    -1.2341 C.3     
  30 C30           -7.7178     2.4138     1.9061 C.ar    
  31 C31           -8.9820     2.6846     1.4206 C.ar    
  32 C32           -9.2040     2.7275     0.0497 C.ar    
  33 C33           -8.1527     2.4978    -0.8288 C.ar    
  34 N34          -10.4817     3.0005    -0.4440 N.pl3   
  35 H35            3.2102    -1.9820    -1.1811 H       
  36 H36            4.5948    -3.8866    -1.8925 H       
  37 H37            1.3371    -6.5466    -1.1549 H       
  38 H38           -0.0567    -4.6518    -0.4355 H       
  39 H39           -2.7483    -1.1939     1.4965 H       
  40 H40           -2.2253     0.5073     1.4672 H       
  41 H41           -5.8605    -0.1879     1.4621 H       
  42 H42           -4.1819     0.0902     1.9814 H       
  43 H43            2.2357     1.5498     0.3943 H       
  44 H44            2.2948     3.9902     0.6915 H       
  45 H45           -1.9720     4.1233     0.5696 H       
  46 H46           -2.0479     1.6841     0.2658 H       
  47 H47           -5.2750     2.0803     2.6401 H       
  48 H48           -4.5614     2.5232     1.0674 H       
  49 H49           -6.0637     2.2371    -2.3059 H       
  50 H50           -4.8925     2.5889    -1.0085 H       
  51 H51           -4.8367     0.2284    -2.1446 H       
  52 H52           -6.2727    -0.1015    -1.1478 H       
  53 H53           -7.5430     2.3796     2.9713 H       
  54 H54           -9.7975     2.8626     2.1059 H       
  55 H55           -8.3200     2.5305    -1.8953 H       
  56 H56          -11.2151     3.1605     0.1703 H       
  57 H57          -10.6356     3.0302    -1.4013 H       
@<TRIPOS>BOND
   1    1    2 1
   2    1   18 ar
   3    1   22 ar
   4    2    3 1
   5    2    6 2
   6    3    4 1
   7    3   13 1
   8    4    5 2
   9    5    6 1
  10    5    7 1
  11    7    8 ar
  12    7   12 ar
  13    8    9 ar
  14    8   35 1
  15    9   10 ar
  16    9   36 1
  17   10   11 ar
  18   10   23 1
  19   11   12 ar
  20   11   37 1
  21   12   38 1
  22   13   14 1
  23   13   39 1
  24   13   40 1
  25   14   15 am
  26   14   16 2
  27   15   17 1
  28   15   29 1
  29   17   25 1
  30   17   41 1
  31   17   42 1
  32   18   19 ar
  33   18   43 1
  34   19   20 ar
  35   19   44 1
  36   20   21 ar
  37   20   24 1
  38   21   22 ar
  39   21   45 1
  40   22   46 1
  41   25   26 1
  42   25   47 1
  43   25   48 1
  44   26   27 ar
  45   26   30 ar
  46   27   28 1
  47   27   33 ar
  48   28   29 1
  49   28   49 1
  50   28   50 1
  51   29   51 1
  52   29   52 1
  53   30   31 ar
  54   30   53 1
  55   31   32 ar
  56   31   54 1
  57   32   33 ar
  58   32   34 1
  59   33   55 1
  60   34   56 1
  61   34   57 1

#	End of record

