#	Name: ASD01885467
#	Creating user name:	WinNT
#	Creation time:	15. 06. 2019 19:49

#	Modifying user name:	WinNT
#	Modification time:	15. 06. 2019 19:49

#	Program:	/corina/corina34_cracker 3.40 0067  02.08.2006

@<TRIPOS>MOLECULE
ASD01885467
  61   65    0    0    0
SMALL
NO_CHARGES


@<TRIPOS>ATOM
   1 C1             0.4189     0.8301    -0.4309 C.ar    
   2 C2             0.6677    -0.5358    -0.5652 C.ar    
   3 N3            -0.3059    -1.4714    -0.7042 N.2     
   4 C4            -1.3585    -1.3713    -1.4308 C.2     
   5 C5            -1.6603    -0.1251    -2.2211 C.3     
   6 C6            -1.8453     1.0137    -1.2503 C.2     
   7 N7            -0.8538     1.3856    -0.4422 N.am    
   8 C8             1.4906     1.7095    -0.2812 C.ar    
   9 C9             2.7934     1.2411    -0.2702 C.ar    
  10 C10            3.0429    -0.1207    -0.4097 C.ar    
  11 C11            1.9960    -0.9982    -0.5551 C.ar    
  12 C12           -2.2968    -2.5048    -1.4935 C.ar    
  13 O13           -2.9071     1.5982    -1.2063 O.2     
  14 C14           -1.9728    -3.7184    -0.8788 C.ar    
  15 C15           -2.8523    -4.7803    -0.9384 C.ar    
  16 C16           -4.0562    -4.6517    -1.6037 C.ar    
  17 C17           -4.3918    -3.4468    -2.2212 C.ar    
  18 C18           -3.5151    -2.3694    -2.1619 C.ar    
  19 N19            3.8574     2.1356    -0.1196 N.am    
  20 C20            4.9703     1.7544     0.5382 C.2     
  21 C21           -5.6857    -3.3131    -2.9352 C.ar    
  22 O22            5.0122     0.6687     1.0838 O.2     
  23 N23            6.0367     2.5769     0.5912 N.am    
  24 C24            7.2250     2.1440     1.1902 C.ar    
  25 C25            8.4505     2.5392     0.6702 C.ar    
  26 C26            9.6215     2.1107     1.2640 C.ar    
  27 C27            9.5746     1.2889     2.3751 C.ar    
  28 C28            8.3559     0.8932     2.8951 C.ar    
  29 C29            7.1812     1.3230     2.3093 C.ar    
  30 C30           -6.5830    -4.3826    -3.0011 C.ar    
  31 C31           -7.7752    -4.2156    -3.6753 C.ar    
  32 N32           -8.0718    -3.0668    -4.2521 N.ar    
  33 C33           -7.2530    -2.0331    -4.2133 C.ar    
  34 C34           -6.0428    -2.1126    -3.5552 C.ar    
  35 C35           -7.6473    -0.7465    -4.8917 C.3     
  36 C36           -8.7514    -5.3610    -3.7544 C.3     
  37 H37           -0.8302     0.0949    -2.8924 H       
  38 H38           -2.5735    -0.2680    -2.7988 H       
  39 H39           -1.0352     2.0984     0.1903 H       
  40 H40            1.3023     2.7674    -0.1729 H       
  41 H41            4.0587    -0.4874    -0.4038 H       
  42 H42            2.1950    -2.0542    -0.6631 H       
  43 H43           -1.0332    -3.8249    -0.3572 H       
  44 H44           -2.5981    -5.7161    -0.4630 H       
  45 H45           -4.7395    -5.4870    -1.6462 H       
  46 H46           -3.7714    -1.4347    -2.6384 H       
  47 H47            3.7946     3.0304    -0.4886 H       
  48 H48            5.9805     3.4688     0.2142 H       
  49 H49            8.4879     3.1807    -0.1978 H       
  50 H50           10.5749     2.4174     0.8598 H       
  51 H51           10.4917     0.9551     2.8376 H       
  52 H52            8.3225     0.2508     3.7626 H       
  53 H53            6.2297     1.0139     2.7161 H       
  54 H54           -6.3465    -5.3260    -2.5316 H       
  55 H55           -5.3775    -1.2623    -3.5272 H       
  56 H56           -8.1887    -0.1153    -4.1870 H       
  57 H57           -6.7521    -0.2261    -5.2320 H       
  58 H58           -8.2862    -0.9676    -5.7467 H       
  59 H59           -9.4330    -5.3167    -2.9049 H       
  60 H60           -9.3207    -5.2899    -4.6811 H       
  61 H61           -8.2065    -6.3048    -3.7342 H       
@<TRIPOS>BOND
   1    1    2 ar
   2    1    8 ar
   3    1    7 1
   4    2    3 1
   5    2   11 ar
   6    3    4 2
   7    4    5 1
   8    4   12 1
   9    5    6 1
  10    5   37 1
  11    5   38 1
  12    6    7 am
  13    6   13 2
  14    7   39 1
  15    8    9 ar
  16    8   40 1
  17    9   10 ar
  18    9   19 1
  19   10   11 ar
  20   10   41 1
  21   11   42 1
  22   12   14 ar
  23   12   18 ar
  24   14   15 ar
  25   14   43 1
  26   15   16 ar
  27   15   44 1
  28   16   17 ar
  29   16   45 1
  30   17   18 ar
  31   17   21 1
  32   18   46 1
  33   19   20 am
  34   19   47 1
  35   20   22 2
  36   20   23 am
  37   21   30 ar
  38   21   34 ar
  39   23   24 1
  40   23   48 1
  41   24   25 ar
  42   24   29 ar
  43   25   26 ar
  44   25   49 1
  45   26   27 ar
  46   26   50 1
  47   27   28 ar
  48   27   51 1
  49   28   29 ar
  50   28   52 1
  51   29   53 1
  52   30   31 ar
  53   30   54 1
  54   31   32 ar
  55   31   36 1
  56   32   33 ar
  57   33   34 ar
  58   33   35 1
  59   34   55 1
  60   35   56 1
  61   35   57 1
  62   35   58 1
  63   36   59 1
  64   36   60 1
  65   36   61 1

#	End of record

