#	Name: ASD00100069
#	Creating user name:	WinNT
#	Creation time:	15. 06. 2019 18:30

#	Modifying user name:	WinNT
#	Modification time:	15. 06. 2019 18:30

#	Program:	/corina/corina34_cracker 3.40 0067  02.08.2006

@<TRIPOS>MOLECULE
ASD00100069
  68   72    0    0    0
SMALL
NO_CHARGES


@<TRIPOS>ATOM
   1 C1            -0.0180     1.4742     0.0101 C.2     
   2 C2             0.0021    -0.0041     0.0020 C.ar    
   3 C3             1.2173    -0.6995    -0.0133 C.ar    
   4 C4             1.1813    -2.0826    -0.0199 C.ar    
   5 C5            -0.0424    -2.7281    -0.0112 C.ar    
   6 N6            -1.1719    -2.0465     0.0032 N.ar    
   7 C7            -1.1895    -0.7297     0.0154 C.ar    
   8 O8             1.0263     2.0962     0.0035 O.2     
   9 N9            -1.1942     2.1321     0.0193 N.am    
  10 C10           -0.0858    -4.2345    -0.0189 C.3     
  11 C11           -1.2141     3.5970     0.0274 C.3     
  12 C12           -2.5311     4.0925    -0.5733 C.3     
  13 C13           -2.5518     5.6223    -0.5649 C.3     
  14 C14           -2.4262     6.1261     0.8743 C.3     
  15 C15           -1.1092     5.6306     1.4750 C.3     
  16 C16           -1.0885     4.1008     1.4665 C.3     
  17 C17           -2.4470     7.6560     0.8827 C.3     
  18 C18           -2.4471     8.1581     2.3279 C.3     
  19 N19           -2.4670     9.6269     2.3360 N.3     
  20 C20           -2.7058    10.1425     3.6901 C.3     
  21 C21           -2.8648    11.6637     3.6374 C.3     
  22 C22           -1.5940    12.2849     3.0513 C.3     
  23 C23           -1.3415    11.6952     1.6609 C.3     
  24 C24           -1.2266    10.1732     1.7709 C.3     
  25 O25           -2.5442    15.7574     2.3729 O.3     
  26 C26           -2.6985    14.4294     2.2310 C.2     
  27 C27           -1.7677    13.7778     2.9412 C.2     
  28 C28           -0.9515    14.8105     3.5909 C.ar    
  29 C29           -1.5037    16.0368     3.1837 C.ar    
  30 C30            0.1501    14.7877     4.4444 C.ar    
  31 C31            0.6936    15.9742     4.8859 C.ar    
  32 C32            0.1489    17.1851     4.4843 C.ar    
  33 C33           -0.9406    17.2213     3.6404 C.ar    
  34 H34            2.1585    -0.1699    -0.0202 H       
  35 H35            2.0987    -2.6523    -0.0321 H       
  36 H36           -2.1345    -0.2071     0.0314 H       
  37 H37           -2.0276     1.6358     0.0206 H       
  38 H38           -0.0861    -4.6031     1.0069 H       
  39 H39           -0.9909    -4.5693    -0.5256 H       
  40 H40            0.7882    -4.6205    -0.5435 H       
  41 H41           -0.3801     3.9749    -0.5640 H       
  42 H42           -2.6206     3.7335    -1.5986 H       
  43 H43           -3.3651     3.7145     0.0180 H       
  44 H44           -1.7178     6.0002    -1.1563 H       
  45 H45           -3.4901     5.9753    -0.9929 H       
  46 H46           -3.2602     5.7482     1.4656 H       
  47 H47           -0.2752     6.0086     0.8836 H       
  48 H48           -1.0197     5.9896     2.5003 H       
  49 H49           -1.9225     3.7229     2.0579 H       
  50 H50           -0.1502     3.7478     1.8945 H       
  51 H51           -1.5645     8.0342     0.3667 H       
  52 H52           -3.3442     8.0100     0.3750 H       
  53 H53           -3.3296     7.7799     2.8439 H       
  54 H54           -1.5498     7.8041     2.8356 H       
  55 H55           -3.6146     9.6961     4.0937 H       
  56 H56           -1.8610     9.8877     4.3300 H       
  57 H57           -3.7180    11.9188     3.0088 H       
  58 H58           -3.0265    12.0478     4.6446 H       
  59 H59           -0.7471    12.0627     3.7005 H       
  60 H60           -2.1706    11.9509     1.0012 H       
  61 H61           -0.4148    12.1019     1.2560 H       
  62 H62           -0.3887     9.9181     2.4198 H       
  63 H63           -1.0610     9.7490     0.7806 H       
  64 H64           -3.4622    13.9563     1.6315 H       
  65 H65            0.5749    13.8457     4.7582 H       
  66 H66            1.5470    15.9614     5.5476 H       
  67 H67            0.5827    18.1092     4.8367 H       
  68 H68           -1.3558    18.1702     3.3344 H       
@<TRIPOS>BOND
   1    1    2 1
   2    1    8 2
   3    1    9 am
   4    2    3 ar
   5    2    7 ar
   6    3    4 ar
   7    3   34 1
   8    4    5 ar
   9    4   35 1
  10    5    6 ar
  11    5   10 1
  12    6    7 ar
  13    7   36 1
  14    9   11 1
  15    9   37 1
  16   10   38 1
  17   10   39 1
  18   10   40 1
  19   11   12 1
  20   11   16 1
  21   11   41 1
  22   12   13 1
  23   12   42 1
  24   12   43 1
  25   13   14 1
  26   13   44 1
  27   13   45 1
  28   14   15 1
  29   14   17 1
  30   14   46 1
  31   15   16 1
  32   15   47 1
  33   15   48 1
  34   16   49 1
  35   16   50 1
  36   17   18 1
  37   17   51 1
  38   17   52 1
  39   18   19 1
  40   18   53 1
  41   18   54 1
  42   19   20 1
  43   19   24 1
  44   20   21 1
  45   20   55 1
  46   20   56 1
  47   21   22 1
  48   21   57 1
  49   21   58 1
  50   22   23 1
  51   22   27 1
  52   22   59 1
  53   23   24 1
  54   23   60 1
  55   23   61 1
  56   24   62 1
  57   24   63 1
  58   25   26 1
  59   25   29 1
  60   26   27 2
  61   26   64 1
  62   27   28 1
  63   28   29 ar
  64   28   30 ar
  65   29   33 ar
  66   30   31 ar
  67   30   65 1
  68   31   32 ar
  69   31   66 1
  70   32   33 ar
  71   32   67 1
  72   33   68 1

#	End of record

