#	Name: ASD03331867
#	Creating user name:	WinNT
#	Creation time:	15. 06. 2019 20:40

#	Modifying user name:	WinNT
#	Modification time:	15. 06. 2019 20:40

#	Program:	/corina/corina34_cracker 3.40 0067  02.08.2006

@<TRIPOS>MOLECULE
ASD03331867
  51   54    0    0    0
SMALL
NO_CHARGES


@<TRIPOS>ATOM
   1 C1             1.1676    -0.4190    -1.2119 C.ar    
   2 C2             0.6491     0.0139    -2.4360 C.ar    
   3 C3             1.1672     1.1613    -3.0444 C.ar    
   4 C4             2.1852     1.8604    -2.4367 C.ar    
   5 C5             2.6988     1.4265    -1.2183 C.ar    
   6 C6             2.1856     0.2850    -0.6100 C.ar    
   7 N7             3.7298     2.1371    -0.6058 N.am    
   8 C8             3.7657     3.4816    -0.6924 C.2     
   9 N9             4.7088     4.1749    -0.0243 N.am    
  10 O10            2.9473     4.0690    -1.3731 O.2     
  11 C11            4.8071     5.5611    -0.1900 C.ar    
  12 C12            3.7518     7.6923    -0.5303 C.ar    
  13 C13            3.6588     6.3230    -0.3658 C.ar    
  14 C14            6.0504     6.1752    -0.1732 C.ar    
  15 C15            6.1432     7.5547    -0.3386 C.ar    
  16 C16            4.9859     8.3106    -0.5201 C.ar    
  17 C17            7.4697     8.2182    -0.3212 C.ar    
  18 N18            8.5585     7.4820    -0.1468 N.ar    
  19 C19            9.7599     8.0380    -0.1259 C.ar    
  20 C20            9.8749     9.4058    -0.2886 C.ar    
  21 C21            8.7103    10.1557    -0.4703 C.ar    
  22 N22            7.5376     9.5317    -0.4857 N.ar    
  23 N23            8.7778    11.5295    -0.6369 N.3     
  24 C24            7.4325    12.1074    -0.8108 C.3     
  25 C25            7.2485    13.1759     0.2873 C.3     
  26 C26            8.7076    13.5424     0.6664 C.3     
  27 C27            9.4198    12.1737     0.5287 C.3     
  28 C28           -0.4412    -0.7380    -3.0842 C.2     
  29 O29           -0.9397    -0.3193    -4.2640 O.3     
  30 O30           -0.8901    -1.7351    -2.5544 O.2     
  31 H31            0.7667    -1.3023    -0.7370 H       
  32 H32            0.7693     1.4983    -3.9901 H       
  33 H33            2.5861     2.7465    -2.9062 H       
  34 H34            2.5866    -0.0488     0.3356 H       
  35 H35            4.4214     1.6639    -0.1173 H       
  36 H36            5.3194     3.7131     0.5714 H       
  37 H37            2.8562     8.2801    -0.6672 H       
  38 H38            2.6909     5.8441    -0.3742 H       
  39 H39            6.9440     5.5853    -0.0319 H       
  40 H40            5.0546     9.3807    -0.6488 H       
  41 H41           10.6405     7.4294     0.0171 H       
  42 H42           10.8432     9.8839    -0.2751 H       
  43 H43            7.3517    12.5692    -1.7949 H       
  44 H44            6.6775    11.3290    -0.7010 H       
  45 H45            6.7223    14.0458    -0.1058 H       
  46 H46            6.7203    12.7598     1.1452 H       
  47 H47            9.1214    14.2699    -0.0319 H       
  48 H48            8.7641    13.9107     1.6907 H       
  49 H49            9.2663    11.5741     1.4259 H       
  50 H50           10.4845    12.3168     0.3445 H       
  51 H51           -1.6537    -0.8448    -4.6502 H       
@<TRIPOS>BOND
   1    1    2 ar
   2    1    6 ar
   3    1   31 1
   4    2    3 ar
   5    2   28 1
   6    3    4 ar
   7    3   32 1
   8    4    5 ar
   9    4   33 1
  10    5    6 ar
  11    5    7 1
  12    6   34 1
  13    7    8 am
  14    7   35 1
  15    8    9 am
  16    8   10 2
  17    9   11 1
  18    9   36 1
  19   11   14 ar
  20   11   13 ar
  21   12   13 ar
  22   12   16 ar
  23   12   37 1
  24   13   38 1
  25   14   15 ar
  26   14   39 1
  27   15   16 ar
  28   15   17 1
  29   16   40 1
  30   17   18 ar
  31   17   22 ar
  32   18   19 ar
  33   19   20 ar
  34   19   41 1
  35   20   21 ar
  36   20   42 1
  37   21   22 ar
  38   21   23 1
  39   23   24 1
  40   23   27 1
  41   24   25 1
  42   24   43 1
  43   24   44 1
  44   25   26 1
  45   25   45 1
  46   25   46 1
  47   26   27 1
  48   26   47 1
  49   26   48 1
  50   27   49 1
  51   27   50 1
  52   28   29 1
  53   28   30 2
  54   29   51 1

#	End of record

