#	Name: ASD01811868
#	Creating user name:	WinNT
#	Creation time:	15. 06. 2019 19:27

#	Modifying user name:	WinNT
#	Modification time:	15. 06. 2019 19:27

#	Program:	/corina/corina34_cracker 3.40 0067  02.08.2006

@<TRIPOS>MOLECULE
ASD01811868
  49   53    0    0    0
SMALL
NO_CHARGES


@<TRIPOS>ATOM
   1 N1            -0.0158     1.3124     0.0093 N.ar    
   2 C2             0.0021    -0.0041     0.0020 C.ar    
   3 C3             1.1969    -0.7055    -0.0127 C.ar    
   4 C4             2.3960    -0.0149    -0.0204 C.ar    
   5 C5             1.1067     2.0194     0.0023 C.ar    
   6 C6             1.4021     3.4636     0.0073 C.2     
   7 C7             2.3561     1.3764    -0.0130 C.ar    
   8 N8             3.3289     2.3533    -0.0180 N.pl3   
   9 C9             2.7617     3.5824    -0.0051 C.2     
  10 C10            0.4245     4.5602     0.0221 C.2     
  11 O11           -0.7669     4.3130     0.0317 O.2     
  12 N12            0.8473     5.8399     0.0250 N.am    
  13 C13            4.7713     2.0976    -0.0327 C.3     
  14 C14            5.2309     1.8942    -1.4534 C.ar    
  15 C15            5.6497     0.4363    -3.3062 C.ar    
  16 C16            5.2286     0.6260    -2.0045 C.ar    
  17 C17            5.6487     2.9770    -2.2052 C.ar    
  18 C18            6.0701     2.7938    -3.5077 C.ar    
  19 C19            6.0743     1.5208    -4.0619 C.ar    
  20 N20            6.5023     1.3316    -5.3833 N.pl3   
  21 C21            6.9384     2.2963    -6.2246 C.2     
  22 C22            7.2561     1.7052    -7.3996 C.2     
  23 C23            7.0064     0.3342    -7.2735 C.2     
  24 N24            6.5597     0.1086    -6.0642 N.2     
  25 C25           -0.0850     6.8857     0.0391 C.2     
  26 C26           -2.0237     7.9842     0.0662 C.2     
  27 C27           -1.4820     6.7451     0.0568 C.2     
  28 N28            0.1947     8.1678     0.0437 N.2     
  29 N29           -1.0124     8.8781     0.0584 N.pl3   
  30 C30           -1.1528    10.3364     0.0642 C.3     
  31 H31           -0.9315    -0.5470     0.0080 H       
  32 H32            1.1923    -1.7855    -0.0177 H       
  33 H33            3.3386    -0.5419    -0.0316 H       
  34 H34            3.3036     4.5166    -0.0054 H       
  35 H35            1.7970     6.0369     0.0173 H       
  36 H36            5.2957     2.9494     0.4004 H       
  37 H37            4.9877     1.2028     0.5508 H       
  38 H38            5.6480    -0.5545    -3.7359 H       
  39 H39            4.8975    -0.2172    -1.4163 H       
  40 H40            5.6453     3.9670    -1.7735 H       
  41 H41            6.3957     3.6399    -4.0946 H       
  42 H42            7.0183     3.3495    -5.9992 H       
  43 H43            7.6354     2.2036    -8.2794 H       
  44 H44            7.1596    -0.4103    -8.0408 H       
  45 H45           -3.0781     8.2172     0.0803 H       
  46 H46           -2.0272     5.8128     0.0616 H       
  47 H47           -1.1770    10.6950     1.0933 H       
  48 H48           -0.3071    10.7849    -0.4571 H       
  49 H49           -2.0788    10.6143    -0.4392 H       
@<TRIPOS>BOND
   1    1    2 ar
   2    1    5 ar
   3    2    3 ar
   4    2   31 1
   5    3    4 ar
   6    3   32 1
   7    4    7 ar
   8    4   33 1
   9    5    7 ar
  10    5    6 1
  11    6    9 2
  12    6   10 1
  13    7    8 1
  14    8    9 1
  15    8   13 1
  16    9   34 1
  17   10   11 2
  18   10   12 am
  19   12   25 1
  20   12   35 1
  21   13   14 1
  22   13   36 1
  23   13   37 1
  24   14   17 ar
  25   14   16 ar
  26   15   16 ar
  27   15   19 ar
  28   15   38 1
  29   16   39 1
  30   17   18 ar
  31   17   40 1
  32   18   19 ar
  33   18   41 1
  34   19   20 1
  35   20   21 1
  36   20   24 1
  37   21   22 2
  38   21   42 1
  39   22   23 1
  40   22   43 1
  41   23   24 2
  42   23   44 1
  43   25   28 2
  44   25   27 1
  45   26   27 2
  46   26   29 1
  47   26   45 1
  48   27   46 1
  49   28   29 1
  50   29   30 1
  51   30   47 1
  52   30   48 1
  53   30   49 1

#	End of record

