#	Name: ASD00842122
#	Creating user name:	WinNT
#	Creation time:	15. 06. 2019 18:43

#	Modifying user name:	WinNT
#	Modification time:	15. 06. 2019 18:43

#	Program:	/corina/corina34_cracker 3.40 0067  02.08.2006

@<TRIPOS>MOLECULE
ASD00842122
  99  104    0    0    0
SMALL
NO_CHARGES


@<TRIPOS>ATOM
   1 F1             6.0138    -1.7078    -2.1508 F       
   2 C2             0.8901     1.5141    -0.6895 C.ar    
   3 C3             1.2218     0.1752    -0.8355 C.ar    
   4 C4             1.2012    -0.6665     0.2673 C.ar    
   5 C5             0.8508    -0.1695     1.5075 C.ar    
   6 C6             0.5202     1.1656     1.6504 C.ar    
   7 C7             0.5403     2.0064     0.5532 C.ar    
   8 C8             1.5604    -2.1218     0.1122 C.3     
   9 C9             1.3437    -2.8633     1.4141 C.2     
  10 C10            0.7387    -2.7586    -1.0105 C.3     
  11 C11           -0.7279    -2.5270    -0.7529 C.2     
  12 N12           -1.6497    -3.0615    -1.5782 N.am    
  13 O13           -1.0788    -1.8597     0.1971 O.2     
  14 C14           -3.0755    -2.7489    -1.4108 C.3     
  15 C15           -3.8590    -4.0611    -1.3060 C.3     
  16 C16           -3.5459    -4.9360    -2.5220 C.3     
  17 C17           -2.0517    -5.2661    -2.5440 C.3     
  18 C18           -1.2472    -3.9631    -2.6663 C.3     
  19 C19           -4.3533    -6.2330    -2.4382 C.3     
  20 C20           -5.8487    -5.9045    -2.4178 C.3     
  21 C21           -6.6518    -7.2070    -2.3954 C.3     
  22 N22           -6.3241    -8.0061    -3.5830 N.3     
  23 C23           -4.9025    -8.3737    -3.5999 C.3     
  24 C24           -4.0471    -7.1061    -3.6583 C.3     
  25 C25           -7.1773    -9.1989    -3.6668 C.3     
  26 O26            0.2909    -2.9939     2.0021 O.2     
  27 N27            2.5365    -3.3503     1.7955 N.am    
  28 C28            3.0396    -2.2763    -0.1574 C.ar    
  29 C29            3.5529    -3.0236     0.8953 C.ar    
  30 C30            3.8561    -1.8360    -1.1745 C.ar    
  31 C31            5.2085    -2.1382    -1.1550 C.ar    
  32 C32            5.7320    -2.8829    -0.1103 C.ar    
  33 C33            4.9129    -3.3245     0.9099 C.ar    
  34 Cl34           7.4257    -3.2625    -0.0838 Cl      
  35 C35            2.5452    -5.9305     2.7530 C.ar    
  36 C36            1.2984    -6.3805     2.3429 C.ar    
  37 C37            3.6090    -6.8097     2.8252 C.ar    
  38 C38            3.4342    -8.1383     2.4891 C.ar    
  39 C39            2.1889    -8.5933     2.0784 C.ar    
  40 C40            1.1203    -7.7136     2.0055 C.ar    
  41 O41            2.0175    -9.9004     1.7483 O.3     
  42 O42            0.2526    -5.5156     2.2725 O.3     
  43 C43            3.1622   -10.7501     1.8472 C.3     
  44 C44           -1.0018    -6.0480     1.8425 C.3     
  45 C45           -2.0502    -4.9338     1.8263 C.3     
  46 C46           -6.9851    -9.8689    -5.0288 C.3     
  47 S47            2.7742    -4.2352     3.1749 S.o2    
  48 O48            4.1461    -4.0880     3.5147 O.2     
  49 O49            1.7140    -3.8947     4.0577 O.2     
  50 O50            1.5658    -0.3116    -2.0569 O.3     
  51 C51            1.9805    -0.1041    -4.4287 C.3     
  52 C52            1.4568     0.5830    -3.1659 C.3     
  53 H53            0.9097     2.1722    -1.5456 H       
  54 H54            0.8346    -0.8243     2.3663 H       
  55 H55            0.2458     1.5522     2.6208 H       
  56 H56            0.2817     3.0487     0.6673 H       
  57 H57            1.0157    -2.3084    -1.9637 H       
  58 H58            0.9372    -3.8299    -1.0433 H       
  59 H59           -3.2172    -2.1651    -0.5013 H       
  60 H60           -3.4284    -2.1803    -2.2712 H       
  61 H61           -3.5692    -4.5861    -0.3958 H       
  62 H62           -4.9272    -3.8458    -1.2780 H       
  63 H63           -3.8130    -4.4005    -3.4331 H       
  64 H64           -1.7790    -5.7798    -1.6221 H       
  65 H65           -1.8336    -5.9084    -3.3972 H       
  66 H66           -1.4522    -3.4961    -3.6297 H       
  67 H67           -0.1826    -4.1818    -2.5831 H       
  68 H68           -4.0859    -6.7703    -1.5283 H       
  69 H69           -6.0805    -5.3187    -1.5283 H       
  70 H70           -6.1078    -5.3324    -3.3087 H       
  71 H71           -6.4024    -7.7720    -1.4973 H       
  72 H72           -7.7172    -6.9767    -2.3953 H       
  73 H73           -4.6613    -8.9333    -2.6962 H       
  74 H74           -4.6973    -8.9908    -4.4746 H       
  75 H75           -4.2778    -6.5529    -4.5687 H       
  76 H76           -2.9917    -7.3787    -3.6550 H       
  77 H77           -6.9036    -9.8977    -2.8763 H       
  78 H78           -8.2212    -8.9080    -3.5490 H       
  79 H79            3.4433    -1.2561    -1.9868 H       
  80 H80            5.3277    -3.9045     1.7210 H       
  81 H81            4.5788    -6.4575     3.1445 H       
  82 H82            4.2672    -8.8233     2.5456 H       
  83 H83            0.1505    -8.0658     1.6865 H       
  84 H84            3.9464   -10.3815     1.1860 H       
  85 H85            3.5250   -10.7527     2.8751 H       
  86 H86            2.8882   -11.7641     1.5560 H       
  87 H87           -0.8962    -6.4621     0.8397 H       
  88 H88           -1.3174    -6.8339     2.5287 H       
  89 H89           -2.1558    -4.5197     2.8291 H       
  90 H90           -1.7346    -4.1479     1.1401 H       
  91 H91           -3.0070    -5.3399     1.4983 H       
  92 H92           -7.6182   -10.7540    -5.0909 H       
  93 H93           -7.2589    -9.1701    -5.8193 H       
  94 H94           -5.9413   -10.1598    -5.1465 H       
  95 H95            2.9968    -0.4577    -4.2550 H       
  96 H96            1.3386    -0.9500    -4.6749 H       
  97 H97            1.9791     0.6058    -5.2558 H       
  98 H98            0.4120     0.8587    -3.3090 H       
  99 H99            2.0453     1.4791    -2.9692 H       
@<TRIPOS>BOND
   1    1   31 1
   2    2    3 ar
   3    2    7 ar
   4    2   53 1
   5    3    4 ar
   6    3   50 1
   7    4    5 ar
   8    4    8 1
   9    5    6 ar
  10    5   54 1
  11    6    7 ar
  12    6   55 1
  13    7   56 1
  14    8    9 1
  15    8   10 1
  16    8   28 1
  17    9   26 2
  18    9   27 am
  19   10   11 1
  20   10   57 1
  21   10   58 1
  22   11   12 am
  23   11   13 2
  24   12   14 1
  25   12   18 1
  26   14   15 1
  27   14   59 1
  28   14   60 1
  29   15   16 1
  30   15   61 1
  31   15   62 1
  32   16   17 1
  33   16   19 1
  34   16   63 1
  35   17   18 1
  36   17   64 1
  37   17   65 1
  38   18   66 1
  39   18   67 1
  40   19   20 1
  41   19   24 1
  42   19   68 1
  43   20   21 1
  44   20   69 1
  45   20   70 1
  46   21   22 1
  47   21   71 1
  48   21   72 1
  49   22   23 1
  50   22   25 1
  51   23   24 1
  52   23   73 1
  53   23   74 1
  54   24   75 1
  55   24   76 1
  56   25   46 1
  57   25   77 1
  58   25   78 1
  59   27   47 am
  60   27   29 1
  61   28   29 ar
  62   28   30 ar
  63   29   33 ar
  64   30   31 ar
  65   30   79 1
  66   31   32 ar
  67   32   33 ar
  68   32   34 1
  69   33   80 1
  70   35   36 ar
  71   35   37 ar
  72   35   47 1
  73   36   42 1
  74   36   40 ar
  75   37   38 ar
  76   37   81 1
  77   38   39 ar
  78   38   82 1
  79   39   40 ar
  80   39   41 1
  81   40   83 1
  82   41   43 1
  83   42   44 1
  84   43   84 1
  85   43   85 1
  86   43   86 1
  87   44   45 1
  88   44   87 1
  89   44   88 1
  90   45   89 1
  91   45   90 1
  92   45   91 1
  93   46   92 1
  94   46   93 1
  95   46   94 1
  96   47   48 2
  97   47   49 2
  98   50   52 1
  99   51   52 1
 100   51   95 1
 101   51   96 1
 102   51   97 1
 103   52   98 1
 104   52   99 1

#	End of record

