#	Name: ASD00843484
#	Creating user name:	WinNT
#	Creation time:	15. 06. 2019 18:46

#	Modifying user name:	WinNT
#	Modification time:	15. 06. 2019 18:46

#	Program:	/corina/corina34_cracker 3.40 0067  02.08.2006

@<TRIPOS>MOLECULE
ASD00843484
  87   92    0    0    0
SMALL
NO_CHARGES


@<TRIPOS>ATOM
   1 F1             5.7492    -2.5515    -1.8556 F       
   2 N2             1.0096     1.0804    -0.2096 N.ar    
   3 C3             1.1604    -0.1998    -0.5048 C.ar    
   4 C4             0.9724    -1.1767     0.4649 C.ar    
   5 C5             0.6242    -0.7933     1.7481 C.ar    
   6 C6             0.4757     0.5605     2.0173 C.ar    
   7 C7             0.6782     1.4766     1.0047 C.ar    
   8 C8             1.1449    -2.6344     0.1237 C.3     
   9 C9             0.7491    -3.5043     1.2978 C.2     
  10 C10            0.3195    -2.9954    -1.1130 C.3     
  11 C11           -1.1194    -2.6085    -0.8870 C.2     
  12 N12           -2.0562    -2.9349    -1.7994 N.am    
  13 O13           -1.4344    -2.0035     0.1158 O.2     
  14 C14           -3.4446    -2.4716    -1.6546 C.3     
  15 C15           -3.8777    -1.8136    -2.9691 C.3     
  16 N16           -3.6469    -2.7472    -4.0796 N.3     
  17 C17           -2.2183    -3.0549    -4.2289 C.3     
  18 C18           -1.7158    -3.7586    -2.9693 C.3     
  19 N19           -4.2007    -2.2285    -5.3199 N.3     
  20 C20           -3.9698    -3.1624    -6.4309 C.3     
  21 C21           -4.6350    -2.6186    -7.6975 C.3     
  22 N22           -4.0842    -1.2915    -8.0058 N.3     
  23 C23           -4.3151    -0.3576    -6.8948 C.3     
  24 C24           -3.6499    -0.9014    -5.6282 C.3     
  25 H25           -3.1023    -1.3507    -8.2302 H       
  26 O26           -0.3471    -3.5630     1.8136 O.2     
  27 N27            1.8401    -4.1996     1.6607 N.am    
  28 C28            2.6047    -2.9573    -0.0978 C.ar    
  29 C29            2.9462    -3.9020     0.8619 C.ar    
  30 C30            3.5357    -2.5047    -1.0053 C.ar    
  31 C31            4.8321    -2.9931    -0.9672 C.ar    
  32 C32            5.1845    -3.9356    -0.0146 C.ar    
  33 C33            4.2506    -4.3895     0.8956 C.ar    
  34 Cl34           6.8078    -4.5487     0.0348 Cl      
  35 C35            1.4457    -6.8596     2.2467 C.ar    
  36 C36            0.1791    -7.0723     1.7219 C.ar    
  37 C37            2.3769    -7.8808     2.2430 C.ar    
  38 C38            2.0494    -9.1154     1.7166 C.ar    
  39 C39            0.7837    -9.3331     1.1904 C.ar    
  40 C40           -0.1522    -8.3106     1.1934 C.ar    
  41 O41            0.4620   -10.5479     0.6731 O.3     
  42 O42           -0.7363    -6.0678     1.7262 O.3     
  43 C43           -2.0201    -6.3577     1.1696 C.3     
  44 C44            1.4754   -11.5550     0.7036 C.3     
  45 S45            1.8698    -5.2841     2.9119 S.o2    
  46 O46            3.2246    -5.3767     3.3305 O.2     
  47 O47            0.8098    -4.9186     3.7849 O.2     
  48 O48            1.5016    -0.5627    -1.7668 O.3     
  49 C49            1.6334     0.4848    -2.7299 C.3     
  50 C50            2.1207    -0.1007    -4.0568 C.3     
  51 F51            3.3187    -0.7928    -3.8491 F       
  52 F52            1.1560    -0.9793    -4.5612 F       
  53 H53            0.4712    -1.5305     2.5224 H       
  54 H54            0.2042     0.8933     3.0082 H       
  55 H55            0.5642     2.5310     1.2090 H       
  56 H56            0.7083    -2.4590    -1.9785 H       
  57 H57            0.3834    -4.0687    -1.2918 H       
  58 H58           -4.0932    -3.3206    -1.4390 H       
  59 H59           -3.5057    -1.7454    -0.8441 H       
  60 H60           -4.9374    -1.5633    -2.9186 H       
  61 H61           -3.2964    -0.9058    -3.1302 H       
  62 H62           -2.0745    -3.7047    -5.0921 H       
  63 H63           -1.6601    -2.1298    -4.3726 H       
  64 H64           -0.6348    -3.8859    -3.0276 H       
  65 H65           -2.1975    -4.7320    -2.8769 H       
  66 H66           -2.8983    -3.2687    -6.5998 H       
  67 H67           -4.3976    -4.1341    -6.1840 H       
  68 H68           -4.4405    -3.2953    -8.5296 H       
  69 H69           -5.7102    -2.5379    -7.5376 H       
  70 H70           -3.8873     0.6141    -7.1417 H       
  71 H71           -5.3866    -0.2513    -6.7259 H       
  72 H72           -3.8444    -0.2247    -4.7961 H       
  73 H73           -2.5747    -0.9820    -5.7881 H       
  74 H74            3.2561    -1.7702    -1.7461 H       
  75 H75            4.5322    -5.1242     1.6354 H       
  76 H76            3.3623    -7.7133     2.6520 H       
  77 H77            2.7791    -9.9116     1.7142 H       
  78 H78           -1.1377    -8.4782     0.7847 H       
  79 H79           -1.9064    -6.6458     0.1245 H       
  80 H80           -2.4802    -7.1756     1.7240 H       
  81 H81           -2.6530    -5.4727     1.2357 H       
  82 H82            2.3422   -11.2155     0.1366 H       
  83 H83            1.7683   -11.7446     1.7362 H       
  84 H84            1.0887   -12.4731     0.2611 H       
  85 H85            0.6665     0.9657    -2.8782 H       
  86 H86            2.3536     1.2200    -2.3708 H       
  87 H87            2.2863     0.7060    -4.7708 H       
@<TRIPOS>BOND
   1    1   31 1
   2    2    3 ar
   3    2    7 ar
   4    3    4 ar
   5    3   48 1
   6    4    5 ar
   7    4    8 1
   8    5    6 ar
   9    5   53 1
  10    6    7 ar
  11    6   54 1
  12    7   55 1
  13    8    9 1
  14    8   10 1
  15    8   28 1
  16    9   26 2
  17    9   27 am
  18   10   11 1
  19   10   56 1
  20   10   57 1
  21   11   12 am
  22   11   13 2
  23   12   14 1
  24   12   18 1
  25   14   15 1
  26   14   58 1
  27   14   59 1
  28   15   16 1
  29   15   60 1
  30   15   61 1
  31   16   17 1
  32   16   19 1
  33   17   18 1
  34   17   62 1
  35   17   63 1
  36   18   64 1
  37   18   65 1
  38   19   20 1
  39   19   24 1
  40   20   21 1
  41   20   66 1
  42   20   67 1
  43   21   22 1
  44   21   68 1
  45   21   69 1
  46   22   23 1
  47   22   25 1
  48   23   24 1
  49   23   70 1
  50   23   71 1
  51   24   72 1
  52   24   73 1
  53   27   45 am
  54   27   29 1
  55   28   29 ar
  56   28   30 ar
  57   29   33 ar
  58   30   31 ar
  59   30   74 1
  60   31   32 ar
  61   32   33 ar
  62   32   34 1
  63   33   75 1
  64   35   36 ar
  65   35   37 ar
  66   35   45 1
  67   36   42 1
  68   36   40 ar
  69   37   38 ar
  70   37   76 1
  71   38   39 ar
  72   38   77 1
  73   39   40 ar
  74   39   41 1
  75   40   78 1
  76   41   44 1
  77   42   43 1
  78   43   79 1
  79   43   80 1
  80   43   81 1
  81   44   82 1
  82   44   83 1
  83   44   84 1
  84   45   46 2
  85   45   47 2
  86   48   49 1
  87   49   50 1
  88   49   85 1
  89   49   86 1
  90   50   51 1
  91   50   52 1
  92   50   87 1

#	End of record

