#	Name: ASD01148874
#	Creating user name:	WinNT
#	Creation time:	15. 06. 2019 19:03

#	Modifying user name:	WinNT
#	Modification time:	15. 06. 2019 19:03

#	Program:	/corina/corina34_cracker 3.40 0067  02.08.2006

@<TRIPOS>MOLECULE
ASD01148874
  25   25    0    0    0
SMALL
NO_CHARGES


@<TRIPOS>ATOM
   1 C1            -0.0184     1.5028     0.0103 C.2     
   2 C2             0.0021    -0.0041     0.0020 C.3     
   3 C3             1.4513    -0.4944    -0.0145 C.3     
   4 C4             1.4717    -2.0012    -0.0227 C.2     
   5 C5             2.7869    -2.7369    -0.0392 C.3     
   6 O6             1.0234     2.1233     0.0037 O.2     
   7 O7             0.4342    -2.6192    -0.0162 O.2     
   8 C8            -1.3027     2.2212     0.0203 C.ar    
   9 C9            -1.3259     3.6195     0.0280 C.ar    
  10 C10           -2.5333     4.2853     0.0374 C.ar    
  11 C11           -3.7202     3.5735     0.0397 C.ar    
  12 C12           -3.7057     2.1896     0.0321 C.ar    
  13 C13           -2.5064     1.5092     0.0164 C.ar    
  14 H14           -0.4983    -0.3791     0.8948 H       
  15 H15           -0.5153    -0.3696    -0.8850 H       
  16 H16            1.9516    -0.1193    -0.9073 H       
  17 H17            1.9686    -0.1289     0.8726 H       
  18 H18            3.6056    -2.0174    -0.0432 H       
  19 H19            2.8616    -3.3675     0.8467 H       
  20 H20            2.8446    -3.3579    -0.9332 H       
  21 H21           -0.4005     4.1764     0.0270 H       
  22 H22           -2.5529     5.3652     0.0434 H       
  23 H23           -4.6628     4.1007     0.0478 H       
  24 H24           -4.6360     1.6411     0.0339 H       
  25 H25           -2.4967     0.4293     0.0055 H       
@<TRIPOS>BOND
   1    1    2 1
   2    1    6 2
   3    1    8 1
   4    2    3 1
   5    2   14 1
   6    2   15 1
   7    3    4 1
   8    3   16 1
   9    3   17 1
  10    4    5 1
  11    4    7 2
  12    5   18 1
  13    5   19 1
  14    5   20 1
  15    8    9 ar
  16    8   13 ar
  17    9   10 ar
  18    9   21 1
  19   10   11 ar
  20   10   22 1
  21   11   12 ar
  22   11   23 1
  23   12   13 ar
  24   12   24 1
  25   13   25 1

#	End of record

