#	Name: ASD01410415
#	Creating user name:	WinNT
#	Creation time:	15. 06. 2019 19:17

#	Modifying user name:	WinNT
#	Modification time:	15. 06. 2019 19:17

#	Program:	/corina/corina34_cracker 3.40 0067  02.08.2006

@<TRIPOS>MOLECULE
ASD01410415
  36   38    0    0    0
SMALL
NO_CHARGES


@<TRIPOS>ATOM
   1 S1            -0.0170     1.7585    -0.0186 S.3     
   2 C2            -0.0012     0.0121     0.2828 C.2     
   3 N3             1.2767    -0.3392     0.4661 N.am    
   4 C4             2.2222     0.5831     0.3986 C.2     
   5 C5             1.7430     1.9417     0.1193 C.2     
   6 S6            -1.3612    -1.0267     0.3303 S.2     
   7 O7             3.4010     0.3246     0.5568 O.2     
   8 N8             1.6108    -1.6744     0.7279 N.am    
   9 S9             1.9441    -2.7054    -0.5244 S.o2    
  10 O10            2.3887    -3.9203     0.0636 O.2     
  11 O11            0.8362    -2.6310    -1.4111 O.2     
  12 C12            3.3238    -2.0398    -1.3949 C.ar    
  13 C13            4.6086    -2.3962    -1.0301 C.ar    
  14 C14            5.6911    -1.8740    -1.7130 C.ar    
  15 C15            5.4888    -0.9957    -2.7611 C.ar    
  16 C16            4.2039    -0.6400    -3.1265 C.ar    
  17 C17            3.1213    -1.1656    -2.4464 C.ar    
  18 C18            2.4768     3.0769    -0.0055 C.2     
  19 C19            1.8498     6.7086    -0.7088 C.ar    
  20 C20            0.5359     6.8387    -0.2885 C.ar    
  21 C21            2.4888     5.4879    -0.6200 C.ar    
  22 C22            1.8046     4.3786    -0.1028 C.ar    
  23 C23            0.4772     4.5181     0.3197 C.ar    
  24 C24           -0.1480     5.7439     0.2249 C.ar    
  25 F25           -0.0830     8.0362    -0.3779 F       
  26 F26           -1.4288     5.8802     0.6327 F       
  27 F27            3.7697     5.3625    -1.0306 F       
  28 H28            1.6469    -1.9948     1.6427 H       
  29 H29            4.7667    -3.0825    -0.2112 H       
  30 H30            6.6949    -2.1519    -1.4275 H       
  31 H31            6.3345    -0.5871    -3.2942 H       
  32 H32            4.0458     0.0465    -3.9452 H       
  33 H33            2.1174    -0.8905    -2.7342 H       
  34 H34            3.5551     3.0226    -0.0331 H       
  35 H35            2.3738     7.5630    -1.1110 H       
  36 H36           -0.0560     3.6679     0.7187 H       
@<TRIPOS>BOND
   1    1    2 1
   2    1    5 1
   3    2    3 am
   4    2    6 2
   5    3    4 am
   6    3    8 1
   7    4    5 1
   8    4    7 2
   9    5   18 2
  10    8    9 am
  11    8   28 1
  12    9   10 2
  13    9   11 2
  14    9   12 1
  15   12   13 ar
  16   12   17 ar
  17   13   14 ar
  18   13   29 1
  19   14   15 ar
  20   14   30 1
  21   15   16 ar
  22   15   31 1
  23   16   17 ar
  24   16   32 1
  25   17   33 1
  26   18   22 1
  27   18   34 1
  28   19   20 ar
  29   19   21 ar
  30   19   35 1
  31   20   24 ar
  32   20   25 1
  33   21   22 ar
  34   21   27 1
  35   22   23 ar
  36   23   24 ar
  37   23   36 1
  38   24   26 1

#	End of record

