#	Name: ASD01901555
#	Creating user name:	WinNT
#	Creation time:	15. 06. 2019 19:53

#	Modifying user name:	WinNT
#	Modification time:	15. 06. 2019 19:53

#	Program:	/corina/corina34_cracker 3.40 0067  02.08.2006

@<TRIPOS>MOLECULE
ASD01901555
  34   37    0    0    0
SMALL
NO_CHARGES


@<TRIPOS>ATOM
   1 F1             0.5232    -1.0088     0.8456 F       
   2 C2             0.1125     0.2130     0.3018 C.3     
   3 F3             1.2299     0.9172    -0.1597 F       
   4 F4            -0.7635    -0.0216    -0.7635 F       
   5 C5            -0.5898     1.0234     1.3606 C.ar    
   6 N6            -1.8353     1.3986     1.1825 N.ar    
   7 C7            -2.5056     2.1123     2.0773 C.ar    
   8 C8            -1.9401     2.5070     3.2510 C.ar    
   9 C9            -0.6059     2.1423     3.5141 C.ar    
  10 C10            0.0464     2.5088     4.6974 C.ar    
  11 C11            1.3555     2.1198     4.8960 C.ar    
  12 N12            2.0117     2.4811     6.0722 N.pl3   
  13 C13            3.3924     2.6953     6.0643 C.2     
  14 N14            4.1687     2.6928     5.0131 N.2     
  15 N15            5.4907     2.9438     5.3929 N.pl3   
  16 H16            6.2483     2.9914     4.7891 H       
  17 C17            5.5486     3.1123     6.7495 C.ar    
  18 N18            6.5381     3.3665     7.5975 N.ar    
  19 C19            6.3216     3.4846     8.8896 C.ar    
  20 C20            5.0504     3.3495     9.4285 C.ar    
  21 C21            3.9882     3.0866     8.6023 C.ar    
  22 C22            4.2320     2.9694     7.2309 C.ar    
  23 C23            2.0317     1.3656     3.9287 C.ar    
  24 C24            1.4185     0.9982     2.7722 C.ar    
  25 C25            0.0849     1.3729     2.5405 C.ar    
  26 H26           -3.5287     2.3884     1.8687 H       
  27 H27           -2.5035     3.0884     3.9658 H       
  28 H28           -0.4696     3.0903     5.4470 H       
  29 H29            1.5097     2.5838     6.8958 H       
  30 H30            7.1534     3.6913     9.5467 H       
  31 H31            4.8984     3.4506    10.4930 H       
  32 H32            2.9899     2.9775     8.9997 H       
  33 H33            3.0560     1.0716     4.1041 H       
  34 H34            1.9536     0.4166     2.0362 H       
@<TRIPOS>BOND
   1    1    2 1
   2    2    3 1
   3    2    4 1
   4    2    5 1
   5    5   25 ar
   6    5    6 ar
   7    6    7 ar
   8    7    8 ar
   9    7   26 1
  10    8    9 ar
  11    8   27 1
  12    9   25 ar
  13    9   10 ar
  14   10   11 ar
  15   10   28 1
  16   11   12 1
  17   11   23 ar
  18   12   13 1
  19   12   29 1
  20   13   22 1
  21   13   14 2
  22   14   15 1
  23   15   16 1
  24   15   17 1
  25   17   22 ar
  26   17   18 ar
  27   18   19 ar
  28   19   20 ar
  29   19   30 1
  30   20   21 ar
  31   20   31 1
  32   21   22 ar
  33   21   32 1
  34   23   24 ar
  35   23   33 1
  36   24   25 ar
  37   24   34 1

#	End of record

