#	Name: ASD01190184
#	Creating user name:	WinNT
#	Creation time:	15. 06. 2019 19:07

#	Modifying user name:	WinNT
#	Modification time:	15. 06. 2019 19:07

#	Program:	/corina/corina34_cracker 3.40 0067  02.08.2006

@<TRIPOS>MOLECULE
ASD01190184
  42   45    0    0    0
SMALL
NO_CHARGES


@<TRIPOS>ATOM
   1 C1            -0.0187     1.5258     0.0104 C.3     
   2 C2            -0.8646     2.6189     0.6665 C.3     
   3 C3            -0.5907     0.1743     0.3531 C.2     
   4 C4             0.1023    -0.8497     0.8534 C.2     
   5 C5            -0.6381    -1.9951     1.0897 C.2     
   6 C6            -1.9324    -1.9013     0.7813 C.2     
   7 S7            -2.2759    -0.2916     0.1614 S.3     
   8 C8            -2.9464    -3.0043     0.9438 C.3     
   9 N9            -0.3212     2.1677    -5.5668 N.pl3   
  10 N10           -1.6880     1.9246    -5.7381 N.2     
  11 C11           -2.2455     1.6724    -4.5878 C.2     
  12 C12           -1.2085     1.7447    -3.5633 C.ar    
  13 C13           -1.1994     1.5725    -2.1747 C.ar    
  14 C14           -0.0299     1.7115    -1.4850 C.ar    
  15 C15            1.1505     2.0232    -2.1487 C.ar    
  16 C16            1.1666     2.1967    -3.5037 C.ar    
  17 C17           -0.0109     2.0607    -4.2339 C.ar    
  18 C18            0.5862     2.4664    -6.5915 C.ar    
  19 C19            0.4391     1.8823    -7.8427 C.ar    
  20 C20            1.3347     2.1781    -8.8514 C.ar    
  21 C21            2.3790     3.0566    -8.6158 C.ar    
  22 C22            2.5275     3.6402    -7.3688 C.ar    
  23 C23            1.6307     3.3515    -6.3590 C.ar    
  24 F24            3.2544     3.3443    -9.6038 F       
  25 F25           -0.8542     2.4464     2.0548 F       
  26 F26           -0.3335     3.8735     0.3484 F       
  27 F27           -2.1796     2.5363     0.1962 F       
  28 O28            1.3245     1.6102     0.4908 O.3     
  29 H29            1.1610    -0.7897     1.0584 H       
  30 H30           -0.2008    -2.8966     1.4930 H       
  31 H31           -3.3942    -2.9429     1.9356 H       
  32 H32           -3.7236    -2.8978     0.1870 H       
  33 H33           -2.4547    -3.9700     0.8262 H       
  34 H34           -3.2892     1.4499    -4.4218 H       
  35 H35           -2.1128     1.3309    -1.6515 H       
  36 H36            2.0663     2.1301    -1.5863 H       
  37 H37            2.0907     2.4391    -4.0074 H       
  38 H38           -0.3750     1.1969    -8.0267 H       
  39 H39            1.2209     1.7237    -9.8245 H       
  40 H40            3.3428     4.3248    -7.1870 H       
  41 H41            1.7441     3.8106    -5.3880 H       
  42 H42            1.9187     0.9455     0.1163 H       
@<TRIPOS>BOND
   1    1    2 1
   2    1    3 1
   3    1   14 1
   4    1   28 1
   5    2   25 1
   6    2   26 1
   7    2   27 1
   8    3    4 2
   9    3    7 1
  10    4    5 1
  11    4   29 1
  12    5    6 2
  13    5   30 1
  14    6    7 1
  15    6    8 1
  16    8   31 1
  17    8   32 1
  18    8   33 1
  19    9   10 1
  20    9   17 1
  21    9   18 1
  22   10   11 2
  23   11   12 1
  24   11   34 1
  25   12   13 ar
  26   12   17 ar
  27   13   14 ar
  28   13   35 1
  29   14   15 ar
  30   15   16 ar
  31   15   36 1
  32   16   17 ar
  33   16   37 1
  34   18   19 ar
  35   18   23 ar
  36   19   20 ar
  37   19   38 1
  38   20   21 ar
  39   20   39 1
  40   21   22 ar
  41   21   24 1
  42   22   23 ar
  43   22   40 1
  44   23   41 1
  45   28   42 1

#	End of record

