#	Name: ASD04910005
#	Creating user name:	WinNT
#	Creation time:	15. 06. 2019 20:55

#	Modifying user name:	WinNT
#	Modification time:	15. 06. 2019 20:55

#	Program:	/corina/corina34_cracker 3.40 0067  02.08.2006

@<TRIPOS>MOLECULE
ASD04910005
  76   79    0    0    0
SMALL
NO_CHARGES


@<TRIPOS>ATOM
   1 C1            -4.1353    -6.8074    -7.9053 C.2     
   2 C2            -3.3299    -7.3846    -6.7699 C.3     
   3 C3            -2.2350    -6.3950    -6.3664 C.3     
   4 O4            -3.8616    -5.7164    -8.3466 O.2     
   5 O5            -5.1531    -7.5077    -8.4301 O.3     
   6 C6            -0.4266    -6.2554    -4.7394 C.2     
   7 C7             0.3635    -6.8217    -3.6254 C.ar    
   8 C8             1.4261    -6.0986    -3.0813 C.ar    
   9 C9             2.1590    -6.6326    -2.0416 C.ar    
  10 C10            1.8430    -7.8822    -1.5386 C.ar    
  11 C11            0.7909    -8.6041    -2.0734 C.ar    
  12 C12            0.0463    -8.0792    -3.1095 C.ar    
  13 O13           -0.1513    -5.1579    -5.1833 O.2     
  14 N14           -1.4521    -6.9561    -5.2626 N.am    
  15 C15            2.6486    -8.4596    -0.4034 C.3     
  16 C16            3.3003    -9.7683    -0.8546 C.3     
  17 C17            4.2169   -10.2902     0.2538 C.3     
  18 C18            4.8686   -11.5989    -0.1974 C.3     
  19 N19            1.7651    -8.7215     0.7405 N.3     
  20 O20           -4.0115   -12.8096     2.1133 O.3     
  21 C21           -3.4231   -12.8283     0.8112 C.3     
  22 C22           -3.6914   -11.4947     0.1110 C.3     
  23 C23           -3.1733   -11.5372    -1.3437 C.3     
  24 O24           -4.2441   -11.8139    -2.2487 O.3     
  25 C25           -2.6140   -10.1172    -1.5848 C.3     
  26 O26           -3.3222    -9.4736    -2.6459 O.3     
  27 C27           -2.8603    -9.3847    -0.2472 C.3     
  28 O28           -2.9374   -10.4358     0.7404 O.3     
  29 N29           -1.7453    -8.4833     0.0535 N.am    
  30 C30           -0.5149    -8.9878     0.2588 C.2     
  31 O31           -0.3416   -10.1894     0.1923 O.2     
  32 N32            0.5267    -8.1823     0.5361 N.am    
  33 C33            0.3571    -6.8475     0.6141 C.2     
  34 O34            1.3036    -6.1222     0.8651 O.2     
  35 C35           -0.9218    -6.2969     0.4029 C.2     
  36 C36           -1.9618    -7.1292     0.1178 C.2     
  37 C37           -3.9278    -5.7998     0.7388 C.2     
  38 N38           -5.0782    -5.5273     0.1885 N.2     
  39 C39           -5.1611    -6.1434    -1.0010 C.2     
  40 C40           -4.0199    -6.8269    -1.2026 C.2     
  41 N41           -3.2290    -6.6137    -0.0999 N.pl3   
  42 C42           -6.3314    -6.0803    -1.9483 C.3     
  43 F43           -7.2847    -5.1843    -1.4527 F       
  44 F44           -5.8924    -5.6468    -3.2039 F       
  45 F45           -6.9038    -7.3513    -2.0677 F       
  46 H46           -3.9841    -7.5700    -5.9179 H       
  47 H47           -2.8733    -8.3219    -7.0879 H       
  48 H48           -1.5809    -6.2097    -7.2184 H       
  49 H49           -2.6917    -5.4578    -6.0483 H       
  50 H50           -5.6405    -7.0961    -9.1569 H       
  51 H51            1.6743    -5.1234    -3.4735 H       
  52 H52            2.9815    -6.0742    -1.6196 H       
  53 H53            0.5493    -9.5790    -1.6763 H       
  54 H54           -0.7775    -8.6419    -3.5232 H       
  55 H55           -1.6718    -7.8320    -4.9083 H       
  56 H56            3.4227    -7.7506    -0.1098 H       
  57 H57            2.5261   -10.5066    -1.0634 H       
  58 H58            3.8858    -9.5906    -1.7566 H       
  59 H59            4.9912    -9.5519     0.4626 H       
  60 H60            3.6315   -10.4679     1.1558 H       
  61 H61            4.0944   -12.3371    -0.4063 H       
  62 H62            5.4541   -11.4211    -1.0995 H       
  63 H63            5.5216   -11.9706     0.5922 H       
  64 H64            1.7021    -9.7105     0.9298 H       
  65 H65           -3.8805   -13.6252     2.6158 H       
  66 H66           -2.3477   -12.9819     0.9006 H       
  67 H67           -3.8585   -13.6393     0.2273 H       
  68 H68           -4.7569   -11.2657     0.1277 H       
  69 H69           -2.3851   -12.2830    -1.4468 H       
  70 H70           -4.6717   -12.6688    -2.1024 H       
  71 H71           -1.5481   -10.1595    -1.8088 H       
  72 H72           -3.2513    -9.9263    -3.4975 H       
  73 H73           -3.7979    -8.8303    -0.2852 H       
  74 H74           -1.0750    -5.2294     0.4617 H       
  75 H75           -3.5850    -5.4370     1.6966 H       
  76 H76           -3.7731    -7.4276    -2.0655 H       
@<TRIPOS>BOND
   1    1    2 1
   2    1    4 2
   3    1    5 1
   4    2    3 1
   5    2   46 1
   6    2   47 1
   7    3   14 1
   8    3   48 1
   9    3   49 1
  10    5   50 1
  11    6    7 1
  12    6   13 2
  13    6   14 am
  14    7    8 ar
  15    7   12 ar
  16    8    9 ar
  17    8   51 1
  18    9   10 ar
  19    9   52 1
  20   10   11 ar
  21   10   15 1
  22   11   12 ar
  23   11   53 1
  24   12   54 1
  25   14   55 1
  26   15   16 1
  27   15   19 1
  28   15   56 1
  29   16   17 1
  30   16   57 1
  31   16   58 1
  32   17   18 1
  33   17   59 1
  34   17   60 1
  35   18   61 1
  36   18   62 1
  37   18   63 1
  38   19   32 1
  39   19   64 1
  40   20   21 1
  41   20   65 1
  42   21   22 1
  43   21   66 1
  44   21   67 1
  45   22   23 1
  46   22   28 1
  47   22   68 1
  48   23   24 1
  49   23   25 1
  50   23   69 1
  51   24   70 1
  52   25   26 1
  53   25   27 1
  54   25   71 1
  55   26   72 1
  56   27   28 1
  57   27   29 1
  58   27   73 1
  59   29   30 am
  60   29   36 1
  61   30   31 2
  62   30   32 am
  63   32   33 am
  64   33   34 2
  65   33   35 1
  66   35   36 2
  67   35   74 1
  68   36   41 1
  69   37   38 2
  70   37   41 1
  71   37   75 1
  72   38   39 1
  73   39   40 2
  74   39   42 1
  75   40   41 1
  76   40   76 1
  77   42   43 1
  78   42   44 1
  79   42   45 1

#	End of record

