#	Name: ASD01815522
#	Creating user name:	WinNT
#	Creation time:	15. 06. 2019 19:33

#	Modifying user name:	WinNT
#	Modification time:	15. 06. 2019 19:33

#	Program:	/corina/corina34_cracker 3.40 0067  02.08.2006

@<TRIPOS>MOLECULE
ASD01815522
  66   71    0    0    0
SMALL
NO_CHARGES


@<TRIPOS>ATOM
   1 C1             0.0281     1.4319    -0.0128 C.ar    
   2 C2             0.0302     0.0408    -0.0192 C.ar    
   3 C3             1.1999    -0.6590    -0.0274 C.ar    
   4 C4             2.4230     0.0289    -0.0296 C.ar    
   5 C5             2.4170     1.4452    -0.0231 C.ar    
   6 C6             1.1989     2.1324    -0.0147 C.ar    
   7 C7             3.6493    -0.6682    -0.0385 C.ar    
   8 C8             4.8312    -0.0067    -0.0411 C.ar    
   9 C9             4.8809     1.3960    -0.0349 C.ar    
  10 C10            3.6945     2.1519    -0.0254 C.ar    
  11 C11            6.1564     2.1237    -0.0386 C.2     
  12 N12            6.1029     3.4759    -0.0331 N.am    
  13 C13            4.9079     4.1176    -0.0240 C.2     
  14 N14            3.7662     3.4936    -0.0210 N.2     
  15 O15            7.2214     1.5330    -0.0460 O.2     
  16 C16            7.3451     4.2526    -0.0365 C.3     
  17 C17            7.4015     5.1297     1.2159 C.3     
  18 C18            8.6988     5.9408     1.2124 C.3     
  19 C19            8.7425     6.8276    -0.0336 C.3     
  20 C20            8.6860     5.9506    -1.2860 C.3     
  21 C21            7.3887     5.1394    -1.2825 C.3     
  22 O22            7.3608     4.3015     2.3797 O.3     
  23 C23            3.6443    -2.1752    -0.0448 C.3     
  24 N24            3.3955    -2.6583    -1.4096 N.3     
  25 C25            4.5082    -2.3088    -2.3028 C.3     
  26 C26            4.3046    -2.9439    -3.6492 C.2     
  27 N27            3.4539    -3.9558    -3.8506 N.am    
  28 C28            2.6191    -4.5137    -2.7906 C.3     
  29 C29            3.1726    -4.1132    -1.4217 C.3     
  30 C30            3.3587    -4.5073    -5.1422 C.2     
  31 C31            3.9959    -4.0257    -6.2950 C.2     
  32 N32            3.6685    -4.7977    -7.2992 N.2     
  33 N33            2.8115    -5.7991    -6.8251 N.pl3   
  34 C34            2.6386    -5.6036    -5.4923 C.2     
  35 O35            4.9382    -2.5207    -4.5932 O.2     
  36 C36            2.2123    -6.8707    -7.6243 C.3     
  37 H37           -0.9118     1.9639    -0.0109 H       
  38 H38           -0.9089    -0.4927    -0.0172 H       
  39 H39            1.1854    -1.7389    -0.0320 H       
  40 H40            1.1852     3.2123    -0.0101 H       
  41 H41            5.7531    -0.5693    -0.0476 H       
  42 H42            4.9038     5.1976    -0.0191 H       
  43 H43            8.1980     3.5739    -0.0435 H       
  44 H44            6.5487     5.8084     1.2229 H       
  45 H45            8.7390     6.5657     2.1046 H       
  46 H46            9.5517     5.2621     1.2054 H       
  47 H47            7.8896     7.5063    -0.0266 H       
  48 H48            9.6667     7.4055    -0.0361 H       
  49 H49            8.7171     6.5823    -2.1737 H       
  50 H50            9.5389     5.2719    -1.2930 H       
  51 H51            7.3485     4.5146    -2.1747 H       
  52 H52            6.5358     5.8181    -1.2755 H       
  53 H53            7.3930     4.7916     3.2126 H       
  54 H54            4.6105    -2.5432     0.3004 H       
  55 H55            2.8591    -2.5387     0.6181 H       
  56 H56            4.5541    -1.2258    -2.4169 H       
  57 H57            5.4437    -2.6657    -1.8721 H       
  58 H58            1.6021    -4.1353    -2.8943 H       
  59 H59            2.6088    -5.6006    -2.8727 H       
  60 H60            4.1160    -4.6293    -1.2436 H       
  61 H61            2.4554    -4.3795    -0.6453 H       
  62 H62            4.6459    -3.1646    -6.3453 H       
  63 H63            2.0329    -6.2067    -4.8321 H       
  64 H64            2.8740    -7.7369    -7.6249 H       
  65 H65            1.2497    -7.1491    -7.1952 H       
  66 H66            2.0674    -6.5235    -8.6472 H       
@<TRIPOS>BOND
   1    1    2 ar
   2    1    6 ar
   3    1   37 1
   4    2    3 ar
   5    2   38 1
   6    3    4 ar
   7    3   39 1
   8    4    5 ar
   9    4    7 ar
  10    5    6 ar
  11    5   10 ar
  12    6   40 1
  13    7    8 ar
  14    7   23 1
  15    8    9 ar
  16    8   41 1
  17    9   10 ar
  18    9   11 1
  19   10   14 1
  20   11   12 am
  21   11   15 2
  22   12   13 1
  23   12   16 1
  24   13   14 2
  25   13   42 1
  26   16   17 1
  27   16   21 1
  28   16   43 1
  29   17   18 1
  30   17   22 1
  31   17   44 1
  32   18   19 1
  33   18   45 1
  34   18   46 1
  35   19   20 1
  36   19   47 1
  37   19   48 1
  38   20   21 1
  39   20   49 1
  40   20   50 1
  41   21   51 1
  42   21   52 1
  43   22   53 1
  44   23   24 1
  45   23   54 1
  46   23   55 1
  47   24   25 1
  48   24   29 1
  49   25   26 1
  50   25   56 1
  51   25   57 1
  52   26   27 am
  53   26   35 2
  54   27   28 1
  55   27   30 1
  56   28   29 1
  57   28   58 1
  58   28   59 1
  59   29   60 1
  60   29   61 1
  61   30   31 1
  62   30   34 2
  63   31   32 2
  64   31   62 1
  65   32   33 1
  66   33   34 1
  67   33   36 1
  68   34   63 1
  69   36   64 1
  70   36   65 1
  71   36   66 1

#	End of record

