#	Name: ASD03240012
#	Creating user name:	WinNT
#	Creation time:	15. 06. 2019 20:34

#	Modifying user name:	WinNT
#	Modification time:	15. 06. 2019 20:34

#	Program:	/corina/corina34_cracker 3.40 0067  02.08.2006

@<TRIPOS>MOLECULE
ASD03240012
  77   83    0    0    0
SMALL
NO_CHARGES


@<TRIPOS>ATOM
   1 C1            -0.0096     1.3719     0.2515 C.2     
   2 C2             0.0639     0.3603    -0.7314 C.2     
   3 N3             1.0502     1.6975     0.9489 N.2     
   4 C4             2.2188     1.0836     0.7478 C.2     
   5 C5             2.3318     0.0816    -0.2122 C.2     
   6 N6             1.2359    -0.2725    -0.9501 N.am    
   7 C7             3.6245    -0.5939    -0.4318 C.ar    
   8 C8             3.4021     1.4713     1.5506 C.ar    
   9 C9             3.7529     2.8151     1.6765 C.ar    
  10 C10            4.8562     3.1699     2.4255 C.ar    
  11 C11            5.6139     2.1957     3.0504 C.ar    
  12 C12            5.2711     0.8609     2.9288 C.ar    
  13 C13            4.1662     0.4942     2.1880 C.ar    
  14 C14            3.6917    -1.9895    -0.4593 C.ar    
  15 C15            4.9039    -2.6141    -0.6655 C.ar    
  16 C16            6.0518    -1.8623    -0.8450 C.ar    
  17 C17            5.9930    -0.4799    -0.8190 C.ar    
  18 C18            4.7870     0.1586    -0.6190 C.ar    
  19 C19            7.3726    -2.5525    -1.0693 C.3     
  20 N20            7.5778    -2.7610    -2.5089 N.3     
  21 C21            8.9477    -3.2122    -2.7853 C.3     
  22 C22            9.1688    -3.2787    -4.2981 C.3     
  23 C23            8.1577    -4.2493    -4.9146 C.3     
  24 C24            6.7401    -3.7835    -4.5712 C.3     
  25 C25            6.5893    -3.7023    -3.0505 C.3     
  26 N26            8.3262    -4.2731    -6.3697 N.am    
  27 C27            8.6480    -5.3916    -7.1349 C.ar    
  28 C28            8.7080    -4.9677    -8.4638 C.ar    
  29 N29            8.4209    -3.6047    -8.4650 N.am    
  30 C30            8.1909    -3.2187    -7.1959 C.2     
  31 C31            8.8924    -6.7202    -6.8221 C.ar    
  32 C32            9.1942    -7.6186    -7.8267 C.ar    
  33 C33            9.2538    -7.1982    -9.1444 C.ar    
  34 C34            9.0118    -5.8770    -9.4656 C.ar    
  35 O35            7.9115    -2.0867    -6.8474 O.2     
  36 O36           -0.9257     0.0601    -1.3782 O.2     
  37 C37           -1.3143     2.0856     0.4951 C.3     
  38 C38           -1.1304     3.1109     1.5841 C.ar    
  39 C39           -0.7510     4.4006     1.2608 C.ar    
  40 C40           -0.5817     5.3423     2.2572 C.ar    
  41 C41           -0.7927     4.9931     3.5832 C.ar    
  42 C42           -1.1733     3.6984     3.9049 C.ar    
  43 C43           -1.3468     2.7619     2.9043 C.ar    
  44 O44           -0.6263     5.9176     4.5652 O.3     
  45 H45            1.3003    -0.9687    -1.6225 H       
  46 H46            3.1626     3.5765     1.1885 H       
  47 H47            5.1289     4.2103     2.5237 H       
  48 H48            6.4768     2.4783     3.6353 H       
  49 H49            5.8669     0.1048     3.4184 H       
  50 H50            3.8994    -0.5481     2.0941 H       
  51 H51            2.7967    -2.5774    -0.3190 H       
  52 H52            4.9574    -3.6926    -0.6867 H       
  53 H53            6.8929     0.1003    -0.9598 H       
  54 H54            4.7425     1.2375    -0.5994 H       
  55 H55            8.1778    -1.9336    -0.6734 H       
  56 H56            7.3704    -3.5158    -0.5593 H       
  57 H57            9.6567    -2.5110    -2.3451 H       
  58 H58            9.0987    -4.2010    -2.3523 H       
  59 H59            9.0315    -2.2873    -4.7299 H       
  60 H60           10.1806    -3.6285    -4.5030 H       
  61 H61            8.3202    -5.2491    -4.5118 H       
  62 H62            6.5645    -2.8001    -5.0073 H       
  63 H63            6.0166    -4.4940    -4.9712 H       
  64 H64            6.7514    -4.6889    -2.6163 H       
  65 H65            5.5855    -3.3572    -2.8029 H       
  66 H66            8.3885    -3.0321    -9.2473 H       
  67 H67            8.8472    -7.0517    -5.7953 H       
  68 H68            9.3850    -8.6533    -7.5833 H       
  69 H69            9.4904    -7.9066    -9.9246 H       
  70 H70            9.0588    -5.5528   -10.4948 H       
  71 H71           -1.6334     2.5821    -0.4213 H       
  72 H72           -2.0720     1.3637     0.7999 H       
  73 H73           -0.5865     4.6719     0.2284 H       
  74 H74           -0.2849     6.3495     2.0042 H       
  75 H75           -1.3382     3.4241     4.9364 H       
  76 H76           -1.6431     1.7538     3.1543 H       
  77 H77           -1.4275     6.4168     4.7753 H       
@<TRIPOS>BOND
   1    1    2 1
   2    1    3 2
   3    1   37 1
   4    2   36 2
   5    2    6 am
   6    3    4 1
   7    4    5 2
   8    4    8 1
   9    5    6 1
  10    5    7 1
  11    6   45 1
  12    7   14 ar
  13    7   18 ar
  14    8    9 ar
  15    8   13 ar
  16    9   10 ar
  17    9   46 1
  18   10   11 ar
  19   10   47 1
  20   11   12 ar
  21   11   48 1
  22   12   13 ar
  23   12   49 1
  24   13   50 1
  25   14   15 ar
  26   14   51 1
  27   15   16 ar
  28   15   52 1
  29   16   17 ar
  30   16   19 1
  31   17   18 ar
  32   17   53 1
  33   18   54 1
  34   19   20 1
  35   19   55 1
  36   19   56 1
  37   20   21 1
  38   20   25 1
  39   21   22 1
  40   21   57 1
  41   21   58 1
  42   22   23 1
  43   22   59 1
  44   22   60 1
  45   23   24 1
  46   23   26 1
  47   23   61 1
  48   24   25 1
  49   24   62 1
  50   24   63 1
  51   25   64 1
  52   25   65 1
  53   26   27 1
  54   26   30 am
  55   27   28 ar
  56   27   31 ar
  57   28   29 1
  58   28   34 ar
  59   29   30 am
  60   29   66 1
  61   30   35 2
  62   31   32 ar
  63   31   67 1
  64   32   33 ar
  65   32   68 1
  66   33   34 ar
  67   33   69 1
  68   34   70 1
  69   37   38 1
  70   37   71 1
  71   37   72 1
  72   38   39 ar
  73   38   43 ar
  74   39   40 ar
  75   39   73 1
  76   40   41 ar
  77   40   74 1
  78   41   42 ar
  79   41   44 1
  80   42   43 ar
  81   42   75 1
  82   43   76 1
  83   44   77 1

#	End of record

