#	Name: ASD02038764
#	Creating user name:	WinNT
#	Creation time:	15. 06. 2019 20:17

#	Modifying user name:	WinNT
#	Modification time:	15. 06. 2019 20:17

#	Program:	/corina/corina34_cracker 3.40 0067  02.08.2006

@<TRIPOS>MOLECULE
ASD02038764
  43   45    0    0    0
SMALL
NO_CHARGES


@<TRIPOS>ATOM
   1 C1            -1.2779    -0.8485     0.4650 C.2     
   2 C2            -0.0608    -0.0345     0.3014 C.2     
   3 N3             1.1367    -0.6350     0.1536 N.am    
   4 C4             1.2420    -2.0929     0.2509 C.3     
   5 C5             1.2143    -2.6920    -1.1316 C.ar    
   6 C6             2.3330     0.1703    -0.1044 C.3     
   7 O7            -0.1368     1.1794     0.2997 O.2     
   8 N8            -1.3382    -2.2044     0.4966 N.2     
   9 C9            -2.5783    -2.5670     0.6549 C.2     
  10 N10           -3.3576    -1.4568     0.7305 N.pl3   
  11 C11           -2.5488    -0.3770     0.6181 C.2     
  12 C12            2.3984    -3.0140    -1.7687 C.ar    
  13 C13            0.0049    -2.9243    -1.7593 C.ar    
  14 C14           -0.0224    -3.4737    -3.0275 C.ar    
  15 C15            1.1618    -3.7916    -3.6694 C.ar    
  16 C16            2.3740    -3.5633    -3.0374 C.ar    
  17 C17            2.1206     1.0144    -1.3648 C.3     
  18 C18            3.3432     1.9098    -1.5820 C.3     
  19 O19            3.5432     2.7286    -0.4280 O.3     
  20 C20            3.7938     1.9944     0.7721 C.3     
  21 C21            2.5893     1.1024     1.0838 C.3     
  22 Cl22           3.8608    -3.9611    -3.8405 Cl      
  23 C23           -4.8116    -1.4324     0.9081 C.3     
  24 F24            1.1361    -4.3290    -4.9087 F       
  25 H25            2.1780    -2.3576     0.7429 H       
  26 H26            0.4045    -2.4798     0.8314 H       
  27 H27            3.1912    -0.4867    -0.2458 H       
  28 H28           -2.9308    -3.5860     0.7160 H       
  29 H29           -2.8525     0.6593     0.6384 H       
  30 H30            3.3425    -2.8361    -1.2754 H       
  31 H31           -0.9193    -2.6766    -1.2585 H       
  32 H32           -0.9678    -3.6552    -3.5172 H       
  33 H33            1.9924     0.3579    -2.2255 H       
  34 H34            1.2323     1.6341    -1.2427 H       
  35 H35            4.2242     1.2889    -1.7443 H       
  36 H36            3.1794     2.5436    -2.4535 H       
  37 H37            4.6808     1.3747     0.6406 H       
  38 H38            3.9546     2.6892     1.5964 H       
  39 H39            1.7104     1.7239     1.2554 H       
  40 H40            2.7963     0.5089     1.9743 H       
  41 H41           -5.0473    -1.4076     1.9720 H       
  42 H42           -5.2219    -0.5459     0.4243 H       
  43 H43           -5.2474    -2.3254     0.4600 H       
@<TRIPOS>BOND
   1    1    2 1
   2    1    8 1
   3    1   11 2
   4    2    3 am
   5    2    7 2
   6    3    4 1
   7    3    6 1
   8    4    5 1
   9    4   25 1
  10    4   26 1
  11    5   12 ar
  12    5   13 ar
  13    6   17 1
  14    6   21 1
  15    6   27 1
  16    8    9 2
  17    9   10 1
  18    9   28 1
  19   10   11 1
  20   10   23 1
  21   11   29 1
  22   12   16 ar
  23   12   30 1
  24   13   14 ar
  25   13   31 1
  26   14   15 ar
  27   14   32 1
  28   15   16 ar
  29   15   24 1
  30   16   22 1
  31   17   18 1
  32   17   33 1
  33   17   34 1
  34   18   19 1
  35   18   35 1
  36   18   36 1
  37   19   20 1
  38   20   21 1
  39   20   37 1
  40   20   38 1
  41   21   39 1
  42   21   40 1
  43   23   41 1
  44   23   42 1
  45   23   43 1

#	End of record

