#	Name: ASD07300602
#	Creating user name:	WinNT
#	Creation time:	15. 06. 2019 21:10

#	Modifying user name:	WinNT
#	Modification time:	15. 06. 2019 21:10

#	Program:	/corina/corina34_cracker 3.40 0067  02.08.2006

@<TRIPOS>MOLECULE
ASD07300602
  52   56    0    0    0
SMALL
NO_CHARGES


@<TRIPOS>ATOM
   1 C1            -0.0173     1.4133    -0.0101 C.2     
   2 C2             0.0021    -0.0041     0.0020 C.2     
   3 N3             1.1763     2.0865    -0.0173 N.pl3   
   4 N4             1.1569    -0.6390     0.0061 N.2     
   5 C5             2.3148     0.0278    -0.0010 C.2     
   6 C6             2.3463     1.3763    -0.0123 C.2     
   7 N7            -0.9998     2.3007    -0.0113 N.2     
   8 C8            -0.4910     3.5279    -0.0248 C.2     
   9 C9             0.8847     3.4244    -0.0280 C.2     
  10 C10            2.6183     6.6547    -0.8713 C.ar    
  11 C11            1.6830     5.6297    -0.8957 C.ar    
  12 C12            1.8534     4.5386    -0.0386 C.ar    
  13 C13            2.9695     4.5309     0.8117 C.ar    
  14 C14            3.8497     5.5885     0.7725 C.ar    
  15 N15            3.6574     6.6038    -0.0505 N.ar    
  16 N16            2.4665     7.7444    -1.7217 N.3     
  17 C17            3.5584     8.7116    -1.5387 C.3     
  18 C18            3.3852     9.8628    -2.5329 C.3     
  19 O19            2.0981    10.4577    -2.3463 O.3     
  20 C20            1.0113     9.5440    -2.5177 C.3     
  21 C21            1.1605     8.3896    -1.5233 C.3     
  22 N22           -1.1861    -0.7177     0.0100 N.pl3   
  23 C23           -1.1896    -2.1845    -0.1073 C.3     
  24 C24           -2.0522    -2.7579     1.0227 C.3     
  25 O25           -3.3301    -2.1171     1.0109 O.3     
  26 C26           -3.2811    -0.7092     1.2547 C.3     
  27 C27           -2.4811    -0.0314     0.1422 C.3     
  28 C28           -1.2804     4.8116    -0.0312 C.3     
  29 H29            3.2435    -0.5235     0.0030 H       
  30 H30            3.2936     1.8949    -0.0178 H       
  31 H31            0.8370     5.6745    -1.5656 H       
  32 H32            3.1357     3.7059     1.4885 H       
  33 H33            4.7106     5.5883     1.4245 H       
  34 H34            3.5320     9.1022    -0.5214 H       
  35 H35            4.5145     8.2188    -1.7153 H       
  36 H36            4.1599    10.6105    -2.3627 H       
  37 H37            3.4652     9.4801    -3.5504 H       
  38 H38            0.0690    10.0611    -2.3364 H       
  39 H39            1.0223     9.1520    -3.5347 H       
  40 H40            0.3661     7.6617    -1.6887 H       
  41 H41            1.0957     8.7750    -0.5057 H       
  42 H42           -1.6073    -2.4747    -1.0714 H       
  43 H43           -0.1709    -2.5622    -0.0194 H       
  44 H44           -2.1812    -3.8300     0.8742 H       
  45 H45           -1.5638    -2.5785     1.9805 H       
  46 H46           -4.2942    -0.3074     1.2730 H       
  47 H47           -2.7971    -0.5224     2.2133 H       
  48 H48           -2.3172     1.0161     0.3953 H       
  49 H49           -3.0310    -0.1011    -0.7963 H       
  50 H50           -1.4644     5.1302     0.9949 H       
  51 H51           -0.7157     5.5827    -0.5553 H       
  52 H52           -2.2319     4.6505    -0.5378 H       
@<TRIPOS>BOND
   1    1    2 1
   2    1    3 1
   3    1    7 2
   4    2    4 2
   5    2   22 1
   6    3    6 1
   7    3    9 1
   8    4    5 1
   9    5    6 2
  10    5   29 1
  11    6   30 1
  12    7    8 1
  13    8    9 2
  14    8   28 1
  15    9   12 1
  16   10   11 ar
  17   10   15 ar
  18   10   16 1
  19   11   12 ar
  20   11   31 1
  21   12   13 ar
  22   13   14 ar
  23   13   32 1
  24   14   15 ar
  25   14   33 1
  26   16   17 1
  27   16   21 1
  28   17   18 1
  29   17   34 1
  30   17   35 1
  31   18   19 1
  32   18   36 1
  33   18   37 1
  34   19   20 1
  35   20   21 1
  36   20   38 1
  37   20   39 1
  38   21   40 1
  39   21   41 1
  40   22   23 1
  41   22   27 1
  42   23   24 1
  43   23   42 1
  44   23   43 1
  45   24   25 1
  46   24   44 1
  47   24   45 1
  48   25   26 1
  49   26   27 1
  50   26   46 1
  51   26   47 1
  52   27   48 1
  53   27   49 1
  54   28   50 1
  55   28   51 1
  56   28   52 1

#	End of record

