#	Name: ASD03490106
#	Creating user name:	WinNT
#	Creation time:	15. 06. 2019 20:42

#	Modifying user name:	WinNT
#	Modification time:	15. 06. 2019 20:42

#	Program:	/corina/corina34_cracker 3.40 0067  02.08.2006

@<TRIPOS>MOLECULE
ASD03490106
  47   49    0    0    0
SMALL
NO_CHARGES


@<TRIPOS>ATOM
   1 Cl1            0.0391     7.6881    -3.2123 Cl      
   2 Cl2            0.8087    10.4931    -4.3419 Cl      
   3 C3            -0.0045     1.3241    -0.0721 C.ar    
   4 C4             0.0318    -0.0581    -0.0921 C.ar    
   5 C5             1.2456    -0.7207    -0.0926 C.ar    
   6 C6             2.4256    -0.0033    -0.0732 C.ar    
   7 C7             2.3924     1.3846    -0.0537 C.ar    
   8 C8             1.1721     2.0471    -0.0532 C.ar    
   9 N9             3.5881     2.1155    -0.0335 N.pl3   
  10 N10            4.7708     1.7456     0.6196 N.2     
  11 C11            5.6665     2.6768     0.4117 C.2     
  12 C12            5.0922     3.6752    -0.3802 C.2     
  13 C13            3.8095     3.3084    -0.6498 C.2     
  14 C14            7.0787     2.6735     0.9379 C.3     
  15 C15            7.1935     3.6658     2.0969 C.3     
  16 C16            7.4360     1.2699     1.4309 C.3     
  17 C17            8.0404     3.0816    -0.1800 C.3     
  18 N18            2.8896     4.0253    -1.4146 N.am    
  19 C19            3.2457     5.2005    -1.9701 C.2     
  20 N20            2.3567     5.8933    -2.7092 N.am    
  21 C21            2.6985     7.1527    -3.2161 C.ar    
  22 C22            1.7057     8.0842    -3.4933 C.ar    
  23 C23            2.0474     9.3277    -3.9941 C.ar    
  24 C24            3.3760     9.6428    -4.2184 C.ar    
  25 C25            4.3652     8.7167    -3.9429 C.ar    
  26 C26            4.0308     7.4755    -3.4373 C.ar    
  27 O27            4.3689     5.6358    -1.8044 O.2     
  28 H28           -0.9540     1.8388    -0.0759 H       
  29 H29           -0.8896    -0.6213    -0.1069 H       
  30 H30            1.2708    -1.8003    -0.1078 H       
  31 H31            3.3733    -0.5213    -0.0729 H       
  32 H32            1.1431     3.1266    -0.0380 H       
  33 H33            5.5810     4.5759    -0.7212 H       
  34 H34            6.5084     3.3750     2.8932 H       
  35 H35            8.2149     3.6634     2.4774 H       
  36 H36            6.9389     4.6657     1.7456 H       
  37 H37            7.3543     0.5630     0.6052 H       
  38 H38            8.4574     1.2675     1.8114 H       
  39 H39            6.7509     0.9792     2.2273 H       
  40 H40            7.7858     4.0816    -0.5312 H       
  41 H41            9.0618     3.0792     0.2006 H       
  42 H42            7.9586     2.3747    -1.0056 H       
  43 H43            1.9936     3.6781    -1.5468 H       
  44 H44            1.4802     5.5193    -2.8900 H       
  45 H45            3.6408    10.6139    -4.6098 H       
  46 H46            5.4011     8.9657    -4.1194 H       
  47 H47            4.8048     6.7549    -3.2185 H       
@<TRIPOS>BOND
   1    1   22 1
   2    2   23 1
   3    3    4 ar
   4    3    8 ar
   5    3   28 1
   6    4    5 ar
   7    4   29 1
   8    5    6 ar
   9    5   30 1
  10    6    7 ar
  11    6   31 1
  12    7    8 ar
  13    7    9 1
  14    8   32 1
  15    9   10 1
  16    9   13 1
  17   10   11 2
  18   11   12 1
  19   11   14 1
  20   12   13 2
  21   12   33 1
  22   13   18 1
  23   14   15 1
  24   14   16 1
  25   14   17 1
  26   15   34 1
  27   15   35 1
  28   15   36 1
  29   16   37 1
  30   16   38 1
  31   16   39 1
  32   17   40 1
  33   17   41 1
  34   17   42 1
  35   18   19 am
  36   18   43 1
  37   19   20 am
  38   19   27 2
  39   20   21 1
  40   20   44 1
  41   21   22 ar
  42   21   26 ar
  43   22   23 ar
  44   23   24 ar
  45   24   25 ar
  46   24   45 1
  47   25   26 ar
  48   25   46 1
  49   26   47 1

#	End of record

