#	Name: ASD03430188
#	Creating user name:	WinNT
#	Creation time:	15. 06. 2019 20:40

#	Modifying user name:	WinNT
#	Modification time:	15. 06. 2019 20:40

#	Program:	/corina/corina34_cracker 3.40 0067  02.08.2006

@<TRIPOS>MOLECULE
ASD03430188
  67   73    0    0    0
SMALL
NO_CHARGES


@<TRIPOS>ATOM
   1 C1             0.0471     1.2770     0.0997 C.ar    
   2 C2             0.0463    -0.1002     0.0654 C.ar    
   3 C3             1.2393    -0.7920     0.0475 C.ar    
   4 C4             2.4515    -0.1074     0.0728 C.ar    
   5 C5             2.4436     1.2819     0.0964 C.ar    
   6 C6             1.2441     1.9834     0.1066 C.ar    
   7 O7             3.5060    -0.9720     0.0848 O.3     
   8 C8             1.5750    -2.2576    -0.0090 C.3     
   9 C9             3.0659    -2.2638    -0.3761 C.3     
  10 C10            0.4306    -3.9887     0.9961 C.ar    
  11 C11            1.3165    -2.9560     1.2927 C.ar    
  12 C12            0.7512    -2.9930    -1.0269 C.2     
  13 N13            0.1213    -3.9845    -0.3662 N.am    
  14 O14            0.6684    -2.7432    -2.2109 O.2     
  15 C15            1.7601    -2.7632     2.5821 C.ar    
  16 C16            1.3282    -3.5993     3.5965 C.ar    
  17 C17            0.4503    -4.6297     3.3127 C.ar    
  18 C18            0.0027    -4.8266     2.0231 C.ar    
  19 C19           -0.7829    -4.9457    -1.0025 C.3     
  20 C20           -1.0728     2.2978     0.1463 C.3     
  21 C21           -0.3191     3.5817     0.5674 C.3     
  22 O22            1.0211     3.3272     0.1139 O.3     
  23 C23           -2.1908    -4.4093    -0.9688 C.ar    
  24 C24           -2.6561    -3.6301    -2.0131 C.ar    
  25 C25           -3.9440    -3.1363    -1.9887 C.ar    
  26 C26           -4.7782    -3.4243    -0.9072 C.ar    
  27 C27           -4.3024    -4.2111     0.1431 C.ar    
  28 C28           -3.0141    -4.7029     0.1037 C.ar    
  29 C29           -6.1591    -2.8982    -0.8741 C.2     
  30 N30           -6.9621    -3.1782     0.1716 N.am    
  31 O31           -6.5706    -2.2130    -1.7900 O.2     
  32 C32           -8.2390    -2.6127     0.2437 C.ar    
  33 C33           -8.8945    -2.2239    -0.9172 C.ar    
  34 C34          -10.1559    -1.6661    -0.8425 C.ar    
  35 C35          -10.7660    -1.4946     0.3864 C.ar    
  36 C36          -10.1157    -1.8803     1.5445 C.ar    
  37 C37           -8.8569    -2.4438     1.4763 C.ar    
  38 C38          -12.1423    -0.8857     0.4641 C.3     
  39 C39           -8.1493    -2.8642     2.7387 C.3     
  40 H40           -0.8897    -0.6388     0.0530 H       
  41 H41            3.3789     1.8218     0.1078 H       
  42 H42            3.1988    -2.3561    -1.4540 H       
  43 H43            3.5906    -3.0616     0.1495 H       
  44 H44            2.4456    -1.9582     2.8019 H       
  45 H45            1.6762    -3.4479     4.6076 H       
  46 H46            0.1142    -5.2831     4.1042 H       
  47 H47           -0.6828    -5.6332     1.8089 H       
  48 H48           -0.4780    -5.1011    -2.0374 H       
  49 H49           -0.7421    -5.8933    -0.4655 H       
  50 H50           -1.5302     2.4191    -0.8355 H       
  51 H51           -1.8197     2.0227     0.8911 H       
  52 H52           -0.7364     4.4559     0.0677 H       
  53 H53           -0.3433     3.7062     1.6500 H       
  54 H54           -2.0095    -3.4076    -2.8491 H       
  55 H55           -4.3059    -2.5278    -2.8043 H       
  56 H56           -4.9428    -4.4377     0.9828 H       
  57 H57           -2.6448    -5.3121     0.9155 H       
  58 H58           -6.6542    -3.7720     0.8741 H       
  59 H59           -8.4184    -2.3573    -1.8774 H       
  60 H60          -10.6661    -1.3632    -1.7449 H       
  61 H61          -10.5947    -1.7444     2.5029 H       
  62 H62          -12.8924    -1.6744     0.4057 H       
  63 H63          -12.2502    -0.3507     1.4076 H       
  64 H64          -12.2798    -0.1914    -0.3649 H       
  65 H65           -8.4008    -3.8995     2.9687 H       
  66 H66           -7.0721    -2.7746     2.5985 H       
  67 H67           -8.4631    -2.2225     3.5621 H       
@<TRIPOS>BOND
   1    1    2 ar
   2    1    6 ar
   3    1   20 1
   4    2    3 ar
   5    2   40 1
   6    3    4 ar
   7    3    8 1
   8    4    5 ar
   9    4    7 1
  10    5    6 ar
  11    5   41 1
  12    6   22 1
  13    7    9 1
  14    8    9 1
  15    8   11 1
  16    8   12 1
  17    9   42 1
  18    9   43 1
  19   10   11 ar
  20   10   13 1
  21   10   18 ar
  22   11   15 ar
  23   12   13 am
  24   12   14 2
  25   13   19 1
  26   15   16 ar
  27   15   44 1
  28   16   17 ar
  29   16   45 1
  30   17   18 ar
  31   17   46 1
  32   18   47 1
  33   19   23 1
  34   19   48 1
  35   19   49 1
  36   20   21 1
  37   20   50 1
  38   20   51 1
  39   21   22 1
  40   21   52 1
  41   21   53 1
  42   23   24 ar
  43   23   28 ar
  44   24   25 ar
  45   24   54 1
  46   25   26 ar
  47   25   55 1
  48   26   27 ar
  49   26   29 1
  50   27   28 ar
  51   27   56 1
  52   28   57 1
  53   29   30 am
  54   29   31 2
  55   30   32 1
  56   30   58 1
  57   32   33 ar
  58   32   37 ar
  59   33   34 ar
  60   33   59 1
  61   34   35 ar
  62   34   60 1
  63   35   36 ar
  64   35   38 1
  65   36   37 ar
  66   36   61 1
  67   37   39 1
  68   38   62 1
  69   38   63 1
  70   38   64 1
  71   39   65 1
  72   39   66 1
  73   39   67 1

#	End of record

