#	Name: ASD01901028
#	Creating user name:	WinNT
#	Creation time:	15. 06. 2019 19:53

#	Modifying user name:	WinNT
#	Modification time:	15. 06. 2019 19:53

#	Program:	/corina/corina34_cracker 3.40 0067  02.08.2006

@<TRIPOS>MOLECULE
ASD01901028
  27   28    0    0    0
SMALL
NO_CHARGES


@<TRIPOS>ATOM
   1 C1             0.0021    -0.0041     0.0020 C.1     
   2 C2            -0.0173     1.4278     0.0099 C.ar    
   3 C3             1.1917     2.1548     0.0023 C.ar    
   4 C4             1.1551     3.5503     0.0096 C.ar    
   5 C5            -0.0576     4.2080     0.0242 C.ar    
   6 C6            -1.2446     3.4936     0.0317 C.ar    
   7 C7            -1.2316     2.1136     0.0193 C.ar    
   8 N8             0.0175    -1.1399    -0.0042 N.1     
   9 C9             2.4814     1.4476    -0.0129 C.2     
  10 C10            3.6310     2.1455    -0.0201 C.2     
  11 C11            6.1239    -0.5324    -0.0559 C.ar    
  12 N12            4.9640     0.1040    -0.0419 N.ar    
  13 C13            4.9220     1.4376    -0.0352 C.ar    
  14 C14            6.1269     2.1535    -0.0434 C.ar    
  15 C15            7.3134     1.4442    -0.0580 C.ar    
  16 N16            7.2774     0.1205    -0.0638 N.ar    
  17 N17            6.1331    -1.9166    -0.0566 N.pl3   
  18 H18            2.0758     4.1149     0.0042 H       
  19 H19           -0.0817     5.2877     0.0303 H       
  20 H20           -2.1872     4.0207     0.0436 H       
  21 H21           -2.1617     1.5648     0.0207 H       
  22 H22            2.5052     0.3678    -0.0182 H       
  23 H23            3.6073     3.2252    -0.0148 H       
  24 H24            6.1285     3.2335    -0.0387 H       
  25 H25            8.2599     1.9642    -0.0649 H       
  26 H26            5.2963    -2.4071    -0.0469 H       
  27 H27            6.9762    -2.3960    -0.0668 H       
@<TRIPOS>BOND
   1    1    2 1
   2    1    8 3
   3    2    3 ar
   4    2    7 ar
   5    3    4 ar
   6    3    9 1
   7    4    5 ar
   8    4   18 1
   9    5    6 ar
  10    5   19 1
  11    6    7 ar
  12    6   20 1
  13    7   21 1
  14    9   10 2
  15    9   22 1
  16   10   13 1
  17   10   23 1
  18   11   12 ar
  19   11   16 ar
  20   11   17 1
  21   12   13 ar
  22   13   14 ar
  23   14   15 ar
  24   14   24 1
  25   15   16 ar
  26   15   25 1
  27   17   26 1
  28   17   27 1

#	End of record

