#	Name: ASD01948107
#	Creating user name:	WinNT
#	Creation time:	15. 06. 2019 20:13

#	Modifying user name:	WinNT
#	Modification time:	15. 06. 2019 20:13

#	Program:	/corina/corina34_cracker 3.40 0067  02.08.2006

@<TRIPOS>MOLECULE
ASD01948107
  43   45    0    0    0
SMALL
NO_CHARGES


@<TRIPOS>ATOM
   1 C1             1.8006     1.4194    -1.0460 C.ar    
   2 C2             1.5989     0.0463    -1.1431 C.ar    
   3 C3             1.7727    -0.5930    -2.3629 C.ar    
   4 C4             2.1452     0.1352    -3.4766 C.ar    
   5 C5             2.3457     1.5000    -3.3779 C.ar    
   6 C6             2.1676     2.1427    -2.1655 C.ar    
   7 N7             1.2222    -0.6887    -0.0137 N.pl3   
   8 C8             3.6318    -2.2833    -0.4396 C.2     
   9 C9             2.3519    -2.8733    -0.2911 C.2     
  10 C10            1.1518    -2.0667    -0.0783 C.2     
  11 C11            6.0308    -2.5392    -0.7966 C.3     
  12 N12            4.6884    -3.1042    -0.6382 N.am    
  13 F13            1.6326     2.0458     0.1391 F       
  14 I14            2.9110     2.5982    -5.0700 I       
  15 C15            2.2382    -4.2694    -0.3501 C.2     
  16 N16            1.0116    -4.8554    -0.2085 N.am    
  17 C17           -0.0978    -4.1235    -0.0125 C.2     
  18 C18           -0.0593    -2.7274     0.0571 C.2     
  19 C19            4.5114    -4.4452    -0.6909 C.2     
  20 N20            3.3414    -5.0049    -0.5450 N.2     
  21 O21            3.7753    -1.0742    -0.3948 O.2     
  22 C22            0.9042    -6.3151    -0.2718 C.3     
  23 O23           -1.1703    -4.6935     0.1078 O.2     
  24 C24            6.7013    -2.4259     0.5740 C.3     
  25 C25            8.1033    -1.8359     0.4086 C.3     
  26 O26            5.9224    -1.5740     1.4164 O.3     
  27 O27            8.7729    -1.8378     1.6710 O.3     
  28 Cl28          -1.5209    -1.8261     0.3119 Cl      
  29 H29            1.6173    -1.6588    -2.4413 H       
  30 H30            2.2804    -0.3624    -4.4255 H       
  31 H31            2.3245     3.2087    -2.0917 H       
  32 H32            1.0105    -0.2305     0.8146 H       
  33 H33            6.6249    -3.1890    -1.4392 H       
  34 H34            5.9577    -1.5499    -1.2482 H       
  35 H35            5.3728    -5.0768    -0.8506 H       
  36 H36            1.0210    -6.7317     0.7286 H       
  37 H37           -0.0730    -6.5906    -0.6683 H       
  38 H38            1.6847    -6.7089    -0.9228 H       
  39 H39            6.7745    -3.4152     1.0256 H       
  40 H40            8.6687    -2.4369    -0.3036 H       
  41 H41            8.0259    -0.8130     0.0399 H       
  42 H42            5.8154    -0.6753     1.0759 H       
  43 H43            9.6694    -1.4766     1.6412 H       
@<TRIPOS>BOND
   1    1    2 ar
   2    1   13 1
   3    1    6 ar
   4    2    3 ar
   5    2    7 1
   6    3    4 ar
   7    3   29 1
   8    4    5 ar
   9    4   30 1
  10    5    6 ar
  11    5   14 1
  12    6   31 1
  13    7   10 1
  14    7   32 1
  15    8    9 1
  16    8   21 2
  17    8   12 am
  18    9   10 1
  19    9   15 2
  20   10   18 2
  21   11   12 1
  22   11   24 1
  23   11   33 1
  24   11   34 1
  25   12   19 1
  26   15   16 1
  27   15   20 1
  28   16   17 am
  29   16   22 1
  30   17   18 1
  31   17   23 2
  32   18   28 1
  33   19   20 2
  34   19   35 1
  35   22   36 1
  36   22   37 1
  37   22   38 1
  38   24   25 1
  39   24   26 1
  40   24   39 1
  41   25   27 1
  42   25   40 1
  43   25   41 1
  44   26   42 1
  45   27   43 1

#	End of record

