#	Name: ASD08178041
#	Creating user name:	WinNT
#	Creation time:	15. 06. 2019 21:18

#	Modifying user name:	WinNT
#	Modification time:	15. 06. 2019 21:18

#	Program:	/corina/corina34_cracker 3.40 0067  02.08.2006

@<TRIPOS>MOLECULE
ASD08178041
  73   78    0    0    0
SMALL
NO_CHARGES


@<TRIPOS>ATOM
   1 N1            -0.0155     1.2947     0.0092 N.2     
   2 C2             0.0021    -0.0041     0.0020 C.2     
   3 N3            -1.1168    -0.8300     0.0076 N.am    
   4 N4             1.0945     1.8960     0.0018 N.2     
   5 C5             2.1557     1.1534    -0.0123 C.2     
   6 S6             1.6320    -0.5310    -0.0164 S.3     
   7 C7             3.5816     1.6410    -0.0241 C.3     
   8 C8             4.0787     1.7984     1.4143 C.3     
   9 C9             6.1989     2.5079     3.1644 C.3     
  10 C10            7.6391     2.9988     3.3250 C.3     
  11 C11            7.9746     3.1008     4.7906 C.2     
  12 N12            8.4834     2.1629     5.5249 N.2     
  13 N13            8.6933     2.4459     6.7372 N.2     
  14 C14            8.3839     3.6414     7.1397 C.2     
  15 S15            7.7520     4.5212     5.8126 S.3     
  16 N16            8.5433     4.1281     8.4328 N.am    
  17 C17            9.0592     3.3348     9.3925 C.2     
  18 O18            9.3844     2.1966     9.1285 O.2     
  19 C19            9.2319     3.8621    10.7936 C.3     
  20 C20           -2.3521    -0.2911     0.0220 C.2     
  21 O21           -2.4879     0.9140     0.0301 O.2     
  22 C22           -3.5646    -1.1861     0.0280 C.3     
  23 C23           -3.5400    -2.0772     1.2682 C.3     
  24 S24            5.7950     2.3852     1.4002 S.3     
  25 C25           -4.8369    -0.3316     0.0714 C.3     
  26 C26           -6.0383    -1.2444    -0.1658 C.3     
  27 C27           -5.9924    -2.4312     0.7608 C.ar    
  28 C28           -4.8441    -2.8164     1.4155 C.ar    
  29 C29           -7.1653    -3.1513     0.9476 C.ar    
  30 C30           -7.1878    -4.2509     1.7804 C.ar    
  31 C31           -6.0337    -4.6403     2.4343 C.ar    
  32 C32           -4.8682    -3.9254     2.2513 C.ar    
  33 C33            7.8754     4.2817    11.3563 C.3     
  34 C34            7.9862     4.5994    12.8245 C.ar    
  35 C35            9.0497     4.1846    13.5944 C.ar    
  36 C36           10.1963     3.3867    13.0307 C.3     
  37 C37            9.8087     2.7616    11.6921 C.3     
  38 C38            6.9645     5.3398    13.4050 C.ar    
  39 C39            7.0056     5.6604    14.7461 C.ar    
  40 C40            8.0716     5.2409    15.5198 C.ar    
  41 C41            9.0879     4.5060    14.9450 C.ar    
  42 H42           -1.0082    -1.7939     0.0010 H       
  43 H43            4.2081     0.9191    -0.5480 H       
  44 H44            3.6324     2.6033    -0.5334 H       
  45 H45            3.4522     2.5202     1.9383 H       
  46 H46            4.0279     0.8360     1.9237 H       
  47 H47            6.0951     1.5278     3.6299 H       
  48 H48            5.5194     3.2120     3.6446 H       
  49 H49            8.3186     2.2947     2.8448 H       
  50 H50            7.7429     3.9790     2.8595 H       
  51 H51            8.2832     5.0384     8.6439 H       
  52 H52            9.9058     4.7188    10.7829 H       
  53 H53           -3.5681    -1.8054    -0.8690 H       
  54 H54           -2.7269    -2.7974     1.1771 H       
  55 H55           -3.3751    -1.4597     2.1512 H       
  56 H56           -4.9255     0.1458     1.0473 H       
  57 H57           -4.7947     0.4296    -0.7077 H       
  58 H58           -6.9561    -0.6843     0.0127 H       
  59 H59           -6.0260    -1.5937    -1.1982 H       
  60 H60           -8.0672    -2.8478     0.4369 H       
  61 H61           -8.1038    -4.8053     1.9212 H       
  62 H62           -6.0447    -5.5011     3.0865 H       
  63 H63           -3.9669    -4.2306     2.7621 H       
  64 H64            7.5227     5.1645    10.8232 H       
  65 H65            7.1618     3.4695    11.2171 H       
  66 H66           11.0542     4.0433    12.8857 H       
  67 H67           10.4636     2.5966    13.7324 H       
  68 H68            9.0582     1.9875    11.8520 H       
  69 H69           10.6903     2.3272    11.2207 H       
  70 H70            6.1311     5.6675    12.8013 H       
  71 H71            6.2079     6.2375    15.1900 H       
  72 H72            8.1089     5.4878    16.5705 H       
  73 H73            9.9202     4.1784    15.5502 H       
@<TRIPOS>BOND
   1    1    2 2
   2    1    4 1
   3    2    3 1
   4    2    6 1
   5    3   20 am
   6    3   42 1
   7    4    5 2
   8    5    6 1
   9    5    7 1
  10    7    8 1
  11    7   43 1
  12    7   44 1
  13    8   24 1
  14    8   45 1
  15    8   46 1
  16    9   10 1
  17    9   24 1
  18    9   47 1
  19    9   48 1
  20   10   11 1
  21   10   49 1
  22   10   50 1
  23   11   12 2
  24   11   15 1
  25   12   13 1
  26   13   14 2
  27   14   15 1
  28   14   16 1
  29   16   17 am
  30   16   51 1
  31   17   18 2
  32   17   19 1
  33   19   33 1
  34   19   37 1
  35   19   52 1
  36   20   21 2
  37   20   22 1
  38   22   23 1
  39   22   25 1
  40   22   53 1
  41   23   28 1
  42   23   54 1
  43   23   55 1
  44   25   26 1
  45   25   56 1
  46   25   57 1
  47   26   27 1
  48   26   58 1
  49   26   59 1
  50   27   28 ar
  51   27   29 ar
  52   28   32 ar
  53   29   30 ar
  54   29   60 1
  55   30   31 ar
  56   30   61 1
  57   31   32 ar
  58   31   62 1
  59   32   63 1
  60   33   34 1
  61   33   64 1
  62   33   65 1
  63   34   35 ar
  64   34   38 ar
  65   35   36 1
  66   35   41 ar
  67   36   37 1
  68   36   66 1
  69   36   67 1
  70   37   68 1
  71   37   69 1
  72   38   39 ar
  73   38   70 1
  74   39   40 ar
  75   39   71 1
  76   40   41 ar
  77   40   72 1
  78   41   73 1

#	End of record

