#	Name: ASD01881661
#	Creating user name:	WinNT
#	Creation time:	15. 06. 2019 19:43

#	Modifying user name:	WinNT
#	Modification time:	15. 06. 2019 19:43

#	Program:	/corina/corina34_cracker 3.40 0067  02.08.2006

@<TRIPOS>MOLECULE
ASD01881661
  55   59    0    0    0
SMALL
NO_CHARGES


@<TRIPOS>ATOM
   1 C1            -0.0161     1.3337     0.0094 C.2     
   2 N2             0.0021    -0.0041     0.0020 N.am    
   3 C3             1.2613    -0.4841    -0.0126 C.2     
   4 C4             2.1640     0.7337    -0.0147 C.3     
   5 N5             1.2200     1.8645     0.0004 N.am    
   6 O6            -1.0354     1.9955     0.0180 O.2     
   7 O7             1.6013    -1.6477    -0.0215 O.2     
   8 C8             1.5609     3.2893     0.0041 C.3     
   9 C9             0.9695     3.9845    -1.2404 C.3     
  10 C10           -0.3926     4.4914    -0.7211 C.3     
  11 C11           -0.2060     4.6715     0.7705 C.ar    
  12 C12           -0.9592     5.3830     1.6861 C.ar    
  13 C13           -0.5894     5.4048     3.0286 C.ar    
  14 C14            0.5436     4.7065     3.4436 C.ar    
  15 C15            1.2886     4.0005     2.5234 C.ar    
  16 C16            0.9174     3.9803     1.1878 C.ar    
  17 C17           -3.5016     8.2528     7.0300 C.2     
  18 N18           -2.7778     7.9792     8.1290 N.am    
  19 C19           -1.6509     7.1192     7.7503 C.3     
  20 C20           -1.7726     6.8949     6.2635 C.ar    
  21 C21           -1.0231     6.1873     5.3565 C.ar    
  22 C22           -1.3964     6.1673     4.0115 C.ar    
  23 C23           -2.5293     6.8659     3.5929 C.ar    
  24 C24           -3.2805     7.5752     4.5023 C.ar    
  25 C25           -2.9090     7.5969     5.8498 C.ar    
  26 C26           -3.0663     8.4608     9.4821 C.3     
  27 C27           -3.9768     7.4599    10.1964 C.3     
  28 F28           -3.3373     6.2178    10.2699 F       
  29 F29           -4.2523     7.9198    11.4886 F       
  30 F30           -5.1733     7.3269     9.4837 F       
  31 O31           -4.5049     8.9391     7.0124 O.2     
  32 C32           -1.1986    -0.8435     0.0097 C.3     
  33 C33           -1.6312    -1.1279    -1.4300 C.3     
  34 H34            2.7924     0.7467     0.8759 H       
  35 H35            2.7753     0.7564    -0.9169 H       
  36 H36            2.6429     3.4186     0.0311 H       
  37 H37            1.5986     4.8174    -1.5545 H       
  38 H38            0.8332     3.2722    -2.0540 H       
  39 H39           -0.6451     5.4432    -1.1883 H       
  40 H40           -1.1708     3.7541    -0.9185 H       
  41 H41           -1.8361     5.9224     1.3597 H       
  42 H42            0.8371     4.7190     4.4829 H       
  43 H43            2.1664     3.4595     2.8448 H       
  44 H44           -0.7077     7.6157     7.9783 H       
  45 H45           -1.7115     6.1679     8.2789 H       
  46 H46           -0.1464     5.6477     5.6829 H       
  47 H47           -2.8174     6.8504     2.5522 H       
  48 H48           -4.1569     8.1148     4.1749 H       
  49 H49           -2.1341     8.5644    10.0374 H       
  50 H50           -3.5645     9.4286     9.4249 H       
  51 H51           -0.9813    -1.7838     0.5163 H       
  52 H52           -2.0010    -0.3250     0.5345 H       
  53 H53           -1.8486    -0.1876    -1.9366 H       
  54 H54           -0.8288    -1.6464    -1.9548 H       
  55 H55           -2.5246    -1.7525    -1.4242 H       
@<TRIPOS>BOND
   1    1    2 am
   2    1    5 am
   3    1    6 2
   4    2    3 am
   5    2   32 1
   6    3    4 1
   7    3    7 2
   8    4    5 1
   9    4   34 1
  10    4   35 1
  11    5    8 1
  12    8    9 1
  13    8   16 1
  14    8   36 1
  15    9   10 1
  16    9   37 1
  17    9   38 1
  18   10   11 1
  19   10   39 1
  20   10   40 1
  21   11   12 ar
  22   11   16 ar
  23   12   13 ar
  24   12   41 1
  25   13   14 ar
  26   13   22 1
  27   14   15 ar
  28   14   42 1
  29   15   16 ar
  30   15   43 1
  31   17   18 am
  32   17   25 1
  33   17   31 2
  34   18   19 1
  35   18   26 1
  36   19   20 1
  37   19   44 1
  38   19   45 1
  39   20   21 ar
  40   20   25 ar
  41   21   22 ar
  42   21   46 1
  43   22   23 ar
  44   23   24 ar
  45   23   47 1
  46   24   25 ar
  47   24   48 1
  48   26   27 1
  49   26   49 1
  50   26   50 1
  51   27   28 1
  52   27   29 1
  53   27   30 1
  54   32   33 1
  55   32   51 1
  56   32   52 1
  57   33   53 1
  58   33   54 1
  59   33   55 1

#	End of record

