#	Name: ASD01816373
#	Creating user name:	WinNT
#	Creation time:	15. 06. 2019 19:35

#	Modifying user name:	WinNT
#	Modification time:	15. 06. 2019 19:35

#	Program:	/corina/corina34_cracker 3.40 0067  02.08.2006

@<TRIPOS>MOLECULE
ASD01816373
  56   60    0    0    0
SMALL
NO_CHARGES


@<TRIPOS>ATOM
   1 C1            -0.0167     1.3813     0.0096 C.ar    
   2 C2             0.0021    -0.0041     0.0020 C.ar    
   3 C3             1.1983    -0.6908    -0.0131 C.ar    
   4 C4             2.4015     0.0061    -0.0208 C.ar    
   5 C5             2.3789     1.4107    -0.0130 C.ar    
   6 C6             1.1662     2.0917     0.0022 C.ar    
   7 N7             3.6051    -0.6769    -0.0354 N.pl3   
   8 C8             4.7970    -0.0582    -0.0434 C.2     
   9 C9             4.9000     1.3105    -0.0371 C.2     
  10 C10            3.6670     2.1304    -0.0215 C.2     
  11 C11            5.9971     2.2733    -0.0415 C.2     
  12 N12            5.4243     3.4963    -0.0296 N.am    
  13 N13            4.0321     3.3797    -0.0178 N.2     
  14 O14            7.1905     2.0236    -0.0536 O.2     
  15 C15            3.5777    -2.1417    -0.0420 C.3     
  16 C16            3.5548    -2.6373    -1.4650 C.ar    
  17 C17            4.7424    -2.8865    -2.1280 C.ar    
  18 C18            4.7246    -3.3404    -3.4324 C.ar    
  19 C19            3.5127    -3.5467    -4.0776 C.ar    
  20 C20            2.3220    -3.2960    -3.4092 C.ar    
  21 C21            2.3462    -2.8472    -2.1031 C.ar    
  22 N22            3.4914    -4.0069    -5.4016 N.pl3   
  23 C23            2.3863    -4.2481    -6.1427 C.2     
  24 C24            2.7925    -4.6775    -7.3599 C.2     
  25 C25            4.1915    -4.6998    -7.3641 C.2     
  26 N26            4.6113    -4.2924    -6.1933 N.2     
  27 C27            6.0993     4.6628    -0.0286 C.2     
  28 O28            5.4275     5.8292    -0.0161 O.3     
  29 O29            7.3139     4.6616    -0.0389 O.2     
  30 C30            6.2196     7.0461    -0.0158 C.3     
  31 C31            7.0916     7.0874    -1.2723 C.3     
  32 C32            5.2888     8.2604    -0.0009 C.3     
  33 C33            7.1128     7.0729     1.2261 C.3     
  34 H34           -0.9602     1.9069     0.0169 H       
  35 H35           -0.9288    -0.5516     0.0083 H       
  36 H36            1.2003    -1.7708    -0.0185 H       
  37 H37            1.1506     3.1715     0.0077 H       
  38 H38            5.6982    -0.6533    -0.0548 H       
  39 H39            4.4656    -2.5239     0.4616 H       
  40 H40            2.6860    -2.4907     0.4787 H       
  41 H41            5.6848    -2.7259    -1.6255 H       
  42 H42            5.6525    -3.5342    -3.9500 H       
  43 H43            1.3778    -3.4552    -3.9086 H       
  44 H44            1.4202    -2.6520    -1.5826 H       
  45 H45            1.3633    -4.1214    -5.8206 H       
  46 H46            2.1502    -4.9541    -8.1829 H       
  47 H47            4.8174    -4.9976    -8.1924 H       
  48 H48            6.4553     7.0683    -2.1570 H       
  49 H49            7.6862     8.0009    -1.2720 H       
  50 H50            7.7547     6.2223    -1.2829 H       
  51 H51            4.6676     8.2310     0.8942 H       
  52 H52            5.8834     9.1739    -0.0006 H       
  53 H53            4.6525     8.2413    -0.8856 H       
  54 H54            7.7759     6.2079     1.2155 H       
  55 H55            7.7074     7.9865     1.2263 H       
  56 H56            6.4915     7.0435     2.1212 H       
@<TRIPOS>BOND
   1    1    2 ar
   2    1    6 ar
   3    1   34 1
   4    2    3 ar
   5    2   35 1
   6    3    4 ar
   7    3   36 1
   8    4    5 ar
   9    4    7 1
  10    5    6 ar
  11    5   10 1
  12    6   37 1
  13    7    8 1
  14    7   15 1
  15    8    9 2
  16    8   38 1
  17    9   10 1
  18    9   11 1
  19   10   13 2
  20   11   12 am
  21   11   14 2
  22   12   13 1
  23   12   27 am
  24   15   16 1
  25   15   39 1
  26   15   40 1
  27   16   17 ar
  28   16   21 ar
  29   17   18 ar
  30   17   41 1
  31   18   19 ar
  32   18   42 1
  33   19   20 ar
  34   19   22 1
  35   20   21 ar
  36   20   43 1
  37   21   44 1
  38   22   23 1
  39   22   26 1
  40   23   24 2
  41   23   45 1
  42   24   25 1
  43   24   46 1
  44   25   26 2
  45   25   47 1
  46   27   29 2
  47   27   28 1
  48   28   30 1
  49   30   31 1
  50   30   32 1
  51   30   33 1
  52   31   48 1
  53   31   49 1
  54   31   50 1
  55   32   51 1
  56   32   52 1
  57   32   53 1
  58   33   54 1
  59   33   55 1
  60   33   56 1

#	End of record

