#	Name: ASD07931818
#	Creating user name:	WinNT
#	Creation time:	15. 06. 2019 21:13

#	Modifying user name:	WinNT
#	Modification time:	15. 06. 2019 21:13

#	Program:	/corina/corina34_cracker 3.40 0067  02.08.2006

@<TRIPOS>MOLECULE
ASD07931818
  65   68    0    0    0
SMALL
NO_CHARGES


@<TRIPOS>ATOM
   1 C1            -0.0180     1.4754     0.0102 C.2     
   2 C2             0.0021    -0.0041     0.0020 C.2     
   3 N3             1.1814     2.1509     0.0023 N.am    
   4 N4             1.1194    -0.6400     0.4288 N.am    
   5 C5             2.2493     0.1650     0.9143 C.3     
   6 C6             2.4261     1.3707    -0.0208 C.3     
   7 C7            -1.2008     2.1485     0.0195 C.2     
   8 C8            -1.2247     3.5486     0.0291 C.2     
   9 C9            -0.0458     4.2425     0.0303 C.2     
  10 C10            1.2139     3.4948     0.0143 C.2     
  11 O11           -0.9642    -0.6358    -0.3794 O.2     
  12 O12            2.2807     4.0852     0.0118 O.2     
  13 C13            1.2002    -2.1026     0.4064 C.3     
  14 O14            3.1425    -2.1405    -1.0739 O.3     
  15 C15            1.7676    -2.5615    -0.9383 C.3     
  16 C16            1.8191    -4.1041    -1.0021 C.3     
  17 C17            3.1254    -4.4047    -1.7704 C.3     
  18 C18            3.7087    -3.0082    -2.0801 C.3     
  19 C19            5.2113    -3.0307    -1.9682 C.ar    
  20 C20            5.9813    -3.3691    -3.0655 C.ar    
  21 C21            7.3594    -3.3897    -2.9629 C.ar    
  22 C22            7.9681    -3.0715    -1.7629 C.ar    
  23 C23            7.1984    -2.7323    -0.6662 C.ar    
  24 C24            5.8200    -2.7075    -0.7701 C.ar    
  25 C25            5.3178    -3.7159    -4.3734 C.3     
  26 F26            6.2959    -4.0208    -5.3261 F       
  27 F27            4.4815    -4.8228    -4.1930 F       
  28 F28            4.5600    -2.6261    -4.8153 F       
  29 C29            0.4239     6.4402     1.0348 C.2     
  30 N30            0.2552     7.6848     0.6804 N.2     
  31 C31           -0.3161     7.7283    -0.5326 C.2     
  32 C32           -0.5113     6.4636    -0.9513 C.2     
  33 N33           -0.0431     5.6402     0.0404 N.pl3   
  34 C34           -0.6774     8.9771    -1.2948 C.3     
  35 H35            2.0426     0.5136     1.9261 H       
  36 H36            3.1572    -0.4381     0.9099 H       
  37 H37            2.6247     1.0242    -1.0350 H       
  38 H38            3.2543     1.9881     0.3270 H       
  39 H39           -2.1297     1.5976     0.0190 H       
  40 H40           -2.1668     4.0767     0.0353 H       
  41 H41            1.8522    -2.4428     1.2110 H       
  42 H42            0.2042    -2.5236     0.5432 H       
  43 H43            1.1675    -2.1676    -1.7586 H       
  44 H44            1.8606    -4.5266     0.0019 H       
  45 H45            0.9581    -4.4928    -1.5458 H       
  46 H46            3.8127    -4.9759    -1.1464 H       
  47 H47            2.9102    -4.9421    -2.6940 H       
  48 H48            3.4063    -2.6829    -3.0755 H       
  49 H49            7.9608    -3.6548    -3.8199 H       
  50 H50            9.0450    -3.0883    -1.6825 H       
  51 H51            7.6739    -2.4841     0.2712 H       
  52 H52            5.2187    -2.4388     0.0859 H       
  53 H53            0.8650     6.1025     1.9610 H       
  54 H54           -0.9521     6.1566    -1.8883 H       
  55 H55            0.1651     9.2797    -1.9167 H       
  56 H56           -1.5430     8.7793    -1.9270 H       
  57 H57           -0.9156     9.7756    -0.5921 H       
  58 C58           15.2164    16.7638     8.1078 C.2     
  59 C59           15.2368    15.2570     8.0995 C.3     
  60 O60           16.2545    17.3821     8.1012 O.2     
  61 O61           14.0450    17.4191     8.1169 O.3     
  62 F62           16.5620    14.8087     8.0844 F       
  63 F63           14.5947    14.7756     9.2454 F       
  64 F64           14.5729    14.7879     6.9610 F       
  65 H65           14.0825    18.3854     8.1220 H       
@<TRIPOS>BOND
   1    1    2 1
   2    1    3 1
   3    1    7 2
   4    2    4 am
   5    2   11 2
   6    3    6 1
   7    3   10 am
   8    4    5 1
   9    4   13 1
  10    5    6 1
  11    5   35 1
  12    5   36 1
  13    6   37 1
  14    6   38 1
  15    7    8 1
  16    7   39 1
  17    8    9 2
  18    8   40 1
  19    9   10 1
  20    9   33 1
  21   10   12 2
  22   13   15 1
  23   13   41 1
  24   13   42 1
  25   14   15 1
  26   14   18 1
  27   15   16 1
  28   15   43 1
  29   16   17 1
  30   16   44 1
  31   16   45 1
  32   17   18 1
  33   17   46 1
  34   17   47 1
  35   18   19 1
  36   18   48 1
  37   19   20 ar
  38   19   24 ar
  39   20   21 ar
  40   20   25 1
  41   21   22 ar
  42   21   49 1
  43   22   23 ar
  44   22   50 1
  45   23   24 ar
  46   23   51 1
  47   24   52 1
  48   25   26 1
  49   25   27 1
  50   25   28 1
  51   29   30 2
  52   29   33 1
  53   29   53 1
  54   30   31 1
  55   31   32 2
  56   31   34 1
  57   32   33 1
  58   32   54 1
  59   34   55 1
  60   34   56 1
  61   34   57 1
  62   58   59 1
  63   58   60 2
  64   58   61 1
  65   59   62 1
  66   59   63 1
  67   59   64 1
  68   61   65 1

#	End of record

