#	Name: ASD00069152
#	Creating user name:	WinNT
#	Creation time:	15. 06. 2019 18:29

#	Modifying user name:	WinNT
#	Modification time:	15. 06. 2019 18:29

#	Program:	/corina/corina34_cracker 3.40 0067  02.08.2006

@<TRIPOS>MOLECULE
ASD00069152
  53   56    0    0    0
SMALL
NO_CHARGES


@<TRIPOS>ATOM
   1 C1            -0.0969     1.1981    -0.5382 C.2     
   2 N2             0.0008    -0.0056    -0.0188 N.2     
   3 C3             1.2458    -0.4634    -0.2057 C.2     
   4 C4             1.9563     0.5089    -0.8766 C.2     
   5 N5             1.1095     1.5434    -1.0802 N.pl3   
   6 C6            -1.3100     2.0352    -0.5413 C.2     
   7 O7            -1.2863     3.1383    -1.0533 O.2     
   8 N8            -2.4454     1.5785     0.0231 N.am    
   9 N9             3.0312    -2.2491     0.0437 N.pl3   
  10 N10            3.0979    -3.5297     0.6072 N.2     
  11 C11            1.9267    -3.8228     1.1125 C.2     
  12 C12            1.0661    -2.7464     0.8940 C.2     
  13 C13            1.7659    -1.7789     0.2303 C.2     
  14 C14            1.5674    -5.1081     1.8124 C.3     
  15 F15            2.7111    -5.9030     1.9439 F       
  16 F16            1.0513    -4.8201     3.0805 F       
  17 F17            0.6062    -5.7944     1.0626 F       
  18 C18           -3.5626     2.4167     0.1261 C.ar    
  19 C19           -4.8473     1.8852     0.0207 C.ar    
  20 C20           -5.9506     2.7218     0.1242 C.ar    
  21 C21           -5.7721     4.0788     0.3313 C.ar    
  22 C22           -4.4974     4.6043     0.4352 C.ar    
  23 C23           -3.3940     3.7771     0.3390 C.ar    
  24 F24           -7.1975     2.2119     0.0223 F       
  25 N25           -5.0243     0.5116    -0.1894 N.3     
  26 C26           -5.7939    -0.0933     0.9052 C.3     
  27 C27           -5.8430    -1.6113     0.7179 C.3     
  28 C28           -6.4960    -1.9337    -0.6290 C.3     
  29 C29           -5.7032    -1.2522    -1.7478 C.3     
  30 C30           -5.6582     0.2555    -1.4890 C.3     
  31 C31           -6.4929    -3.4478    -0.8494 C.3     
  32 N32           -7.2248    -3.7645    -2.0831 N.3     
  33 H33            2.9911     0.4549    -1.1810 H       
  34 H34            1.3195     2.3774    -1.5289 H       
  35 H35           -2.4888     0.6692     0.3581 H       
  36 H36            3.7568    -1.7795    -0.3968 H       
  37 H37            0.0308    -2.6885     1.1960 H       
  38 H38           -6.6308     4.7289     0.4117 H       
  39 H39           -4.3634     5.6638     0.5961 H       
  40 H40           -2.4002     4.1908     0.4251 H       
  41 H41           -5.3166     0.1400     1.8569 H       
  42 H42           -6.8081     0.3062     0.9001 H       
  43 H43           -4.8300    -2.0132     0.7367 H       
  44 H44           -6.4275    -2.0585     1.5220 H       
  45 H45           -7.5221    -1.5661    -0.6337 H       
  46 H46           -4.6880    -1.6485    -1.7678 H       
  47 H47           -6.1878    -1.4428    -2.7054 H       
  48 H48           -6.6730     0.6533    -1.4829 H       
  49 H49           -5.0823     0.7420    -2.2762 H       
  50 H50           -5.4651    -3.8003    -0.9360 H       
  51 H51           -6.9755    -3.9389    -0.0044 H       
  52 H52           -6.8357    -3.2695    -2.8716 H       
  53 H53           -7.2370    -4.7594    -2.2510 H       
@<TRIPOS>BOND
   1    1    2 2
   2    1    5 1
   3    1    6 1
   4    2    3 1
   5    3    4 2
   6    3   13 1
   7    4    5 1
   8    4   33 1
   9    5   34 1
  10    6    7 2
  11    6    8 am
  12    8   18 1
  13    8   35 1
  14    9   10 1
  15    9   13 1
  16    9   36 1
  17   10   11 2
  18   11   12 1
  19   11   14 1
  20   12   13 2
  21   12   37 1
  22   14   15 1
  23   14   16 1
  24   14   17 1
  25   18   19 ar
  26   18   23 ar
  27   19   20 ar
  28   19   25 1
  29   20   21 ar
  30   20   24 1
  31   21   22 ar
  32   21   38 1
  33   22   23 ar
  34   22   39 1
  35   23   40 1
  36   25   26 1
  37   25   30 1
  38   26   27 1
  39   26   41 1
  40   26   42 1
  41   27   28 1
  42   27   43 1
  43   27   44 1
  44   28   29 1
  45   28   31 1
  46   28   45 1
  47   29   30 1
  48   29   46 1
  49   29   47 1
  50   30   48 1
  51   30   49 1
  52   31   32 1
  53   31   50 1
  54   31   51 1
  55   32   52 1
  56   32   53 1

#	End of record

