#	Name: ASD03540509
#	Creating user name:	WinNT
#	Creation time:	15. 06. 2019 20:43

#	Modifying user name:	WinNT
#	Modification time:	15. 06. 2019 20:43

#	Program:	/corina/corina34_cracker 3.40 0067  02.08.2006

@<TRIPOS>MOLECULE
ASD03540509
  58   61    0    0    0
SMALL
NO_CHARGES


@<TRIPOS>ATOM
   1 C1            -0.0184     1.5028     0.0103 C.2     
   2 C2             0.0021    -0.0041     0.0020 C.3     
   3 O3             1.0197     2.1211     0.0037 O.2     
   4 O4            -1.1898     2.1580     0.0194 O.3     
   5 O5             1.3556    -0.4620    -0.0134 O.3     
   6 C6             1.5519    -1.8067    -0.0225 C.ar    
   7 C7             2.8404    -2.3207    -0.0375 C.ar    
   8 C8             3.0373    -3.6880    -0.0468 C.ar    
   9 C9             1.9515    -4.5441    -0.0411 C.ar    
  10 C10            0.6664    -4.0343    -0.0265 C.ar    
  11 C11            0.4642    -2.6678    -0.0110 C.ar    
  12 C12            2.1692    -6.0352    -0.0512 C.3     
  13 N13            2.2529    -6.5259     1.3266 N.am    
  14 C14            2.4467    -7.8384     1.5640 C.2     
  15 O15            2.5520    -8.6151     0.6346 O.2     
  16 N16            2.7689    -9.7075     6.8717 N.am    
  17 C17            2.9625   -11.0158     7.1096 C.2     
  18 N18            3.0857   -11.9242     6.1293 N.am    
  19 C19            3.0203   -11.5641     4.8289 C.2     
  20 C20            2.8091   -10.1402     4.5093 C.ar    
  21 C21            2.7315    -9.6909     3.1972 C.ar    
  22 C22            2.5311    -8.3329     2.9526 C.ar    
  23 C23            2.4101    -7.4374     4.0224 C.ar    
  24 C24            2.4869    -7.8797     5.3128 C.ar    
  25 C25            2.6863    -9.2290     5.5758 C.ar    
  26 O26            3.1331   -12.3920     3.9456 O.2     
  27 O27            3.0293   -11.3931     8.2633 O.2     
  28 C28            2.6379    -8.7783     7.9967 C.3     
  29 C29            3.2953   -13.3321     6.4758 C.3     
  30 C30            1.9615   -14.0207     6.6087 C.ar    
  31 C31            1.3793   -14.6184     5.5065 C.ar    
  32 C32            0.1558   -15.2500     5.6284 C.ar    
  33 C33           -0.4854   -15.2844     6.8526 C.ar    
  34 C34            0.0971   -14.6874     7.9550 C.ar    
  35 C35            1.3227   -14.0596     7.8340 C.ar    
  36 H36           -0.4983    -0.3791     0.8948 H       
  37 H37           -0.5153    -0.3696    -0.8850 H       
  38 H38           -1.1523     3.1243     0.0245 H       
  39 H39            3.6889    -1.6525    -0.0424 H       
  40 H40            4.0402    -4.0887    -0.0589 H       
  41 H41           -0.1801    -4.7050    -0.0228 H       
  42 H42           -0.5398    -2.2701     0.0053 H       
  43 H43            1.3362    -6.5206    -0.5598 H       
  44 H44            3.0974    -6.2634    -0.5752 H       
  45 H45            2.1689    -5.9062     2.0681 H       
  46 H46            2.8258   -10.3855     2.3756 H       
  47 H47            2.2549    -6.3869     3.8255 H       
  48 H48            2.3928    -7.1793     6.1295 H       
  49 H49            2.7234    -9.3282     8.9340 H       
  50 H50            3.4269    -8.0282     7.9423 H       
  51 H51            1.6659    -8.2872     7.9510 H       
  52 H52            3.8777   -13.8163     5.6920 H       
  53 H53            3.8337   -13.3973     7.4213 H       
  54 H54            1.8803   -14.5916     4.5501 H       
  55 H55           -0.2994   -15.7164     4.7672 H       
  56 H56           -1.4417   -15.7772     6.9477 H       
  57 H57           -0.4040   -14.7140     8.9113 H       
  58 H58            1.7796   -13.5964     8.6961 H       
@<TRIPOS>BOND
   1    1    2 1
   2    1    3 2
   3    1    4 1
   4    2    5 1
   5    2   36 1
   6    2   37 1
   7    4   38 1
   8    5    6 1
   9    6    7 ar
  10    6   11 ar
  11    7    8 ar
  12    7   39 1
  13    8    9 ar
  14    8   40 1
  15    9   10 ar
  16    9   12 1
  17   10   11 ar
  18   10   41 1
  19   11   42 1
  20   12   13 1
  21   12   43 1
  22   12   44 1
  23   13   14 am
  24   13   45 1
  25   14   15 2
  26   14   22 1
  27   16   17 am
  28   16   25 1
  29   16   28 1
  30   17   18 am
  31   17   27 2
  32   18   19 am
  33   18   29 1
  34   19   20 1
  35   19   26 2
  36   20   21 ar
  37   20   25 ar
  38   21   22 ar
  39   21   46 1
  40   22   23 ar
  41   23   24 ar
  42   23   47 1
  43   24   25 ar
  44   24   48 1
  45   28   49 1
  46   28   50 1
  47   28   51 1
  48   29   30 1
  49   29   52 1
  50   29   53 1
  51   30   31 ar
  52   30   35 ar
  53   31   32 ar
  54   31   54 1
  55   32   33 ar
  56   32   55 1
  57   33   34 ar
  58   33   56 1
  59   34   35 ar
  60   34   57 1
  61   35   58 1

#	End of record

