#	Name: ASD05842019
#	Creating user name:	WinNT
#	Creation time:	15. 06. 2019 21:03

#	Modifying user name:	WinNT
#	Modification time:	15. 06. 2019 21:03

#	Program:	/corina/corina34_cracker 3.40 0067  02.08.2006

@<TRIPOS>MOLECULE
ASD05842019
  49   51    0    0    0
SMALL
NO_CHARGES


@<TRIPOS>ATOM
   1 C1            -0.0167     1.3781     0.0096 C.ar    
   2 C2             0.0021    -0.0041     0.0020 C.ar    
   3 C3            -1.1855    -0.7115     0.0095 C.ar    
   4 C4            -2.3919    -0.0367     0.0251 C.ar    
   5 C5            -2.4106     1.3455     0.0336 C.ar    
   6 C6            -1.2230     2.0529     0.0305 C.ar    
   7 C7             1.2780     2.1493     0.0014 C.3     
   8 N8             1.6855     2.4073    -1.3862 N.3     
   9 C9             2.9467     3.1590    -1.4334 C.3     
  10 C10            3.3378     3.4080    -2.8914 C.3     
  11 C11            4.6316     4.1792    -2.9399 C.ar    
  12 C12            5.8376     3.5043    -2.9735 C.ar    
  13 C13            7.0244     4.2117    -3.0178 C.ar    
  14 C14            7.0053     5.5938    -3.0291 C.ar    
  15 C15            5.7993     6.2687    -2.9964 C.ar    
  16 C16            4.6123     5.5613    -2.9564 C.ar    
  17 C17           -3.6866    -0.8078     0.0322 C.3     
  18 C18           -4.1049    -1.0739     1.4553 C.ar    
  19 C19           -4.9093    -0.1675     2.1203 C.ar    
  20 C20           -5.2930    -0.4116     3.4257 C.ar    
  21 C21           -4.8726    -1.5623     4.0660 C.ar    
  22 C22           -4.0690    -2.4692     3.4008 C.ar    
  23 C23           -3.6889    -2.2272     2.0939 C.ar    
  24 C24           -5.2901    -1.8279     5.4895 C.3     
  25 F25           -6.4925    -2.5430     5.4971 F       
  26 F26           -4.2989    -2.5754     6.1344 F       
  27 F27           -5.4664    -0.6119     6.1584 F       
  28 H28            0.9446    -0.5313    -0.0101 H       
  29 H29           -1.1709    -1.7913     0.0029 H       
  30 H30           -3.3531     1.8728     0.0454 H       
  31 H31           -1.2376     3.1328     0.0372 H       
  32 H32            1.1397     3.0971     0.5217 H       
  33 H33            2.0505     1.5679     0.5048 H       
  34 H34            1.7578     1.5467    -1.9078 H       
  35 H35            2.8200     4.1138    -0.9231 H       
  36 H36            3.7307     2.5846    -0.9400 H       
  37 H37            3.4645     2.4533    -3.4018 H       
  38 H38            2.5538     3.9825    -3.3849 H       
  39 H39            5.8526     2.4245    -2.9647 H       
  40 H40            7.9667     3.6844    -3.0433 H       
  41 H41            7.9326     6.1465    -3.0630 H       
  42 H42            5.7843     7.3485    -3.0048 H       
  43 H43            3.6701     6.0885    -2.9309 H       
  44 H44           -4.4589    -0.2259    -0.4707 H       
  45 H45           -3.5482    -1.7551    -0.4890 H       
  46 H46           -5.2377     0.7316     1.6201 H       
  47 H47           -5.9209     0.2970     3.9455 H       
  48 H48           -3.7403    -3.3681     3.9011 H       
  49 H49           -3.0640    -2.9375     1.5729 H       
@<TRIPOS>BOND
   1    1    2 ar
   2    1    7 1
   3    1    6 ar
   4    2    3 ar
   5    2   28 1
   6    3    4 ar
   7    3   29 1
   8    4    5 ar
   9    4   17 1
  10    5    6 ar
  11    5   30 1
  12    6   31 1
  13    7    8 1
  14    7   32 1
  15    7   33 1
  16    8    9 1
  17    8   34 1
  18    9   10 1
  19    9   35 1
  20    9   36 1
  21   10   11 1
  22   10   37 1
  23   10   38 1
  24   11   12 ar
  25   11   16 ar
  26   12   13 ar
  27   12   39 1
  28   13   14 ar
  29   13   40 1
  30   14   15 ar
  31   14   41 1
  32   15   16 ar
  33   15   42 1
  34   16   43 1
  35   17   18 1
  36   17   44 1
  37   17   45 1
  38   18   19 ar
  39   18   23 ar
  40   19   20 ar
  41   19   46 1
  42   20   21 ar
  43   20   47 1
  44   21   22 ar
  45   21   24 1
  46   22   23 ar
  47   22   48 1
  48   23   49 1
  49   24   25 1
  50   24   26 1
  51   24   27 1

#	End of record

