#	Name: ASD01908374
#	Creating user name:	WinNT
#	Creation time:	15. 06. 2019 19:55

#	Modifying user name:	WinNT
#	Modification time:	15. 06. 2019 19:55

#	Program:	/corina/corina34_cracker 3.40 0067  02.08.2006

@<TRIPOS>MOLECULE
ASD01908374
  45   48    0    0    0
SMALL
NO_CHARGES


@<TRIPOS>ATOM
   1 C1            -0.0188     1.3450    -0.0704 C.ar    
   2 C2             0.0059    -0.0140     0.1796 C.ar    
   3 C3             1.2152    -0.6694     0.2868 C.ar    
   4 C4             2.4100     0.0264     0.1453 C.ar    
   5 C5             2.3854     1.3798    -0.1037 C.ar    
   6 C6             1.1659     2.0378    -0.2113 C.ar    
   7 S7             4.0686    -0.5670     0.2354 S.o2    
   8 N8             5.0540     0.7443    -0.0175 N.am    
   9 S9             4.0215     2.0243    -0.2413 S.o2    
  10 C10            6.4526     0.7662    -0.0370 C.ar    
  11 C11            7.1255     1.9596    -0.2647 C.ar    
  12 C12            7.1686    -0.4046     0.1771 C.ar    
  13 C13            8.5489    -0.3827     0.1583 C.ar    
  14 C14            9.2213     0.8096    -0.0746 C.ar    
  15 C15            8.5058     1.9811    -0.2834 C.ar    
  16 N16           10.6226     0.8316    -0.0932 N.am    
  17 C17           11.3065    -0.2169    -0.5926 C.2     
  18 O18           10.7139    -1.2138    -0.9478 O.2     
  19 C19           12.8075    -0.1506    -0.7097 C.3     
  20 O20            4.1795     2.4388    -1.5913 O.2     
  21 O21            4.2079     2.8918     0.8685 O.2     
  22 O22            4.2782    -0.9757     1.5801 O.2     
  23 O23            4.2498    -1.4288    -0.8798 O.2     
  24 C24           13.3482    -1.4627    -1.3044 C.3     
  25 C25           14.0627    -1.0890    -2.6195 C.3     
  26 C26           14.4391     0.4023    -2.4369 C.3     
  27 C27           13.2123     0.9747    -1.6843 C.3     
  28 H28           -0.9626     1.8623    -0.1597 H       
  29 H29           -0.9185    -0.5612     0.2911 H       
  30 H30            1.2335    -1.7313     0.4825 H       
  31 H31            1.1455     3.0997    -0.4070 H       
  32 H32            6.5690     2.8708    -0.4275 H       
  33 H33            6.6456    -1.3319     0.3586 H       
  34 H34            9.1056    -1.2930     0.3251 H       
  35 H35            9.0291     2.9083    -0.4646 H       
  36 H36           11.1002     1.6015     0.2534 H       
  37 H37           13.2507     0.0258     0.2703 H       
  38 H38           14.0546    -1.9227    -0.6133 H       
  39 H39           12.5250    -2.1475    -1.5083 H       
  40 H40           14.9589    -1.6951    -2.7523 H       
  41 H41           13.3892    -1.2114    -3.4677 H       
  42 H42           15.3424     0.5018    -1.8350 H       
  43 H43           14.5618     0.8909    -3.4034 H       
  44 H44           12.4014     1.1856    -2.3814 H       
  45 H45           13.4878     1.8746    -1.1345 H       
@<TRIPOS>BOND
   1    1    2 ar
   2    1    6 ar
   3    1   28 1
   4    2    3 ar
   5    2   29 1
   6    3    4 ar
   7    3   30 1
   8    4    5 ar
   9    4    7 1
  10    5    6 ar
  11    5    9 1
  12    6   31 1
  13    7    8 am
  14    7   22 2
  15    7   23 2
  16    8    9 am
  17    8   10 1
  18    9   20 2
  19    9   21 2
  20   10   11 ar
  21   10   12 ar
  22   11   15 ar
  23   11   32 1
  24   12   13 ar
  25   12   33 1
  26   13   14 ar
  27   13   34 1
  28   14   15 ar
  29   14   16 1
  30   15   35 1
  31   16   17 am
  32   16   36 1
  33   17   18 2
  34   17   19 1
  35   19   24 1
  36   19   27 1
  37   19   37 1
  38   24   25 1
  39   24   38 1
  40   24   39 1
  41   25   26 1
  42   25   40 1
  43   25   41 1
  44   26   27 1
  45   26   42 1
  46   26   43 1
  47   27   44 1
  48   27   45 1

#	End of record

