#	Name: ASD01901447
#	Creating user name:	WinNT
#	Creation time:	15. 06. 2019 19:53

#	Modifying user name:	WinNT
#	Modification time:	15. 06. 2019 19:53

#	Program:	/corina/corina34_cracker 3.40 0067  02.08.2006

@<TRIPOS>MOLECULE
ASD01901447
  44   47    0    0    0
SMALL
NO_CHARGES


@<TRIPOS>ATOM
   1 C1            -0.0168     1.3893     0.0097 C.ar    
   2 C2             1.1703     2.0930     0.0021 C.ar    
   3 C3             2.3775     1.4176    -0.0130 C.ar    
   4 C4             2.4021     0.0348    -0.0211 C.ar    
   5 C5             1.2206    -0.6790    -0.0137 C.ar    
   6 C6             0.0021    -0.0041     0.0020 C.ar    
   7 C7            -1.2714    -0.7662     0.0101 C.2     
   8 N8            -3.1794    -1.5363    -1.1478 N.2     
   9 C9            -2.0557    -0.8622    -1.1600 C.2     
  10 C10           -1.6987    -1.3899     1.1489 C.2     
  11 N11           -2.8729    -2.0820     1.1218 N.pl3   
  12 C12           -3.6089    -2.1474    -0.0334 C.2     
  13 C13           -3.5506    -2.7948     2.0740 C.2     
  14 C14           -4.6694    -3.2734     1.4896 C.2     
  15 N15           -4.6904    -2.8722     0.2151 N.2     
  16 C16           -5.7200    -4.1187     2.1625 C.3     
  17 O17           -5.3519    -4.3404     3.5254 O.3     
  18 C18           -6.1972    -5.0889     4.2777 C.ar    
  19 N19           -7.2994    -5.5775     3.7343 N.ar    
  20 C20           -5.8938    -5.3394     5.6101 C.ar    
  21 C21           -6.7643    -6.1041     6.3665 C.ar    
  22 C22           -7.9133    -6.5938     5.7604 C.ar    
  23 C23           -8.1484    -6.3100     4.4300 C.ar    
  24 C24            3.6706     2.1915    -0.0212 C.3     
  25 C25           -1.3311     2.1263     0.0325 C.3     
  26 O26           -1.0876     3.5344     0.0364 O.3     
  27 F27            4.0834     2.4239     1.2952 F       
  28 F28            4.6510     1.4544    -0.6941 F       
  29 F29            3.4779     3.4146    -0.6723 F       
  30 H30            1.1568     3.1729     0.0077 H       
  31 H31            3.3474    -0.4874    -0.0337 H       
  32 H32            1.2409    -1.7588    -0.0204 H       
  33 H33           -1.7285    -0.3780    -2.0682 H       
  34 H34           -1.1149    -1.3355     2.0559 H       
  35 H35           -3.2474    -2.9457     3.0995 H       
  36 H36           -6.6798    -3.6036     2.1246 H       
  37 H37           -5.8007    -5.0760     1.6476 H       
  38 H38           -4.9904    -4.9428     6.0495 H       
  39 H39           -6.5544    -6.3156     7.4046 H       
  40 H40           -8.6133    -7.1943     6.3224 H       
  41 H41           -9.0387    -6.6920     3.9526 H       
  42 H42           -1.9121     1.8605    -0.8507 H       
  43 H43           -1.8865     1.8511     0.9291 H       
  44 H44           -1.8910     4.0724     0.0508 H       
@<TRIPOS>BOND
   1    1    6 ar
   2    1    2 ar
   3    1   25 1
   4    2    3 ar
   5    2   30 1
   6    3    4 ar
   7    3   24 1
   8    4    5 ar
   9    4   31 1
  10    5    6 ar
  11    5   32 1
  12    6    7 1
  13    7   10 2
  14    7    9 1
  15    8    9 2
  16    8   12 1
  17    9   33 1
  18   10   11 1
  19   10   34 1
  20   11   13 1
  21   11   12 1
  22   12   15 2
  23   13   14 2
  24   13   35 1
  25   14   15 1
  26   14   16 1
  27   16   17 1
  28   16   36 1
  29   16   37 1
  30   17   18 1
  31   18   20 ar
  32   18   19 ar
  33   19   23 ar
  34   20   21 ar
  35   20   38 1
  36   21   22 ar
  37   21   39 1
  38   22   23 ar
  39   22   40 1
  40   23   41 1
  41   24   27 1
  42   24   28 1
  43   24   29 1
  44   25   26 1
  45   25   42 1
  46   25   43 1
  47   26   44 1

#	End of record

