#	Name: ASD01813844
#	Creating user name:	WinNT
#	Creation time:	15. 06. 2019 19:31

#	Modifying user name:	WinNT
#	Modification time:	15. 06. 2019 19:31

#	Program:	/corina/corina34_cracker 3.40 0067  02.08.2006

@<TRIPOS>MOLECULE
ASD01813844
  56   59    0    0    0
SMALL
NO_CHARGES


@<TRIPOS>ATOM
   1 C1            -0.6273     0.3992     0.3221 C.2     
   2 C2            -0.4418    -0.9889     0.2677 C.2     
   3 C3             0.8236    -1.4955     0.2120 C.2     
   4 C4             1.9198    -0.6169     0.2102 C.2     
   5 N5             1.7095     0.7343     0.2644 N.am    
   6 C6             0.4402     1.2291     0.3194 C.2     
   7 C7             3.2212    -1.1350     0.1531 C.2     
   8 C8             4.2930    -0.2903     0.1512 C.2     
   9 C9             4.0730     1.0986     0.2065 C.2     
  10 C10            2.7524     1.5888     0.2636 C.2     
  11 O11            2.5524     2.7908     0.3113 O.2     
  12 C12            5.2060     2.0265     0.2062 C.2     
  13 O13            4.9884     3.3568     0.2594 O.3     
  14 O14            6.3434     1.5978     0.1580 O.2     
  15 C15            3.4367    -2.6254     0.0944 C.3     
  16 N16            3.5850    -3.0439    -1.3059 N.3     
  17 C17            4.0302    -4.4416    -1.3936 C.3     
  18 C18            4.0957    -4.8622    -2.8637 C.3     
  19 N19            5.0171    -3.9728    -3.5844 N.3     
  20 C20            4.5719    -2.5750    -3.4968 C.3     
  21 C21            4.5065    -2.1545    -2.0267 C.3     
  22 C22            5.1585    -4.3716    -4.9190 C.ar    
  23 C23            5.9897    -3.6583    -5.7725 C.ar    
  24 C24            6.1286    -4.0514    -7.0889 C.ar    
  25 C25            5.4376    -5.1602    -7.5591 C.ar    
  26 C26            4.6067    -5.8738    -6.7055 C.ar    
  27 C27            4.4718    -5.4838    -5.3876 C.ar    
  28 N28            5.5781    -5.5585    -8.8939 N.am    
  29 S29            4.3633    -5.2607    -9.9791 S.o2    
  30 O30            4.8569    -5.7763   -11.2079 O.2     
  31 O31            3.2043    -5.8097    -9.3671 O.2     
  32 C32            4.2507    -3.4515   -10.0473 C.3     
  33 H33           -1.6263     0.8075     0.3618 H       
  34 H34           -1.2940    -1.6523     0.2702 H       
  35 H35            0.9814    -2.5631     0.1701 H       
  36 H36            0.2855     2.2971     0.3619 H       
  37 H37            5.2982    -0.6830     0.1082 H       
  38 H38            5.7675     3.9295     0.2569 H       
  39 H39            4.3390    -2.8842     0.6484 H       
  40 H40            2.5802    -3.1341     0.5368 H       
  41 H41            5.0184    -4.5374    -0.9436 H       
  42 H42            3.3252    -5.0818    -0.8632 H       
  43 H43            4.4535    -5.8895    -2.9325 H       
  44 H44            3.1021    -4.7924    -3.3065 H       
  45 H45            5.2769    -1.9349    -4.0271 H       
  46 H46            3.5837    -2.4793    -3.9467 H       
  47 H47            4.1487    -1.1272    -1.9579 H       
  48 H48            5.5000    -2.2242    -1.5839 H       
  49 H49            6.5271    -2.7959    -5.4068 H       
  50 H50            6.7746    -3.4962    -7.7530 H       
  51 H51            4.0692    -6.7363    -7.0711 H       
  52 H52            3.8256    -6.0388    -4.7237 H       
  53 H53            6.3871    -6.0089    -9.1830 H       
  54 H54            5.2277    -3.0357   -10.2933 H       
  55 H55            3.5293    -3.1609   -10.8111 H       
  56 H56            3.9273    -3.0708    -9.0785 H       
@<TRIPOS>BOND
   1    1    2 1
   2    1    6 2
   3    1   33 1
   4    2    3 2
   5    2   34 1
   6    3    4 1
   7    3   35 1
   8    4    5 1
   9    4    7 2
  10    5    6 1
  11    5   10 am
  12    6   36 1
  13    7    8 1
  14    7   15 1
  15    8    9 2
  16    8   37 1
  17    9   10 1
  18    9   12 1
  19   10   11 2
  20   12   13 1
  21   12   14 2
  22   13   38 1
  23   15   16 1
  24   15   39 1
  25   15   40 1
  26   16   17 1
  27   16   21 1
  28   17   18 1
  29   17   41 1
  30   17   42 1
  31   18   19 1
  32   18   43 1
  33   18   44 1
  34   19   20 1
  35   19   22 1
  36   20   21 1
  37   20   45 1
  38   20   46 1
  39   21   47 1
  40   21   48 1
  41   22   23 ar
  42   22   27 ar
  43   23   24 ar
  44   23   49 1
  45   24   25 ar
  46   24   50 1
  47   25   26 ar
  48   25   28 1
  49   26   27 ar
  50   26   51 1
  51   27   52 1
  52   28   29 am
  53   28   53 1
  54   29   30 2
  55   29   31 2
  56   29   32 1
  57   32   54 1
  58   32   55 1
  59   32   56 1

#	End of record

