#	Name: ASD01150713
#	Creating user name:	WinNT
#	Creation time:	15. 06. 2019 19:04

#	Modifying user name:	WinNT
#	Modification time:	15. 06. 2019 19:04

#	Program:	/corina/corina34_cracker 3.40 0067  02.08.2006

@<TRIPOS>MOLECULE
ASD01150713
  26   27    0    0    0
SMALL
NO_CHARGES


@<TRIPOS>ATOM
   1 C1            -0.0420     1.1922     0.0129 C.2     
   2 O2             0.6613     1.2331    -0.9785 O.2     
   3 C3             0.3955     0.4265     1.1975 C.ar    
   4 C4             1.5598    -0.3442     1.1436 C.ar    
   5 C5             1.9632    -1.0568     2.2520 C.ar    
   6 C6             1.2158    -1.0103     3.4193 C.ar    
   7 C7             0.0592    -0.2474     3.4784 C.ar    
   8 C8            -0.3501     0.4745     2.3782 C.ar    
   9 F9             1.6158    -1.7112     4.5028 F       
  10 C10           -1.3276     1.9116     0.0343 C.ar    
  11 C11           -2.5353     1.2050    -0.0924 C.ar    
  12 C12           -3.7407     1.8949    -0.0702 C.ar    
  13 C13           -3.7498     3.2671     0.0756 C.ar    
  14 C14           -2.5597     3.9681     0.2010 C.ar    
  15 C15           -1.3538     3.3010     0.1867 C.ar    
  16 Br16          -2.5922     5.8484     0.3994 Br      
  17 N17           -2.5240    -0.1758    -0.2396 N.pl3   
  18 H18            2.1422    -0.3817     0.2348 H       
  19 H19            2.8629    -1.6528     2.2115 H       
  20 H20           -0.5192    -0.2151     4.3899 H       
  21 H21           -1.2484     1.0721     2.4268 H       
  22 H22           -4.6720     1.3567    -0.1676 H       
  23 H23           -4.6898     3.7986     0.0919 H       
  24 H24           -0.4302     3.8513     0.2892 H       
  25 H25           -1.6809    -0.6470    -0.3299 H       
  26 H26           -3.3591    -0.6691    -0.2520 H       
@<TRIPOS>BOND
   1    1    2 2
   2    1    3 1
   3    1   10 1
   4    3    4 ar
   5    3    8 ar
   6    4    5 ar
   7    4   18 1
   8    5    6 ar
   9    5   19 1
  10    6    7 ar
  11    6    9 1
  12    7    8 ar
  13    7   20 1
  14    8   21 1
  15   10   11 ar
  16   10   15 ar
  17   11   12 ar
  18   11   17 1
  19   12   13 ar
  20   12   22 1
  21   13   14 ar
  22   13   23 1
  23   14   15 ar
  24   14   16 1
  25   15   24 1
  26   17   25 1
  27   17   26 1

#	End of record

