#	Name: ASD01885841
#	Creating user name:	WinNT
#	Creation time:	15. 06. 2019 19:50

#	Modifying user name:	WinNT
#	Modification time:	15. 06. 2019 19:50

#	Program:	/corina/corina34_cracker 3.40 0067  02.08.2006

@<TRIPOS>MOLECULE
ASD01885841
  43   46    0    0    0
SMALL
NO_CHARGES


@<TRIPOS>ATOM
   1 C1            -0.0170     1.4037     0.0098 C.ar    
   2 C2             1.2138     2.1080     0.0018 C.ar    
   3 C3             1.1960     3.5258     0.0097 C.ar    
   4 C4            -0.0388     4.1599     0.0249 C.ar    
   5 C5            -1.2084     3.3914     0.0319 C.ar    
   6 N6            -1.1704     2.0724     0.0299 N.ar    
   7 C7             1.1925    -0.6629    -0.0129 C.ar    
   8 C8             2.3992     0.0335    -0.0199 C.ar    
   9 C9             2.4200     1.3962    -0.0132 C.ar    
  10 C10            2.4548     4.3054     0.0023 C.ar    
  11 C11           -2.5234     4.0765     0.0481 C.2     
  12 N12           -3.6603     3.3528     0.0551 N.am    
  13 O13           -2.5759     5.2904     0.0552 O.2     
  14 C14            1.2059    -2.1698    -0.0201 C.3     
  15 C15            2.6328     5.3385    -0.9183 C.ar    
  16 C16            3.8071     6.0617    -0.9211 C.ar    
  17 C17            4.8094     5.7637    -0.0114 C.ar    
  18 C18            4.6373     4.7384     0.9052 C.ar    
  19 C19            3.4644     4.0131     0.9198 C.ar    
  20 F20            5.9604     6.4710    -0.0222 F       
  21 C21            1.2225    -2.6788     1.3983 C.ar    
  22 C22            0.0348    -2.9266     2.0689 C.ar    
  23 C23            0.0983    -3.3947     3.3727 C.ar    
  24 C24            1.3346    -3.5971     3.9560 C.ar    
  25 N25            2.4444    -3.3502     3.2876 N.ar    
  26 C26            2.4220    -2.9099     2.0450 C.ar    
  27 C27            0.0021    -0.0041     0.0020 C.ar    
  28 H28           -0.0965     5.2383     0.0316 H       
  29 H29            3.3303    -0.5137    -0.0303 H       
  30 H30            3.3619     1.9246    -0.0197 H       
  31 H31           -3.6184     2.3837     0.0494 H       
  32 H32           -4.5205     3.8009     0.0657 H       
  33 H33            0.3149    -2.5387    -0.5281 H       
  34 H34            2.0947    -2.5227    -0.5431 H       
  35 H35            1.8525     5.5712    -1.6278 H       
  36 H36            3.9461     6.8613    -1.6336 H       
  37 H37            5.4212     4.5100     1.6120 H       
  38 H38            3.3294     3.2173     1.6373 H       
  39 H39           -0.9173    -2.7587     1.5876 H       
  40 H40           -0.8070    -3.5981     3.9254 H       
  41 H41            1.3926    -3.9615     4.9710 H       
  42 H42            3.3517    -2.7233     1.5280 H       
  43 H43           -0.9245    -0.5588     0.0083 H       
@<TRIPOS>BOND
   1    1   27 ar
   2    1    2 ar
   3    1    6 ar
   4    2    3 ar
   5    2    9 ar
   6    3    4 ar
   7    3   10 1
   8    4    5 ar
   9    4   28 1
  10    5    6 ar
  11    5   11 1
  12    7   14 1
  13    7    8 ar
  14    7   27 ar
  15    8    9 ar
  16    8   29 1
  17    9   30 1
  18   10   15 ar
  19   10   19 ar
  20   11   12 am
  21   11   13 2
  22   12   31 1
  23   12   32 1
  24   14   21 1
  25   14   33 1
  26   14   34 1
  27   15   16 ar
  28   15   35 1
  29   16   17 ar
  30   16   36 1
  31   17   18 ar
  32   17   20 1
  33   18   19 ar
  34   18   37 1
  35   19   38 1
  36   21   22 ar
  37   21   26 ar
  38   22   23 ar
  39   22   39 1
  40   23   24 ar
  41   23   40 1
  42   24   25 ar
  43   24   41 1
  44   25   26 ar
  45   26   42 1
  46   27   43 1

#	End of record

