#	Name: ASD03092469
#	Creating user name:	WinNT
#	Creation time:	15. 06. 2019 20:32

#	Modifying user name:	WinNT
#	Modification time:	15. 06. 2019 20:32

#	Program:	/corina/corina34_cracker 3.40 0067  02.08.2006

@<TRIPOS>MOLECULE
ASD03092469
  59   61    0    0    0
SMALL
NO_CHARGES


@<TRIPOS>ATOM
   1 C1             0.3377     2.0153     0.1445 C.2     
   2 C2             0.5540     0.5261     0.2242 C.3     
   3 O3             1.2900     2.7644     0.0902 O.2     
   4 N4            -0.9141     2.5145     0.1278 N.am    
   5 O5             1.9556     0.2475     0.2210 O.3     
   6 C6             2.2718    -1.1442     0.2940 C.3     
   7 C7             3.7912    -1.3233     0.2837 C.3     
   8 F8             4.3463    -0.6606     1.3837 F       
   9 F9             4.1007    -2.6857     0.3552 F       
  10 F10            4.3159    -0.7872    -0.8972 F       
  11 C11           -1.1244     3.9623     0.0503 C.3     
  12 S12           -4.9835     4.7562    -0.6387 S.3     
  13 C13           -4.5799     4.6083     1.0157 C.2     
  14 N14           -3.3134     4.3515     1.1494 N.2     
  15 C15           -2.6025     4.2557     0.0469 C.2     
  16 C16           -3.3091     4.4424    -1.0876 C.2     
  17 C17           -2.5485     5.3138    -4.6606 C.ar    
  18 C18           -3.0708     5.4006    -3.3883 C.ar    
  19 C19           -2.7735     4.3920    -2.4620 C.ar    
  20 C20           -1.9532     3.3345    -2.8772 C.ar    
  21 C21           -1.4749     3.3281    -4.1696 C.ar    
  22 N22           -1.7794     4.2994    -5.0103 N.ar    
  23 C23           -0.5917     2.1969    -4.6294 C.3     
  24 C24           -2.8652     6.3883    -5.6688 C.3     
  25 N25           -5.4737     4.7431     2.0624 N.3     
  26 C26           -6.8270     5.0318     1.5657 C.3     
  27 C27           -7.7695     5.2321     2.7555 C.3     
  28 O28           -7.7344     4.0684     3.5861 O.3     
  29 C29           -6.4316     3.7583     4.0879 C.3     
  30 C30           -5.4755     3.5431     2.9116 C.3     
  31 C31           -6.4991     2.4835     4.9312 C.3     
  32 C32           -9.1951     5.4535     2.2462 C.3     
  33 H33            0.1096     0.1431     1.1429 H       
  34 H34            0.0859     0.0444    -0.6342 H       
  35 H35           -1.6758     1.9152     0.1672 H       
  36 H36            1.8629    -1.5619     1.2141 H       
  37 H37            1.8392    -1.6605    -0.5630 H       
  38 H38           -0.6604     4.4434     0.9113 H       
  39 H39           -0.6757     4.3460    -0.8660 H       
  40 H40           -3.6989     6.2336    -3.1092 H       
  41 H41           -1.6994     2.5369    -2.1947 H       
  42 H42           -1.2085     1.4000    -5.0448 H       
  43 H43            0.0956     2.5601    -5.3935 H       
  44 H44           -0.0232     1.8125    -3.7826 H       
  45 H45           -2.1141     7.1759    -5.6083 H       
  46 H46           -2.8615     5.9589    -6.6706 H       
  47 H47           -3.8488     6.8071    -5.4566 H       
  48 H48           -6.8069     5.9383     0.9607 H       
  49 H49           -7.1781     4.1966     0.9598 H       
  50 H50           -7.4491     6.1002     3.3315 H       
  51 H51           -6.0723     4.5835     4.7026 H       
  52 H52           -5.8051     2.6841     2.3272 H       
  53 H53           -4.4690     3.3627     3.2891 H       
  54 H54           -6.8566     1.6586     4.3149 H       
  55 H55           -5.5058     2.2476     5.3133 H       
  56 H56           -7.1828     2.6360     5.7663 H       
  57 H57           -9.5150     4.5840     1.6720 H       
  58 H58           -9.8657     5.5960     3.0937 H       
  59 H59           -9.2204     6.3383     1.6101 H       
@<TRIPOS>BOND
   1    1    2 1
   2    1    3 2
   3    1    4 am
   4    2    5 1
   5    2   33 1
   6    2   34 1
   7    4   11 1
   8    4   35 1
   9    5    6 1
  10    6    7 1
  11    6   36 1
  12    6   37 1
  13    7    8 1
  14    7    9 1
  15    7   10 1
  16   11   15 1
  17   11   38 1
  18   11   39 1
  19   12   13 1
  20   12   16 1
  21   13   14 2
  22   13   25 1
  23   14   15 1
  24   15   16 2
  25   16   19 1
  26   17   18 ar
  27   17   22 ar
  28   17   24 1
  29   18   19 ar
  30   18   40 1
  31   19   20 ar
  32   20   21 ar
  33   20   41 1
  34   21   22 ar
  35   21   23 1
  36   23   42 1
  37   23   43 1
  38   23   44 1
  39   24   45 1
  40   24   46 1
  41   24   47 1
  42   25   26 1
  43   25   30 1
  44   26   27 1
  45   26   48 1
  46   26   49 1
  47   27   28 1
  48   27   32 1
  49   27   50 1
  50   28   29 1
  51   29   30 1
  52   29   31 1
  53   29   51 1
  54   30   52 1
  55   30   53 1
  56   31   54 1
  57   31   55 1
  58   31   56 1
  59   32   57 1
  60   32   58 1
  61   32   59 1

#	End of record

