#	Name: ASD06710003
#	Creating user name:	WinNT
#	Creation time:	15. 06. 2019 21:08

#	Modifying user name:	WinNT
#	Modification time:	15. 06. 2019 21:08

#	Program:	/corina/corina34_cracker 3.40 0067  02.08.2006

@<TRIPOS>MOLECULE
ASD06710003
  30   31    0    0    0
SMALL
NO_CHARGES


@<TRIPOS>ATOM
   1 C1             0.8530     0.8208     1.7692 C.ar    
   2 C2            -0.0858     0.5311     0.8040 C.ar    
   3 C3             0.2415     0.6182    -0.5403 C.ar    
   4 C4             1.5106     0.9953    -0.9276 C.ar    
   5 C5             2.4721     1.2912     0.0312 C.ar    
   6 C6             2.1436     1.2049     1.3937 C.ar    
   7 N7             3.7509     1.6703    -0.3561 N.pl3   
   8 C8             4.7978     0.7461    -0.3093 C.ar    
   9 C9             4.5410    -0.5808     0.0117 C.ar    
  10 C10            5.5777    -1.4924     0.0573 C.ar    
  11 C11            6.8705    -1.0859    -0.2161 C.ar    
  12 C12            7.1307     0.2356    -0.5360 C.ar    
  13 C13            6.0968     1.1511    -0.5893 C.ar    
  14 Cl14           8.7558     0.7416    -0.8774 Cl      
  15 C15            3.1526     1.5161     2.4206 C.2     
  16 O16            4.2402     1.9479     2.0927 O.2     
  17 O17            2.8697     1.3221     3.7239 O.3     
  18 C18            6.3801     2.5896    -0.9375 C.3     
  19 H19            0.5911     0.7555     2.8150 H       
  20 H20           -1.0823     0.2342     1.0960 H       
  21 H21           -0.5020     0.3890    -1.2894 H       
  22 H22            1.7574     1.0604    -1.9770 H       
  23 H23            3.9172     2.5766    -0.6590 H       
  24 H24            3.5315    -0.8994     0.2258 H       
  25 H25            5.3782    -2.5240     0.3072 H       
  26 H26            7.6792    -1.8008    -0.1797 H       
  27 H27            3.5636     1.5407     4.3610 H       
  28 H28            6.3104     2.7226    -2.0171 H       
  29 H29            5.6516     3.2331    -0.4443 H       
  30 H30            7.3834     2.8537    -0.6029 H       
@<TRIPOS>BOND
   1    1    2 ar
   2    1    6 ar
   3    1   19 1
   4    2    3 ar
   5    2   20 1
   6    3    4 ar
   7    3   21 1
   8    4    5 ar
   9    4   22 1
  10    5    6 ar
  11    5    7 1
  12    6   15 1
  13    7    8 1
  14    7   23 1
  15    8    9 ar
  16    8   13 ar
  17    9   10 ar
  18    9   24 1
  19   10   11 ar
  20   10   25 1
  21   11   12 ar
  22   11   26 1
  23   12   13 ar
  24   12   14 1
  25   13   18 1
  26   15   16 2
  27   15   17 1
  28   17   27 1
  29   18   28 1
  30   18   29 1
  31   18   30 1

#	End of record

