#	Name: ASD09890060
#	Creating user name:	WinNT
#	Creation time:	15. 06. 2019 21:24

#	Modifying user name:	WinNT
#	Modification time:	15. 06. 2019 21:24

#	Program:	/corina/corina34_cracker 3.40 0067  02.08.2006

@<TRIPOS>MOLECULE
ASD09890060
  32   33    0    0    0
SMALL
NO_CHARGES


@<TRIPOS>ATOM
   1 C1            -0.0165     1.3655     0.0095 C.2     
   2 N2             0.0021    -0.0041     0.0020 N.pl3   
   3 C3            -1.3101    -0.3908     0.0130 C.2     
   4 N4            -2.0331     0.7050     0.0260 N.2     
   5 N5            -1.2657     1.7359     0.0292 N.2     
   6 S6            -1.9150    -2.0457     0.0092 S.3     
   7 C7            -3.6970    -1.7289     0.0291 C.3     
   8 C8             1.1308    -0.8363    -0.0143 C.ar    
   9 C9             1.4007    -1.6634     1.0673 C.ar    
  10 C10            2.5129    -2.4823     1.0481 C.ar    
  11 C11            3.3570    -2.4787    -0.0470 C.ar    
  12 C12            3.0907    -1.6558    -1.1259 C.ar    
  13 C13            1.9772    -0.8387    -1.1146 C.ar    
  14 C14            1.1849     2.2753     0.0030 C.3     
  15 C15           -4.1056    -1.0317    -1.2700 C.3     
  16 C16           -4.4494    -3.0552     0.1546 C.3     
  17 O17            1.5518     2.5701    -1.3463 O.3     
  18 H18           -3.9430    -1.0900     0.8773 H       
  19 H19            0.7419    -1.6664     1.9231 H       
  20 H20            2.7236    -3.1258     1.8895 H       
  21 H21            4.2262    -3.1196    -0.0596 H       
  22 H22            3.7518    -1.6551    -1.9799 H       
  23 H23            1.7695    -0.1964    -1.9577 H       
  24 H24            0.9423     3.2014     0.5241 H       
  25 H25            2.0167     1.7823     0.5062 H       
  26 H26           -3.8596    -1.6706    -2.1182 H       
  27 H27           -5.1787    -0.8409    -1.2581 H       
  28 H28           -3.5696    -0.0868    -1.3594 H       
  29 H29           -4.1583    -3.5520     1.0801 H       
  30 H30           -5.5225    -2.8645     0.1665 H       
  31 H31           -4.2034    -3.6941    -0.6936 H       
  32 H32            2.3196     3.1524    -1.4269 H       
@<TRIPOS>BOND
   1    1    2 1
   2    1   14 1
   3    1    5 2
   4    2    3 1
   5    2    8 1
   6    3    4 2
   7    3    6 1
   8    4    5 1
   9    6    7 1
  10    7   15 1
  11    7   16 1
  12    7   18 1
  13    8    9 ar
  14    8   13 ar
  15    9   10 ar
  16    9   19 1
  17   10   11 ar
  18   10   20 1
  19   11   12 ar
  20   11   21 1
  21   12   13 ar
  22   12   22 1
  23   13   23 1
  24   14   17 1
  25   14   24 1
  26   14   25 1
  27   15   26 1
  28   15   27 1
  29   15   28 1
  30   16   29 1
  31   16   30 1
  32   16   31 1
  33   17   32 1

#	End of record

