#	Name: ASD00310015
#	Creating user name:	WinNT
#	Creation time:	15. 06. 2019 18:33

#	Modifying user name:	WinNT
#	Modification time:	15. 06. 2019 18:33

#	Program:	/corina/corina34_cracker 3.40 0067  02.08.2006

@<TRIPOS>MOLECULE
ASD00310015
  43   45    0    0    0
SMALL
NO_CHARGES


@<TRIPOS>ATOM
   1 O1            -0.0173     1.4225     0.0099 O.3     
   2 B2             0.0021    -0.0041     0.0020 Du      
   3 O3             0.8273    -0.6577    -0.9609 O.3     
   4 C4             2.1605    -0.1335    -0.9916 C.3     
   5 C5             2.0950     1.3874    -1.1590 C.3     
   6 C6             1.2976     1.9921     0.0004 C.3     
   7 C7            -0.8586    -0.8299     1.0229 C.ar    
   8 C8            -0.8260    -2.2232     0.9990 C.ar    
   9 C9            -1.5840    -2.9439     1.8988 C.ar    
  10 C10           -2.3759    -2.2861     2.8234 C.ar    
  11 C11           -2.4122    -0.9032     2.8515 C.ar    
  12 C12           -1.6537    -0.1724     1.9601 C.ar    
  13 C13           -3.6774    -3.4764     6.2208 C.3     
  14 C14           -2.7802    -2.7265     5.2326 C.3     
  15 C15           -3.2025    -3.0788     3.8029 C.3     
  16 C16           -4.6838    -2.7343     3.6202 C.3     
  17 C17           -5.5074    -3.4839     4.6707 C.3     
  18 O18           -5.0432    -3.1345     5.9762 O.3     
  19 C19            3.5127     1.9627    -1.1582 C.3     
  20 C20            1.4070     1.7260    -2.4830 C.3     
  21 H21            2.6693    -0.3761    -0.0586 H       
  22 H22            2.7047    -0.5695    -1.8293 H       
  23 H23            1.2263     3.0719    -0.1300 H       
  24 H24            1.7983     1.7694     0.9426 H       
  25 H25           -0.2087    -2.7376     0.2774 H       
  26 H26           -1.5595    -4.0235     1.8813 H       
  27 H27           -3.0320    -0.3948     3.5752 H       
  28 H28           -1.6795     0.9070     1.9857 H       
  29 H29           -3.5427    -4.5502     6.0913 H       
  30 H30           -3.4094    -3.1965     7.2396 H       
  31 H31           -2.8840    -1.6527     5.3889 H       
  32 H32           -1.7420    -3.0195     5.3885 H       
  33 H33           -3.0505    -4.1442     3.6300 H       
  34 H34           -4.8260    -1.6607     3.7439 H       
  35 H35           -5.0068    -3.0329     2.6229 H       
  36 H36           -6.5577    -3.2095     4.5728 H       
  37 H37           -5.3966    -4.5579     4.5209 H       
  38 H38            4.0806     1.5307    -1.9823 H       
  39 H39            3.4657     3.0451    -1.2774 H       
  40 H40            4.0019     1.7220    -0.2144 H       
  41 H41            0.3967     1.3168    -2.4826 H       
  42 H42            1.3605     2.8085    -2.6019 H       
  43 H43            1.9737     1.2939    -3.3078 H       
@<TRIPOS>BOND
   1    1    2 1
   2    1    6 1
   3    2    3 1
   4    2    7 1
   5    3    4 1
   6    4    5 1
   7    4   21 1
   8    4   22 1
   9    5    6 1
  10    5   19 1
  11    5   20 1
  12    6   23 1
  13    6   24 1
  14    7    8 ar
  15    7   12 ar
  16    8    9 ar
  17    8   25 1
  18    9   10 ar
  19    9   26 1
  20   10   11 ar
  21   10   15 1
  22   11   12 ar
  23   11   27 1
  24   12   28 1
  25   13   14 1
  26   13   18 1
  27   13   29 1
  28   13   30 1
  29   14   15 1
  30   14   31 1
  31   14   32 1
  32   15   16 1
  33   15   33 1
  34   16   17 1
  35   16   34 1
  36   16   35 1
  37   17   18 1
  38   17   36 1
  39   17   37 1
  40   19   38 1
  41   19   39 1
  42   19   40 1
  43   20   41 1
  44   20   42 1
  45   20   43 1

#	End of record

