#	Name: ASD01560033
#	Creating user name:	WinNT
#	Creation time:	15. 06. 2019 19:22

#	Modifying user name:	WinNT
#	Modification time:	15. 06. 2019 19:22

#	Program:	/corina/corina34_cracker 3.40 0067  02.08.2006

@<TRIPOS>MOLECULE
ASD01560033
  50   53    0    0    0
SMALL
NO_CHARGES


@<TRIPOS>ATOM
   1 O1             0.0021    -0.0041     0.0020 O.2     
   2 C2            -0.0144     1.2117     0.0087 C.2     
   3 N3             1.1471     1.8906     0.0013 N.am    
   4 C4             1.1546     3.2600     0.0090 C.2     
   5 C5             2.4615     4.0103     0.0005 C.3     
   6 S6             3.2207     3.9182     1.6411 S.3     
   7 C7             4.6879     4.8501     1.3520 C.2     
   8 N8             4.9134     5.3609     0.1618 N.2     
   9 C9             6.0400     6.0795    -0.0699 C.2     
  10 C10            6.5284     6.7170    -1.1891 C.2     
  11 C11            7.7549     7.3059    -0.8399 C.2     
  12 N12            8.0019     7.0415     0.4266 N.2     
  13 N13            6.9491     6.2757     0.9396 N.am    
  14 C14            6.7140     5.7505     2.1585 C.2     
  15 O15            7.5116     5.9179     3.0605 O.2     
  16 N16            5.5862     5.0430     2.3732 N.am    
  17 C17            8.6268     8.0939    -1.7464 C.ar    
  18 C18            9.8246     8.6274    -1.2754 C.ar    
  19 C19           10.6316     9.3594    -2.1226 C.ar    
  20 C20           10.2531     9.5637    -3.4373 C.ar    
  21 C21            9.0649     9.0367    -3.9101 C.ar    
  22 C22            8.2533     8.2979    -3.0731 C.ar    
  23 C23           11.1384    10.3638    -4.3577 C.3     
  24 C24           12.5061     9.6865    -4.4660 C.3     
  25 C25           10.4960    10.4403    -5.7442 C.3     
  26 C26           11.3120    11.7769    -3.7974 C.3     
  27 C27           -0.0152     3.9348     0.0238 C.2     
  28 C28           -1.2304     3.2069     0.0310 C.2     
  29 O29           -2.2979     3.7930     0.0440 O.2     
  30 N30           -1.1944     1.8590     0.0179 N.am    
  31 Cl31          -0.0294     5.6707     0.0344 Cl      
  32 H32            1.9871     1.4056    -0.0094 H       
  33 H33            3.1313     3.5651    -0.7352 H       
  34 H34            2.2800     5.0535    -0.2577 H       
  35 H35            6.0547     6.7563    -2.1589 H       
  36 H36            5.4124     4.6634     3.2488 H       
  37 H37           10.1208     8.4687    -0.2490 H       
  38 H38           11.5601     9.7737    -1.7584 H       
  39 H39            8.7738     9.1998    -4.9372 H       
  40 H40            7.3259     7.8865    -3.4433 H       
  41 H41           12.3824     8.6798    -4.8651 H       
  42 H42           13.1464    10.2652    -5.1317 H       
  43 H43           12.9638     9.6320    -3.4782 H       
  44 H44            9.5217    10.9228    -5.6670 H       
  45 H45           11.1363    11.0190    -6.4099 H       
  46 H46           10.3723     9.4336    -6.1433 H       
  47 H47           11.7697    11.7224    -2.8096 H       
  48 H48           11.9524    12.3556    -4.4631 H       
  49 H49           10.3377    12.2594    -3.7202 H       
  50 H50           -2.0224     1.3537     0.0227 H       
@<TRIPOS>BOND
   1    1    2 2
   2    2    3 am
   3    2   30 am
   4    3    4 1
   5    3   32 1
   6    4    5 1
   7    4   27 2
   8    5    6 1
   9    5   33 1
  10    5   34 1
  11    6    7 1
  12    7    8 2
  13    7   16 1
  14    8    9 1
  15    9   10 2
  16    9   13 1
  17   10   11 1
  18   10   35 1
  19   11   12 2
  20   11   17 1
  21   12   13 1
  22   13   14 am
  23   14   15 2
  24   14   16 am
  25   16   36 1
  26   17   18 ar
  27   17   22 ar
  28   18   19 ar
  29   18   37 1
  30   19   20 ar
  31   19   38 1
  32   20   21 ar
  33   20   23 1
  34   21   22 ar
  35   21   39 1
  36   22   40 1
  37   23   24 1
  38   23   25 1
  39   23   26 1
  40   24   41 1
  41   24   42 1
  42   24   43 1
  43   25   44 1
  44   25   45 1
  45   25   46 1
  46   26   47 1
  47   26   48 1
  48   26   49 1
  49   27   28 1
  50   27   31 1
  51   28   29 2
  52   28   30 am
  53   30   50 1

#	End of record

