#	Name: ASD01913155
#	Creating user name:	WinNT
#	Creation time:	15. 06. 2019 20:01

#	Modifying user name:	WinNT
#	Modification time:	15. 06. 2019 20:01

#	Program:	/corina/corina34_cracker 3.40 0067  02.08.2006

@<TRIPOS>MOLECULE
ASD01913155
  50   52    0    0    0
SMALL
NO_CHARGES


@<TRIPOS>ATOM
   1 C1            -0.0748     1.1706    -0.0502 C.ar    
   2 C2            -0.0269    -0.2121    -0.0871 C.ar    
   3 C3             1.1884    -0.8633    -0.1016 C.ar    
   4 C4             2.3746    -0.1228    -0.0793 C.ar    
   5 C5             2.3178     1.2740    -0.0425 C.ar    
   6 C6             1.0947     1.9105    -0.0280 C.ar    
   7 C7             3.6759    -0.8100    -0.0941 C.2     
   8 C8             4.9517    -0.0083    -0.0700 C.3     
   9 C9             6.1512    -0.9578    -0.0918 C.3     
  10 C10            7.4270    -0.1561    -0.0677 C.2     
  11 N11            8.6188    -0.7854    -0.0812 N.am    
  12 C12            9.8758    -0.0222    -0.0582 C.3     
  13 C13           10.7619    -0.5774     1.0620 C.3     
  14 N14           10.9187    -2.0273     0.8849 N.3     
  15 C15            9.6293    -2.7210     1.0031 C.3     
  16 C16            8.6967    -2.2538    -0.1133 C.3     
  17 O17            7.3814     1.0554    -0.0362 O.2     
  18 C18           11.8456    -2.5417     1.7844 C.ar    
  19 C19           13.1990    -2.1831     1.6853 C.ar    
  20 C20           14.1201    -2.7074     2.5958 C.ar    
  21 C21           13.6960    -3.5708     3.5825 C.ar    
  22 C22           12.3591    -3.9227     3.6775 C.ar    
  23 C23           11.4362    -3.4087     2.7892 C.ar    
  24 O24            3.7215    -2.0213    -0.1256 O.2     
  25 C25           15.5757    -2.3297     2.4985 C.3     
  26 F26           16.2938    -2.9758     3.5105 F       
  27 F27           16.0759    -2.7179     1.2510 F       
  28 F28           15.7088    -0.9446     2.6437 F       
  29 C29           13.6331    -1.2858     0.6572 C.1     
  30 N30           13.9775    -0.5739    -0.1584 N.1     
  31 H31           -1.0297     1.6750    -0.0432 H       
  32 H32           -0.9438    -0.7825    -0.1043 H       
  33 H33            1.2242    -1.9424    -0.1297 H       
  34 H34            3.2295     1.8527    -0.0248 H       
  35 H35            1.0491     2.9892     0.0001 H       
  36 H36            4.9880     0.6431    -0.9431 H       
  37 H37            4.9836     0.5966     0.8362 H       
  38 H38            6.1149    -1.6093     0.7813 H       
  39 H39            6.1193    -1.5628    -0.9980 H       
  40 H40           10.3862    -0.1284    -1.0154 H       
  41 H41            9.6621     1.0297     0.1313 H       
  42 H42           11.7402    -0.0984     1.0231 H       
  43 H43           10.2965    -0.3771     2.0270 H       
  44 H44            9.7861    -3.7966     0.9216 H       
  45 H45            9.1796    -2.4908     1.9690 H       
  46 H46            7.7040    -2.6781     0.0372 H       
  47 H47            9.0919    -2.5726    -1.0779 H       
  48 H48           14.4092    -3.9754     4.2852 H       
  49 H49           12.0365    -4.6001     4.4544 H       
  50 H50           10.3961    -3.6881     2.8700 H       
@<TRIPOS>BOND
   1    1    2 ar
   2    1    6 ar
   3    1   31 1
   4    2    3 ar
   5    2   32 1
   6    3    4 ar
   7    3   33 1
   8    4    5 ar
   9    4    7 1
  10    5    6 ar
  11    5   34 1
  12    6   35 1
  13    7    8 1
  14    7   24 2
  15    8    9 1
  16    8   36 1
  17    8   37 1
  18    9   10 1
  19    9   38 1
  20    9   39 1
  21   10   11 am
  22   10   17 2
  23   11   12 1
  24   11   16 1
  25   12   13 1
  26   12   40 1
  27   12   41 1
  28   13   14 1
  29   13   42 1
  30   13   43 1
  31   14   15 1
  32   14   18 1
  33   15   16 1
  34   15   44 1
  35   15   45 1
  36   16   46 1
  37   16   47 1
  38   18   19 ar
  39   18   23 ar
  40   19   20 ar
  41   19   29 1
  42   20   21 ar
  43   20   25 1
  44   21   22 ar
  45   21   48 1
  46   22   23 ar
  47   22   49 1
  48   23   50 1
  49   25   26 1
  50   25   27 1
  51   25   28 1
  52   29   30 3

#	End of record

