#	Name: ASD05380090
#	Creating user name:	WinNT
#	Creation time:	15. 06. 2019 20:59

#	Modifying user name:	WinNT
#	Modification time:	15. 06. 2019 20:59

#	Program:	/corina/corina34_cracker 3.40 0067  02.08.2006

@<TRIPOS>MOLECULE
ASD05380090
  48   52    0    0    0
SMALL
NO_CHARGES


@<TRIPOS>ATOM
   1 C1            -0.2265     1.5765    -0.3889 C.ar    
   2 C2            -0.0886     0.1891    -0.6181 C.ar    
   3 C3             0.7584     2.4579    -0.8291 C.ar    
   4 C4             1.8645     1.9661    -1.4877 C.ar    
   5 C5             2.0032     0.6034    -1.7146 C.ar    
   6 C6             1.0412    -0.2846    -1.2876 C.ar    
   7 N7            -1.0600    -0.6503    -0.1800 N.2     
   8 C8            -2.1104    -0.2095     0.4431 C.2     
   9 N9            -2.3255     1.1079     0.7066 N.am    
  10 C10           -1.4246     2.0427     0.3241 C.2     
  11 C11           -3.4867     1.4994     1.3847 C.ar    
  12 C12           -4.6413     1.7951     0.6726 C.ar    
  13 C13           -3.4864     1.5869     2.7704 C.ar    
  14 C14           -4.6345     1.9735     3.4384 C.ar    
  15 C15           -5.7837     2.2725     2.7261 C.ar    
  16 C16           -3.1441    -1.2078     0.8970 C.3     
  17 N17           -3.2453    -2.2878    -0.0876 N.pl3   
  18 C18           -4.4151    -3.0190    -0.1945 C.ar    
  19 N19           -5.4550    -2.7538     0.5883 N.ar    
  20 O20           -1.6039     3.2247     0.5536 O.2     
  21 C21           -4.5306    -4.0546    -1.1379 C.ar    
  22 C22           -5.7413    -4.7638    -1.2033 C.ar    
  23 N23           -6.7299    -4.4351    -0.3777 N.ar    
  24 C24           -6.5807    -3.4494     0.4924 C.ar    
  25 N25           -3.7060    -4.5844    -2.0746 N.2     
  26 C26           -4.3190    -5.5496    -2.6950 C.2     
  27 N27           -5.5789    -5.6996    -2.1933 N.pl3   
  28 C28           -2.7318    -1.7889     2.2510 C.3     
  29 F29           -4.6347     2.0587     4.7867 F       
  30 C30           -5.7874     2.1812     1.3444 C.ar    
  31 F31           -6.9098     2.4735     0.6516 F       
  32 N32           -7.6359    -3.1334     1.3324 N.pl3   
  33 H33            0.6557     3.5189    -0.6558 H       
  34 H34            2.6298     2.6466    -1.8307 H       
  35 H35            2.8764     0.2352    -2.2327 H       
  36 H36            1.1601    -1.3425    -1.4699 H       
  37 H37           -4.6446     1.7240    -0.4050 H       
  38 H38           -2.5905     1.3531     3.3263 H       
  39 H39           -6.6794     2.5734     3.2491 H       
  40 H40           -4.1101    -0.7122     0.9933 H       
  41 H41           -2.4923    -2.4904    -0.6645 H       
  42 H42           -3.8936    -6.1442    -3.4899 H       
  43 H43           -6.2386    -6.3490    -2.4830 H       
  44 H44           -1.8132    -2.3640     2.1350 H       
  45 H45           -2.5653    -0.9773     2.9592 H       
  46 H46           -3.5232    -2.4394     2.6233 H       
  47 H47           -7.5442    -2.4142     1.9767 H       
  48 H48           -8.4664    -3.6314     1.2762 H       
@<TRIPOS>BOND
   1    1    2 ar
   2    1    3 ar
   3    1   10 1
   4    2    7 1
   5    2    6 ar
   6    3    4 ar
   7    3   33 1
   8    4    5 ar
   9    4   34 1
  10    5    6 ar
  11    5   35 1
  12    6   36 1
  13    7    8 2
  14    8    9 1
  15    8   16 1
  16    9   10 am
  17    9   11 1
  18   10   20 2
  19   11   12 ar
  20   11   13 ar
  21   12   30 ar
  22   12   37 1
  23   13   14 ar
  24   13   38 1
  25   14   15 ar
  26   14   29 1
  27   15   30 ar
  28   15   39 1
  29   16   17 1
  30   16   28 1
  31   16   40 1
  32   17   18 1
  33   17   41 1
  34   18   19 ar
  35   18   21 ar
  36   19   24 ar
  37   21   22 ar
  38   21   25 1
  39   22   23 ar
  40   22   27 1
  41   23   24 ar
  42   24   32 1
  43   25   26 2
  44   26   27 1
  45   26   42 1
  46   27   43 1
  47   28   44 1
  48   28   45 1
  49   28   46 1
  50   30   31 1
  51   32   47 1
  52   32   48 1

#	End of record

