#	Name: ASD02560474
#	Creating user name:	WinNT
#	Creation time:	15. 06. 2019 20:25

#	Modifying user name:	WinNT
#	Modification time:	15. 06. 2019 20:25

#	Program:	/corina/corina34_cracker 3.40 0067  02.08.2006

@<TRIPOS>MOLECULE
ASD02560474
  49   52    0    0    0
SMALL
NO_CHARGES


@<TRIPOS>ATOM
   1 C1            -0.0292     1.4165    -0.0472 C.2     
   2 C2            -0.0048     0.0112     0.0041 C.2     
   3 C3            -1.1560    -0.6902     0.0182 C.2     
   4 N4            -2.3633    -0.0471    -0.0171 N.pl3   
   5 C5            -2.4182     1.3269    -0.0672 C.2     
   6 C6            -1.2205     2.0709    -0.0772 C.2     
   7 C7            -3.6547    -0.4993    -0.0131 C.2     
   8 C8            -4.4597     0.5920    -0.0601 C.2     
   9 N9            -3.6916     1.6869    -0.0923 N.2     
  10 C10           -5.9665     0.5737    -0.0742 C.3     
  11 N11           -4.0678    -1.8367     0.0308 N.3     
  12 C12           -2.9223    -2.7462    -0.1058 C.3     
  13 C13           -2.2901    -3.0334     1.2787 C.3     
  14 C14           -6.4892     1.3215     1.1252 C.ar    
  15 C15           -7.2849     0.6731     2.0512 C.ar    
  16 C16           -6.1685     2.6544     1.3023 C.ar    
  17 C17           -6.6479     3.3404     2.4025 C.ar    
  18 C18           -7.4486     2.6936     3.3253 C.ar    
  19 C19           -7.7644     1.3591     3.1513 C.ar    
  20 C20           -6.4727     1.2435    -1.3533 C.3     
  21 C21           -3.3881    -4.1301    -0.6034 C.3     
  22 C22           -2.5302    -5.1737     0.1332 C.3     
  23 C23           -1.5730    -4.3876     1.0527 C.3     
  24 C24            1.2613     2.1947    -0.0627 C.3     
  25 H25            0.9413    -0.5088     0.0321 H       
  26 H26           -1.1251    -1.7691     0.0574 H       
  27 H27           -1.2491     3.1498    -0.1159 H       
  28 H28           -6.3177    -0.4577    -0.0407 H       
  29 H29           -4.5829    -2.0284     0.8769 H       
  30 H30           -2.1815    -2.3258    -0.7859 H       
  31 H31           -1.5734    -2.2564     1.5447 H       
  32 H32           -3.0611    -3.1275     2.0434 H       
  33 H33           -7.5321    -0.3693     1.9149 H       
  34 H34           -5.5429     3.1597     0.5814 H       
  35 H35           -6.3967     4.3816     2.5413 H       
  36 H36           -7.8229     3.2295     4.1850 H       
  37 H37           -8.3899     0.8538     3.8723 H       
  38 H38           -6.1216     2.2748    -1.3868 H       
  39 H39           -6.0946     0.7026    -2.2208 H       
  40 H40           -7.5626     1.2302    -1.3635 H       
  41 H41           -4.4415    -4.2774    -0.3652 H       
  42 H42           -3.2332    -4.2116    -1.6793 H       
  43 H43           -3.1672    -5.8275     0.7289 H       
  44 H44           -1.9589    -5.7617    -0.5852 H       
  45 H45           -0.6125    -4.2332     0.5610 H       
  46 H46           -1.4382    -4.9105     1.9995 H       
  47 H47            2.1031     1.5030    -0.0292 H       
  48 H48            1.3159     2.7896    -0.9744 H       
  49 H49            1.2982     2.8542     0.8043 H       
@<TRIPOS>BOND
   1    1    2 1
   2    1   24 1
   3    1    6 2
   4    2    3 2
   5    2   25 1
   6    3    4 1
   7    3   26 1
   8    4    5 1
   9    4    7 1
  10    5    6 1
  11    5    9 2
  12    6   27 1
  13    7    8 2
  14    7   11 1
  15    8    9 1
  16    8   10 1
  17   10   14 1
  18   10   20 1
  19   10   28 1
  20   11   12 1
  21   11   29 1
  22   12   21 1
  23   12   13 1
  24   12   30 1
  25   13   23 1
  26   13   31 1
  27   13   32 1
  28   14   15 ar
  29   14   16 ar
  30   15   19 ar
  31   15   33 1
  32   16   17 ar
  33   16   34 1
  34   17   18 ar
  35   17   35 1
  36   18   19 ar
  37   18   36 1
  38   19   37 1
  39   20   38 1
  40   20   39 1
  41   20   40 1
  42   21   22 1
  43   21   41 1
  44   21   42 1
  45   22   23 1
  46   22   43 1
  47   22   44 1
  48   23   45 1
  49   23   46 1
  50   24   47 1
  51   24   48 1
  52   24   49 1

#	End of record

