#	Name: ASD01910080
#	Creating user name:	WinNT
#	Creation time:	15. 06. 2019 19:55

#	Modifying user name:	WinNT
#	Modification time:	15. 06. 2019 19:55

#	Program:	/corina/corina34_cracker 3.40 0067  02.08.2006

@<TRIPOS>MOLECULE
ASD01910080
  25   26    0    0    0
SMALL
NO_CHARGES


@<TRIPOS>ATOM
   1 C1            -0.0158     1.3144     0.0093 C.ar    
   2 N2             0.0021    -0.0041     0.0020 N.ar    
   3 C3             1.1439    -0.6688    -0.0125 C.ar    
   4 C4             2.3462     0.0505    -0.0202 C.ar    
   5 C5             2.2776     1.4499    -0.0120 C.ar    
   6 N6             1.0910     2.0310     0.0025 N.ar    
   7 C7             3.6087    -0.6251    -0.0354 C.1     
   8 C8             4.6438    -1.1789    -0.0479 C.1     
   9 C9             5.9063    -1.8545    -0.0632 C.ar    
  10 C10            7.0950    -1.1199    -0.0707 C.ar    
  11 C11            8.3076    -1.7762    -0.0849 C.ar    
  12 C12            8.3490    -3.1615    -0.0918 C.ar    
  13 C13            7.1731    -3.8959    -0.0849 C.ar    
  14 C14            5.9547    -3.2514    -0.0649 C.ar    
  15 C15            9.5905    -0.9856    -0.0935 C.3     
  16 F16            9.5401    -3.7989    -0.1057 F       
  17 H17           -0.9680     1.8239     0.0165 H       
  18 H18            1.1503    -1.7488    -0.0180 H       
  19 H19            3.1797     2.0437    -0.0171 H       
  20 H20            7.0640    -0.0404    -0.0657 H       
  21 H21            7.2118    -4.9752    -0.0907 H       
  22 H22            5.0394    -3.8245    -0.0595 H       
  23 H23            9.9094    -0.7994     0.9321 H       
  24 H24           10.3619    -1.5504    -0.6170 H       
  25 H25            9.4281    -0.0351    -0.6016 H       
@<TRIPOS>BOND
   1    1    2 ar
   2    1    6 ar
   3    1   17 1
   4    2    3 ar
   5    3    4 ar
   6    3   18 1
   7    4    5 ar
   8    4    7 1
   9    5    6 ar
  10    5   19 1
  11    7    8 3
  12    8    9 1
  13    9   10 ar
  14    9   14 ar
  15   10   11 ar
  16   10   20 1
  17   11   12 ar
  18   11   15 1
  19   12   13 ar
  20   12   16 1
  21   13   14 ar
  22   13   21 1
  23   14   22 1
  24   15   23 1
  25   15   24 1
  26   15   25 1

#	End of record

