#	Name: ASD03540541
#	Creating user name:	WinNT
#	Creation time:	15. 06. 2019 20:43

#	Modifying user name:	WinNT
#	Modification time:	15. 06. 2019 20:43

#	Program:	/corina/corina34_cracker 3.40 0067  02.08.2006

@<TRIPOS>MOLECULE
ASD03540541
  63   68    0    0    0
SMALL
NO_CHARGES


@<TRIPOS>ATOM
   1 N1            -0.2217     1.2636     0.1844 N.am    
   2 C2            -0.1242    -0.0750     0.1173 C.2     
   3 N3             1.0524    -0.7174     0.0513 N.am    
   4 C4             2.2210    -0.0397     0.0488 C.2     
   5 C5             2.1736     1.4323     0.1203 C.ar    
   6 C6             3.3312     2.2002     0.1230 C.ar    
   7 C7             3.2278     3.5889     0.1926 C.ar    
   8 C8             1.9678     4.1964     0.2590 C.ar    
   9 C9             0.8294     3.4409     0.2568 C.ar    
  10 C10            0.9130     2.0560     0.1880 C.ar    
  11 C11            4.4481     4.4199     0.1969 C.2     
  12 O12            5.5424     3.8932     0.1397 O.2     
  13 N13            4.3491     5.7623     0.2642 N.am    
  14 C14            5.5600     6.5869     0.2684 C.3     
  15 O15            4.1394    11.9968     0.8307 O.3     
  16 C16            4.5481    12.1498     2.2029 C.3     
  17 O17            4.4841    10.8115     2.7302 O.3     
  18 C18            4.6841     9.9882     1.6599 C.ar    
  19 C19            4.4722    10.7171     0.4919 C.ar    
  20 C20            5.0360     8.6508     1.5830 C.ar    
  21 C21            5.1766     8.0420     0.3494 C.ar    
  22 C22            4.9668     8.7653    -0.8094 C.ar    
  23 C23            4.6148    10.1008    -0.7403 C.ar    
  24 O24            3.2834    -0.6278    -0.0104 O.2     
  25 O25           -1.1464    -0.7329     0.1167 O.2     
  26 C26            1.0697    -2.1806    -0.0189 C.3     
  27 C27            0.5116    -2.7603     1.2824 C.3     
  28 C28            0.2211    -2.6380    -1.1773 C.ar    
  29 C29           -1.0031    -3.1893    -0.9528 C.ar    
  30 C30           -1.8018    -3.6179    -2.0110 C.ar    
  31 C31           -1.3813    -3.4975    -3.3001 C.ar    
  32 C32           -0.1235    -2.9329    -3.5711 C.ar    
  33 C33            0.3449    -2.7924    -4.8887 C.ar    
  34 C34            1.5688    -2.2411    -5.1130 C.ar    
  35 C35            2.3679    -1.8126    -4.0544 C.ar    
  36 C36            1.9475    -1.9331    -2.7657 C.ar    
  37 C37            0.6869    -2.4923    -2.4948 C.ar    
  38 C38           -1.5438     1.8913     0.2484 C.3     
  39 H39            4.3006     1.7267     0.0720 H       
  40 H40            1.8952     5.2726     0.3127 H       
  41 H41           -0.1366     3.9209     0.3091 H       
  42 H42            3.4760     6.1825     0.3098 H       
  43 H43            6.1751     6.3247     1.1293 H       
  44 H44            6.1232     6.4100    -0.6479 H       
  45 H45            5.5661    12.5352     2.2586 H       
  46 H46            3.8597    12.8051     2.7367 H       
  47 H47            5.2013     8.0833     2.4870 H       
  48 H48            5.0775     8.2864    -1.7711 H       
  49 H49            4.4507    10.6634    -1.6474 H       
  50 H50            2.0940    -2.5255    -0.1605 H       
  51 H51            1.1254    -2.4294     2.1202 H       
  52 H52           -0.5127    -2.4154     1.4239 H       
  53 H53            0.5245    -3.8489     1.2301 H       
  54 H54           -1.3605    -3.2964     0.0607 H       
  55 H55           -2.7688    -4.0526    -1.8054 H       
  56 H56           -2.0110    -3.8344    -4.1102 H       
  57 H57           -0.2630    -3.1206    -5.7189 H       
  58 H58            1.9264    -2.1343    -6.1265 H       
  59 H59            3.3353    -1.3788    -4.2600 H       
  60 H60            2.5779    -1.5973    -1.9555 H       
  61 H61           -2.3136     1.1197     0.2308 H       
  62 H62           -1.6282     2.4677     1.1697 H       
  63 H63           -1.6735     2.5535    -0.6076 H       
@<TRIPOS>BOND
   1    1    2 am
   2    1   10 1
   3    1   38 1
   4    2    3 am
   5    2   25 2
   6    3    4 am
   7    3   26 1
   8    4    5 1
   9    4   24 2
  10    5    6 ar
  11    5   10 ar
  12    6    7 ar
  13    6   39 1
  14    7    8 ar
  15    7   11 1
  16    8    9 ar
  17    8   40 1
  18    9   10 ar
  19    9   41 1
  20   11   12 2
  21   11   13 am
  22   13   14 1
  23   13   42 1
  24   14   21 1
  25   14   43 1
  26   14   44 1
  27   15   16 1
  28   15   19 1
  29   16   17 1
  30   16   45 1
  31   16   46 1
  32   17   18 1
  33   18   19 ar
  34   18   20 ar
  35   19   23 ar
  36   20   21 ar
  37   20   47 1
  38   21   22 ar
  39   22   23 ar
  40   22   48 1
  41   23   49 1
  42   26   27 1
  43   26   28 1
  44   26   50 1
  45   27   51 1
  46   27   52 1
  47   27   53 1
  48   28   29 ar
  49   28   37 ar
  50   29   30 ar
  51   29   54 1
  52   30   31 ar
  53   30   55 1
  54   31   32 ar
  55   31   56 1
  56   32   33 ar
  57   32   37 ar
  58   33   34 ar
  59   33   57 1
  60   34   35 ar
  61   34   58 1
  62   35   36 ar
  63   35   59 1
  64   36   37 ar
  65   36   60 1
  66   38   61 1
  67   38   62 1
  68   38   63 1

#	End of record

