#	Name: ASD02900013
#	Creating user name:	WinNT
#	Creation time:	15. 06. 2019 20:26

#	Modifying user name:	WinNT
#	Modification time:	15. 06. 2019 20:26

#	Program:	/corina/corina34_cracker 3.40 0067  02.08.2006

@<TRIPOS>MOLECULE
ASD02900013
  31   32    0    0    0
SMALL
NO_CHARGES


@<TRIPOS>ATOM
   1 P1            -0.0180     1.4758     0.0102 P.3     
   2 C2            -0.3850     1.6043     2.6538 C.3     
   3 C3            -1.3055     2.2756     3.6750 C.3     
   4 C4            -0.8916     1.8573     5.0873 C.3     
   5 N5            -2.6099     3.9537     7.5790 N.pl3   
   6 C6            -1.5619     3.6665     6.7478 C.2     
   7 C7            -1.7982     2.5186     6.0931 C.2     
   8 C8            -3.8803     0.9112     6.2320 C.ar    
   9 C9            -5.1010     0.7370     6.8469 C.ar    
  10 C10           -5.5610     1.6684     7.7710 C.ar    
  11 C11           -4.8065     2.7766     8.0858 C.ar    
  12 C12           -3.5714     2.9717     7.4767 C.ar    
  13 C13           -3.1046     2.0306     6.5418 C.ar    
  14 O14            0.0021    -0.0041     0.0020 O.2     
  15 O15            1.4924     2.0330    -0.0013 O.3     
  16 O16           -0.7967     2.0091    -1.2942 O.3     
  17 O17           -0.7716     1.9950     1.3348 O.3     
  18 F18           -5.8549    -0.3441     6.5501 F       
  19 H19            0.6450     1.9108     2.8364 H       
  20 H20           -0.4642     0.5214     2.7499 H       
  21 H21           -1.2262     3.3585     3.5789 H       
  22 H22           -2.3355     1.9691     3.4925 H       
  23 H23           -0.9708     0.7745     5.1834 H       
  24 H24            0.1384     2.1638     5.2698 H       
  25 H25           -2.6659     4.7305     8.1572 H       
  26 H26           -0.6759     4.2737     6.6346 H       
  27 H27           -3.5252     0.1860     5.5148 H       
  28 H28           -6.5196     1.5215     8.2464 H       
  29 H29           -5.1738     3.4939     8.8049 H       
  30 H30            1.5557     2.9980     0.0033 H       
  31 H31           -0.3973     1.7338    -2.1307 H       
@<TRIPOS>BOND
   1    1   14 2
   2    1   15 1
   3    1   16 1
   4    1   17 1
   5    2    3 1
   6    2   17 1
   7    2   19 1
   8    2   20 1
   9    3    4 1
  10    3   21 1
  11    3   22 1
  12    4    7 1
  13    4   23 1
  14    4   24 1
  15    5    6 1
  16    5   12 1
  17    5   25 1
  18    6    7 2
  19    6   26 1
  20    7   13 1
  21    8    9 ar
  22    8   13 ar
  23    8   27 1
  24    9   10 ar
  25    9   18 1
  26   10   11 ar
  27   10   28 1
  28   11   12 ar
  29   11   29 1
  30   12   13 ar
  31   15   30 1
  32   16   31 1

#	End of record

