#	Name: ASD03330437
#	Creating user name:	WinNT
#	Creation time:	15. 06. 2019 20:37

#	Modifying user name:	WinNT
#	Modification time:	15. 06. 2019 20:37

#	Program:	/corina/corina34_cracker 3.40 0067  02.08.2006

@<TRIPOS>MOLECULE
ASD03330437
  65   69    0    0    0
SMALL
NO_CHARGES


@<TRIPOS>ATOM
   1 C1            -1.9378    -3.5001    -1.3306 C.3     
   2 N2            -1.4532    -2.1159    -1.2368 N.3     
   3 C3            -0.0525    -2.0099    -1.6840 C.3     
   4 C4             0.0614    -2.6938    -3.0219 C.2     
   5 N5            -0.8838    -3.5434    -3.5195 N.pl3   
   6 C6            -2.1145    -3.8908    -2.8037 C.3     
   7 C7             1.0527    -2.6136    -3.9433 C.2     
   8 N8             0.7089    -3.4033    -4.9869 N.2     
   9 C9            -0.4540    -3.9636    -4.7381 C.2     
  10 C10           -1.1734    -4.8947    -5.6338 C.ar    
  11 C11            2.2831    -1.8109    -3.8288 C.2     
  12 O12            2.4323    -1.0576    -2.8857 O.2     
  13 C13            3.1396    -2.9113    -5.8410 C.3     
  14 N14            3.2433    -1.9115    -4.7693 N.am    
  15 C15           -1.6112    -1.5941     0.1273 C.3     
  16 C16           -2.5359    -4.7189    -5.8791 C.ar    
  17 C17           -3.2017    -5.5898    -6.7156 C.ar    
  18 C18           -2.5219    -6.6386    -7.3129 C.ar    
  19 C19           -1.1709    -6.8203    -7.0746 C.ar    
  20 C20           -0.4906    -5.9508    -6.2427 C.ar    
  21 F21            0.8283    -6.1284    -6.0102 F       
  22 Cl22          -3.3684    -7.7300    -8.3646 Cl      
  23 C23            3.2823    -2.2027    -7.1917 C.3     
  24 C24            4.5842    -1.3984    -7.2063 C.3     
  25 C25            4.5418    -0.3359    -6.1056 C.3     
  26 C26            4.4133    -1.0233    -4.7426 C.3     
  27 C27            5.7489    -2.3240    -6.9659 C.2     
  28 N28            4.7407    -0.7442    -8.5122 N.3     
  29 C29            5.9835     0.0395    -8.5633 C.3     
  30 C30            3.5785     0.1016    -8.8204 C.3     
  31 C31            3.7553     0.7152   -10.2119 C.3     
  32 O32            4.9834     1.4470   -10.2521 O.3     
  33 C33            6.1362     0.6537    -9.9573 C.3     
  34 O34            6.2217    -2.4276    -5.8539 O.2     
  35 N35            6.2652    -3.0366    -7.9868 N.am    
  36 H36           -1.2159    -4.1691    -0.8624 H       
  37 H37           -2.8950    -3.5844    -0.8161 H       
  38 H38            0.2247    -0.9603    -1.7819 H       
  39 H39            0.6025    -2.4990    -0.9631 H       
  40 H40           -2.2947    -4.9631    -2.8807 H       
  41 H41           -2.9553    -3.3444    -3.2309 H       
  42 H42            3.9337    -3.6496    -5.7300 H       
  43 H43            2.1691    -3.4046    -5.7879 H       
  44 H44           -1.0988    -2.2518     0.8295 H       
  45 H45           -1.1812    -0.5942     0.1860 H       
  46 H46           -2.6709    -1.5492     0.3787 H       
  47 H47           -3.0681    -3.9022    -5.4142 H       
  48 H48           -4.2562    -5.4541    -6.9053 H       
  49 H49           -0.6463    -7.6402    -7.5426 H       
  50 H50            3.3035    -2.9437    -7.9908 H       
  51 H51            2.4375    -1.5303    -7.3408 H       
  52 H52            5.4594     0.2518    -6.1316 H       
  53 H53            3.6851     0.3190    -6.2649 H       
  54 H54            4.2832    -0.2709    -3.9647 H       
  55 H55            5.3113    -1.6077    -4.5420 H       
  56 H56            5.9438     0.8338    -7.8179 H       
  57 H57            6.8331    -0.6116    -8.3574 H       
  58 H58            2.6725    -0.5041    -8.8022 H       
  59 H59            3.5003     0.8970    -8.0792 H       
  60 H60            3.7796    -0.0780   -10.9590 H       
  61 H61            2.9237     1.3880   -10.4213 H       
  62 H62            7.0266     1.2820    -9.9827 H       
  63 H63            6.2298    -0.1413   -10.6971 H       
  64 H64            5.8871    -2.9537    -8.8762 H       
  65 H65            7.0149    -3.6324    -7.8321 H       
@<TRIPOS>BOND
   1    1    2 1
   2    1    6 1
   3    1   36 1
   4    1   37 1
   5    2    3 1
   6    2   15 1
   7    3    4 1
   8    3   38 1
   9    3   39 1
  10    4    5 1
  11    4    7 2
  12    5    6 1
  13    5    9 1
  14    6   40 1
  15    6   41 1
  16    7    8 1
  17    7   11 1
  18    8    9 2
  19    9   10 1
  20   10   16 ar
  21   10   20 ar
  22   11   12 2
  23   11   14 am
  24   13   14 1
  25   13   23 1
  26   13   42 1
  27   13   43 1
  28   14   26 1
  29   15   44 1
  30   15   45 1
  31   15   46 1
  32   16   17 ar
  33   16   47 1
  34   17   18 ar
  35   17   48 1
  36   18   19 ar
  37   18   22 1
  38   19   20 ar
  39   19   49 1
  40   20   21 1
  41   23   24 1
  42   23   50 1
  43   23   51 1
  44   24   25 1
  45   24   27 1
  46   24   28 1
  47   25   26 1
  48   25   52 1
  49   25   53 1
  50   26   54 1
  51   26   55 1
  52   27   34 2
  53   27   35 am
  54   28   29 1
  55   28   30 1
  56   29   33 1
  57   29   56 1
  58   29   57 1
  59   30   31 1
  60   30   58 1
  61   30   59 1
  62   31   32 1
  63   31   60 1
  64   31   61 1
  65   32   33 1
  66   33   62 1
  67   33   63 1
  68   35   64 1
  69   35   65 1

#	End of record

