#	Name: ASD03330200
#	Creating user name:	WinNT
#	Creation time:	15. 06. 2019 20:36

#	Modifying user name:	WinNT
#	Modification time:	15. 06. 2019 20:36

#	Program:	/corina/corina34_cracker 3.40 0067  02.08.2006

@<TRIPOS>MOLECULE
ASD03330200
  46   47    0    0    0
SMALL
NO_CHARGES


@<TRIPOS>ATOM
   1 C1             2.0704    -0.9419    -0.8108 C.ar    
   2 C2             1.0074    -0.5246    -0.0265 C.ar    
   3 C3             0.9866     0.7579     0.4969 C.ar    
   4 C4             2.0252     1.6274     0.2398 C.ar    
   5 C5             3.1003     1.2125    -0.5499 C.ar    
   6 C6             3.1153    -0.0821    -1.0748 C.ar    
   7 C7             4.2161     2.1392    -0.8297 C.2     
   8 C8             4.0122     3.5954    -0.7135 C.ar    
   9 C9             5.1069     4.4433    -0.5174 C.ar    
  10 C10            4.9121     5.8017    -0.4099 C.ar    
  11 Cl11          -0.3045    -1.6133     0.3013 Cl      
  12 C12            2.7243     4.1326    -0.8048 C.ar    
  13 C13            2.5386     5.4923    -0.6962 C.ar    
  14 C14            3.6293     6.3312    -0.4960 C.ar    
  15 O15            3.4417     7.6708    -0.3891 O.3     
  16 C16            4.5985     8.4693    -0.1317 C.3     
  17 C17            5.6122     8.2525    -1.2256 C.2     
  18 C18            4.2001     9.9460    -0.0911 C.3     
  19 C19            5.2063     8.0678     1.2137 C.3     
  20 O20            5.3689     7.4921    -2.1326 O.2     
  21 O21            6.7852     8.9040    -1.1924 O.3     
  22 C22            7.7134     8.6464    -2.2789 C.3     
  23 C23            7.4584     9.6403    -3.4138 C.3     
  24 C24            9.1483     8.8073    -1.7728 C.3     
  25 O25            5.3027     1.7016    -1.1558 O.2     
  26 H26            2.0828    -1.9443    -1.2126 H       
  27 H27            0.1549     1.0774     1.1073 H       
  28 H28            2.0075     2.6272     0.6478 H       
  29 H29            3.9438    -0.4087    -1.6858 H       
  30 H30            6.1036     4.0329    -0.4501 H       
  31 H31            5.7569     6.4573    -0.2582 H       
  32 H32            1.8766     3.4818    -0.9606 H       
  33 H33            1.5444     5.9080    -0.7666 H       
  34 H34            3.5205    10.1161     0.7439 H       
  35 H35            5.0920    10.5596     0.0356 H       
  36 H36            3.7040    10.2143    -1.0238 H       
  37 H37            5.3300     6.9854     1.2480 H       
  38 H38            6.1775     8.5484     1.3315 H       
  39 H39            4.5445     8.3836     2.0201 H       
  40 H40            7.5695     7.6304    -2.6465 H       
  41 H41            8.1552     9.4470    -4.2295 H       
  42 H42            6.4362     9.5258    -3.7743 H       
  43 H43            7.6023    10.6563    -3.0462 H       
  44 H44            9.3299     8.0992    -0.9643 H       
  45 H45            9.8450     8.6139    -2.5884 H       
  46 H46            9.2922     9.8233    -1.4052 H       
@<TRIPOS>BOND
   1    1    2 ar
   2    1    6 ar
   3    1   26 1
   4    2    3 ar
   5    2   11 1
   6    3    4 ar
   7    3   27 1
   8    4    5 ar
   9    4   28 1
  10    5    6 ar
  11    5    7 1
  12    6   29 1
  13    7    8 1
  14    7   25 2
  15    8    9 ar
  16    8   12 ar
  17    9   10 ar
  18    9   30 1
  19   10   14 ar
  20   10   31 1
  21   12   13 ar
  22   12   32 1
  23   13   14 ar
  24   13   33 1
  25   14   15 1
  26   15   16 1
  27   16   17 1
  28   16   18 1
  29   16   19 1
  30   17   20 2
  31   17   21 1
  32   18   34 1
  33   18   35 1
  34   18   36 1
  35   19   37 1
  36   19   38 1
  37   19   39 1
  38   21   22 1
  39   22   23 1
  40   22   24 1
  41   22   40 1
  42   23   41 1
  43   23   42 1
  44   23   43 1
  45   24   44 1
  46   24   45 1
  47   24   46 1

#	End of record

