#	Name: ASD03090222
#	Creating user name:	WinNT
#	Creation time:	15. 06. 2019 20:28

#	Modifying user name:	WinNT
#	Modification time:	15. 06. 2019 20:28

#	Program:	/corina/corina34_cracker 3.40 0067  02.08.2006

@<TRIPOS>MOLECULE
ASD03090222
  47   49    0    0    0
SMALL
NO_CHARGES


@<TRIPOS>ATOM
   1 N1            -0.9343     1.8900     1.9033 N.ar    
   2 C2            -0.8087     0.6180     2.2504 C.ar    
   3 C3             0.3797    -0.0649     2.0252 C.ar    
   4 C4             1.4440     0.6111     1.4256 C.ar    
   5 C5             1.2630     1.9554     1.0765 C.ar    
   6 C6             0.0510     2.5592     1.3347 C.ar    
   7 C7             2.7300    -0.0747     1.1661 C.2     
   8 N8             4.7667    -2.9128     0.7780 N.pl3   
   9 C9             3.9502    -4.0451     0.8401 C.ar    
  10 C10            2.6573    -3.9995     0.3344 C.ar    
  11 C11            1.8530    -5.1207     0.3970 C.ar    
  12 C12            2.3334    -6.2873     0.9628 C.ar    
  13 C13            3.6203    -6.3362     1.4673 C.ar    
  14 C14            4.4316    -5.2208     1.4028 C.ar    
  15 N15            2.9224    -1.3781     1.1429 N.2     
  16 C16            4.2032    -1.6393     0.8784 C.2     
  17 N17            4.8493    -0.5056     0.7284 N.2     
  18 N18            3.9125     0.5256     0.9053 N.pl3   
  19 C19            4.1681     1.9661     0.8305 C.3     
  20 C20            4.0359     2.4329    -0.6205 C.3     
  21 O21            4.2852     3.8381    -0.6935 O.3     
  22 N22           -1.8780    -0.0408     2.8470 N.pl3   
  23 C23           -1.8419    -1.4960     3.0120 C.3     
  24 C24           -3.0407     0.7204     3.3108 C.3     
  25 C25            4.1395    -7.6099     2.0830 C.3     
  26 F26            3.1456    -8.5930     2.0288 F       
  27 F27            5.2649    -8.0451     1.3751 F       
  28 F28            4.4899    -7.3741     3.4167 F       
  29 H29            0.4790    -1.1020     2.3098 H       
  30 H30            2.0630     2.5119     0.6112 H       
  31 H31           -0.0945     3.5954     1.0674 H       
  32 H32            5.7251    -3.0116     0.6650 H       
  33 H33            2.2813    -3.0884    -0.1070 H       
  34 H34            0.8477    -5.0860     0.0040 H       
  35 H35            1.7022    -7.1623     1.0111 H       
  36 H36            5.4364    -5.2596     1.7969 H       
  37 H37            3.4447     2.4962     1.4500 H       
  38 H38            5.1760     2.1754     1.1891 H       
  39 H39            4.7593     1.9029    -1.2401 H       
  40 H40            3.0281     2.2236    -0.9791 H       
  41 H41            4.2184     4.2035    -1.5863 H       
  42 H42           -0.9390    -1.8921     2.5471 H       
  43 H43           -1.8413    -1.7414     4.0740 H       
  44 H44           -2.7184    -1.9373     2.5376 H       
  45 H45           -3.7715     0.7939     2.5055 H       
  46 H46           -3.4902     0.2129     4.1643 H       
  47 H47           -2.7253     1.7206     3.6076 H       
@<TRIPOS>BOND
   1    1    2 ar
   2    1    6 ar
   3    2    3 ar
   4    2   22 1
   5    3    4 ar
   6    3   29 1
   7    4    5 ar
   8    4    7 1
   9    5    6 ar
  10    5   30 1
  11    6   31 1
  12    7   15 2
  13    7   18 1
  14    8    9 1
  15    8   16 1
  16    8   32 1
  17    9   10 ar
  18    9   14 ar
  19   10   11 ar
  20   10   33 1
  21   11   12 ar
  22   11   34 1
  23   12   13 ar
  24   12   35 1
  25   13   14 ar
  26   13   25 1
  27   14   36 1
  28   15   16 1
  29   16   17 2
  30   17   18 1
  31   18   19 1
  32   19   20 1
  33   19   37 1
  34   19   38 1
  35   20   21 1
  36   20   39 1
  37   20   40 1
  38   21   41 1
  39   22   23 1
  40   22   24 1
  41   23   42 1
  42   23   43 1
  43   23   44 1
  44   24   45 1
  45   24   46 1
  46   24   47 1
  47   25   26 1
  48   25   27 1
  49   25   28 1

#	End of record

