#	Name: ASD08150010
#	Creating user name:	WinNT
#	Creation time:	15. 06. 2019 21:15

#	Modifying user name:	WinNT
#	Modification time:	15. 06. 2019 21:15

#	Program:	/corina/corina34_cracker 3.40 0067  02.08.2006

@<TRIPOS>MOLECULE
ASD08150010
  42   46    0    0    0
SMALL
NO_CHARGES


@<TRIPOS>ATOM
   1 N1            -0.0155     1.2940     0.0092 N.2     
   2 C2             0.0021    -0.0041     0.0020 C.2     
   3 N3             1.1491    -0.7362    -0.0124 N.am    
   4 C4             2.3563    -0.1244    -0.0206 C.2     
   5 C5             2.3704     1.3456    -0.0133 C.ar    
   6 C6             3.5605     2.0706    -0.0204 C.ar    
   7 C7             3.5161     3.4495    -0.0126 C.ar    
   8 C8             2.2958     4.1168     0.0022 C.ar    
   9 C9             1.1103     3.4175     0.0098 C.ar    
  10 C10            1.1299     2.0211     0.0021 C.ar    
  11 O11            3.3904    -0.7665    -0.0332 O.2     
  12 C12           -1.3145    -0.7373     0.0106 C.3     
  13 S13           -2.6718     0.4599     0.0300 S.3     
  14 N14           -5.9165     1.0932     0.0643 N.2     
  15 C15           -7.2138     0.9887     0.0762 C.2     
  16 N16           -7.5749    -0.3259     0.0732 N.pl3   
  17 C17           -6.4217    -1.0690     0.0586 C.ar    
  18 N18           -6.1428    -2.3686     0.0492 N.ar    
  19 C19           -4.8946    -2.7872     0.0348 C.ar    
  20 N20           -3.8684    -1.9566     0.0285 N.ar    
  21 C21           -4.0491    -0.6390     0.0373 C.ar    
  22 C22           -5.3646    -0.1436     0.0530 C.ar    
  23 F23            4.6669     4.1572    -0.0189 F       
  24 C24            1.0797    -2.1354    -0.0184 C.ar    
  25 C25            1.0567    -2.8367     1.1814 C.ar    
  26 C26            0.9877    -4.2169     1.1715 C.ar    
  27 C27            0.9421    -4.8996    -0.0304 C.ar    
  28 C28            0.9648    -4.2042    -1.2252 C.ar    
  29 C29            1.0279    -2.8241    -1.2224 C.ar    
  30 Cl30           1.1151    -1.9801     2.6902 Cl      
  31 H31            4.5104     1.5569    -0.0315 H       
  32 H32            2.2782     5.1966     0.0081 H       
  33 H33            0.1688     3.9465     0.0220 H       
  34 H34           -1.3904    -1.3582    -0.8820 H       
  35 H35           -1.3734    -1.3678     0.8979 H       
  36 H36           -7.9025     1.8205     0.0868 H       
  37 H37           -8.4809    -0.6722     0.0802 H       
  38 H38           -4.7029    -3.8500     0.0278 H       
  39 H39            0.9698    -4.7629     2.1031 H       
  40 H40            0.8889    -5.9782    -0.0357 H       
  41 H41            0.9291    -4.7405    -2.1620 H       
  42 H42            1.0412    -2.2818    -2.1563 H       
@<TRIPOS>BOND
   1    1    2 2
   2    1   10 1
   3    2    3 1
   4    2   12 1
   5    3    4 am
   6    3   24 1
   7    4    5 1
   8    4   11 2
   9    5    6 ar
  10    5   10 ar
  11    6    7 ar
  12    6   31 1
  13    7    8 ar
  14    7   23 1
  15    8    9 ar
  16    8   32 1
  17    9   10 ar
  18    9   33 1
  19   12   13 1
  20   12   34 1
  21   12   35 1
  22   13   21 1
  23   14   15 2
  24   14   22 1
  25   15   16 1
  26   15   36 1
  27   16   17 1
  28   16   37 1
  29   17   18 ar
  30   17   22 ar
  31   18   19 ar
  32   19   20 ar
  33   19   38 1
  34   20   21 ar
  35   21   22 ar
  36   24   25 ar
  37   24   29 ar
  38   25   26 ar
  39   25   30 1
  40   26   27 ar
  41   26   39 1
  42   27   28 ar
  43   27   40 1
  44   28   29 ar
  45   28   41 1
  46   29   42 1

#	End of record

