#	Name: ASD01813976
#	Creating user name:	WinNT
#	Creation time:	15. 06. 2019 19:31

#	Modifying user name:	WinNT
#	Modification time:	15. 06. 2019 19:31

#	Program:	/corina/corina34_cracker 3.40 0067  02.08.2006

@<TRIPOS>MOLECULE
ASD01813976
  46   49    0    0    0
SMALL
NO_CHARGES


@<TRIPOS>ATOM
   1 C1            -1.0466    -0.2553     0.5937 C.ar    
   2 C2            -0.5028    -1.5292     0.5395 C.ar    
   3 C3             0.8500    -1.7110     0.3461 C.ar    
   4 C4             1.6875    -0.6089     0.2023 C.ar    
   5 C5             1.1365     0.6832     0.2567 C.ar    
   6 C6            -0.2360     0.8538     0.4537 C.ar    
   7 N7             3.0416    -0.7792     0.0090 N.pl3   
   8 C8             3.8890     0.2480    -0.1339 C.2     
   9 C9             3.4656     1.5610    -0.0984 C.2     
  10 C10            2.0344     1.8415     0.1030 C.2     
  11 F11           -0.7665     2.0951     0.5062 F       
  12 O12            1.6103     2.9833     0.1416 O.2     
  13 C13            4.4272     2.6608    -0.2583 C.2     
  14 O14            4.0012     3.9392    -0.2218 O.3     
  15 O15            5.6067     2.4176    -0.4236 O.2     
  16 C16            3.5768    -2.1421    -0.0417 C.3     
  17 C17            3.5561    -2.6372    -1.4649 C.ar    
  18 C18            4.6491    -2.4247    -2.2852 C.ar    
  19 C19            4.6334    -2.8771    -3.5899 C.ar    
  20 C20            3.5184    -3.5467    -4.0779 C.ar    
  21 C21            2.4225    -3.7588    -3.2511 C.ar    
  22 C22            2.4466    -3.3080    -1.9460 C.ar    
  23 N23            3.4991    -4.0058    -5.3991 N.am    
  24 C24            4.5499    -4.7071    -5.8657 C.2     
  25 C25            4.5336    -5.1717    -7.1976 C.2     
  26 C26            3.4368    -4.8833    -7.9603 C.2     
  27 C27            2.3949    -4.1448    -7.3762 C.2     
  28 N28            2.4778    -3.7525    -6.1347 N.2     
  29 O29            5.5066    -4.9381    -5.1436 O.2     
  30 C30            1.1701    -3.8083    -8.1871 C.3     
  31 H31           -2.1090    -0.1298     0.7417 H       
  32 H32           -1.1464    -2.3894     0.6503 H       
  33 H33            1.2601    -2.7093     0.3067 H       
  34 H34            4.9389     0.0419    -0.2815 H       
  35 H35            4.6707     4.6283    -0.3317 H       
  36 H36            4.6019    -2.1439     0.3288 H       
  37 H37            2.9647    -2.7961     0.5794 H       
  38 H38            5.5156    -1.9041    -1.9051 H       
  39 H39            5.4870    -2.7102    -4.2302 H       
  40 H40            1.5539    -4.2787    -3.6275 H       
  41 H41            1.5949    -3.4726    -1.3026 H       
  42 H42            5.3609    -5.7364    -7.6015 H       
  43 H43            3.3731    -5.2146    -8.9862 H       
  44 H44            0.4298    -4.6002    -8.0727 H       
  45 H45            0.7504    -2.8652    -7.8371 H       
  46 H46            1.4442    -3.7163    -9.2381 H       
@<TRIPOS>BOND
   1    1    2 ar
   2    1    6 ar
   3    1   31 1
   4    2    3 ar
   5    2   32 1
   6    3    4 ar
   7    3   33 1
   8    4    5 ar
   9    4    7 1
  10    5    6 ar
  11    5   10 1
  12    6   11 1
  13    7    8 1
  14    7   16 1
  15    8    9 2
  16    8   34 1
  17    9   10 1
  18    9   13 1
  19   10   12 2
  20   13   14 1
  21   13   15 2
  22   14   35 1
  23   16   17 1
  24   16   36 1
  25   16   37 1
  26   17   18 ar
  27   17   22 ar
  28   18   19 ar
  29   18   38 1
  30   19   20 ar
  31   19   39 1
  32   20   21 ar
  33   20   23 1
  34   21   22 ar
  35   21   40 1
  36   22   41 1
  37   23   24 am
  38   23   28 1
  39   24   25 1
  40   24   29 2
  41   25   26 2
  42   25   42 1
  43   26   27 1
  44   26   43 1
  45   27   28 2
  46   27   30 1
  47   30   44 1
  48   30   45 1
  49   30   46 1

#	End of record

