#	Name: ASD02039364
#	Creating user name:	WinNT
#	Creation time:	15. 06. 2019 20:18

#	Modifying user name:	WinNT
#	Modification time:	15. 06. 2019 20:18

#	Program:	/corina/corina34_cracker 3.40 0067  02.08.2006

@<TRIPOS>MOLECULE
ASD02039364
  47   49    0    0    0
SMALL
NO_CHARGES


@<TRIPOS>ATOM
   1 C1            -0.2213     0.8606     0.6470 C.ar    
   2 C2            -0.0819    -0.5180     0.5716 C.ar    
   3 C3            -1.2116    -1.3151     0.5748 C.ar    
   4 C4            -2.5908     0.5295     0.7332 C.ar    
   5 C5            -1.4965     1.3923     0.7291 C.ar    
   6 C6            -3.9632     1.0832     0.8206 C.ar    
   7 C7             0.9891     1.7584     0.6458 C.3     
   8 N8             1.4028     2.0184    -0.7353 N.am    
   9 C9             0.7586     3.0860    -1.5044 C.3     
  10 C10            2.3762     1.2755    -1.2984 C.2     
  11 C11            2.9465     0.1313    -0.5662 C.2     
  12 C12            3.8484    -0.7690    -1.0530 C.2     
  13 N13            2.6746    -0.2157     0.7178 N.2     
  14 C14            3.3625    -1.2783     1.0214 C.2     
  15 N15            4.1026    -1.6488    -0.0559 N.pl3   
  16 O16            2.7838     1.5496    -2.4111 O.2     
  17 C17            5.0119    -2.7953    -0.1264 C.3     
  18 C18           -4.2612     2.0737     1.7576 C.ar    
  19 C19            1.7863     4.1718    -1.8296 C.3     
  20 C20            0.1967     2.5095    -2.8054 C.3     
  21 N21           -2.4148    -0.7831     0.6478 N.ar    
  22 C22           -4.9619     0.6204    -0.0377 C.ar    
  23 C23           -6.2396     1.1415     0.0490 C.ar    
  24 C24           -6.5290     2.1193     0.9831 C.ar    
  25 C25           -5.5433     2.5859     1.8333 C.ar    
  26 F26           -4.6805    -0.3342    -0.9513 F       
  27 F27           -3.2994     2.5307     2.5891 F       
  28 H28            0.8998    -0.9641     0.5107 H       
  29 H29           -1.1065    -2.3884     0.5162 H       
  30 H30           -1.6410     2.4603     0.7986 H       
  31 H31            0.7428     2.7009     1.1348 H       
  32 H32            1.8029     1.2719     1.1834 H       
  33 H33           -0.0526     3.5175    -0.9179 H       
  34 H34            4.2774    -0.7783    -2.0441 H       
  35 H35            3.3495    -1.7822     1.9765 H       
  36 H36            4.4643    -3.6727    -0.4705 H       
  37 H37            5.8206    -2.5753    -0.8233 H       
  38 H38            5.4272    -2.9909     0.8622 H       
  39 H39            2.5326     3.7718    -2.5159 H       
  40 H40            1.2838     5.0204    -2.2936 H       
  41 H41            2.2746     4.4967    -0.9108 H       
  42 H42           -0.4509     1.6628    -2.5779 H       
  43 H43           -0.3775     3.2769    -3.3247 H       
  44 H44            1.0181     2.1782    -3.4407 H       
  45 H45           -7.0133     0.7843    -0.6145 H       
  46 H46           -7.5287     2.5232     1.0462 H       
  47 H47           -5.7763     3.3495     2.5607 H       
@<TRIPOS>BOND
   1    1    2 ar
   2    1    7 1
   3    1    5 ar
   4    2    3 ar
   5    2   28 1
   6    3   21 ar
   7    3   29 1
   8    4    5 ar
   9    4    6 1
  10    4   21 ar
  11    5   30 1
  12    6   18 ar
  13    6   22 ar
  14    7    8 1
  15    7   31 1
  16    7   32 1
  17    8    9 1
  18    8   10 am
  19    9   20 1
  20    9   19 1
  21    9   33 1
  22   10   11 1
  23   10   16 2
  24   11   12 2
  25   11   13 1
  26   12   15 1
  27   12   34 1
  28   13   14 2
  29   14   15 1
  30   14   35 1
  31   15   17 1
  32   17   36 1
  33   17   37 1
  34   17   38 1
  35   18   27 1
  36   18   25 ar
  37   19   39 1
  38   19   40 1
  39   19   41 1
  40   20   42 1
  41   20   43 1
  42   20   44 1
  43   22   23 ar
  44   22   26 1
  45   23   24 ar
  46   23   45 1
  47   24   25 ar
  48   24   46 1
  49   25   47 1

#	End of record

