#	Name: ASD00731012
#	Creating user name:	WinNT
#	Creation time:	15. 06. 2019 18:37

#	Modifying user name:	WinNT
#	Modification time:	15. 06. 2019 18:37

#	Program:	/corina/corina34_cracker 3.40 0067  02.08.2006

@<TRIPOS>MOLECULE
ASD00731012
 233  235    0    0    0
SMALL
NO_CHARGES


@<TRIPOS>ATOM
   1 C1            -3.2520     8.8271     7.5026 C.2     
   2 O2            -3.0153     7.7065     7.9014 O.2     
   3 N3            -1.5305     9.5968     9.0352 N.3     
   4 C4            -2.3290     9.9641     7.8582 C.3     
   5 C5            -1.3971    10.2522     6.6794 C.3     
   6 C6            -0.5459    11.4846     6.9916 C.3     
   7 C7             0.3860    11.7727     5.8128 C.3     
   8 N8             1.2011    12.9527     6.1118 N.pl3   
   9 C9             2.1183    13.4050     5.1935 C.2     
  10 N10            2.3483    12.7191     4.1111 N.2     
  11 N11            2.7961    14.5876     5.4190 N.am    
  12 C12           -5.9564     8.2746     5.1060 C.2     
  13 O13           -5.7469     9.3277     4.5420 O.2     
  14 N14           -4.3375     9.0546     6.7369 N.am    
  15 C15           -5.2315     7.9483     6.3862 C.3     
  16 C16           -6.2491     7.7392     7.5094 C.3     
  17 O17           -7.0917     8.8891     7.6089 O.3     
  18 C18           -8.8399     6.9490     3.2918 C.2     
  19 O19           -9.1460     6.2118     4.2049 O.2     
  20 N20           -6.8375     7.3962     4.5877 N.am    
  21 C21           -7.5422     7.7135     3.3432 C.3     
  22 C22           -6.6706     7.3196     2.1489 C.3     
  23 C23           -5.4087     8.1844     2.1313 C.3     
  24 C24           -4.4796     7.7082     1.0128 C.3     
  25 C25           -5.7945     9.6446     1.8866 C.3     
  26 C26          -11.3403     6.1579     0.7451 C.2     
  27 O27          -10.6524     6.6039    -0.1486 O.2     
  28 N28           -9.6604     7.0846     2.2312 N.am    
  29 C29          -10.9219     6.3415     2.1812 C.3     
  30 C30          -12.0033     7.1214     2.9317 C.3     
  31 C31          -11.6383     7.2001     4.4155 C.3     
  32 C32          -12.7197     7.9800     5.1660 C.3     
  33 N33          -12.3702     8.0553     6.5867 N.pl3   
  34 C34          -13.1992     8.7128     7.4646 C.2     
  35 N35          -12.8883     8.7798     8.7286 N.2     
  36 N36          -14.3562     9.2995     7.0092 N.pl3   
  37 C37          -13.5067     6.4324    -1.5359 C.2     
  38 O38          -13.6783     7.4248    -0.8603 O.2     
  39 N39          -12.4788     5.4981     0.4540 N.am    
  40 C40          -12.8302     5.2240    -0.9415 C.3     
  41 C41          -13.7803     4.0262    -1.0024 C.3     
  42 C42          -13.0502     2.7832    -0.5631 C.2     
  43 O43          -11.8598     2.8276    -0.3353 O.2     
  44 N44          -13.7202     1.6221    -0.4233 N.am    
  45 C45          -15.7994     7.0177    -4.2293 C.2     
  46 O46          -15.9050     5.8268    -4.4330 O.2     
  47 N47          -13.9208     6.4102    -2.8183 N.am    
  48 C48          -14.6822     7.5376    -3.3617 C.3     
  49 C49          -13.7560     8.4223    -4.1987 C.3     
  50 C50          -13.0566     7.5692    -5.2588 C.3     
  51 C51          -14.0863     7.0765    -6.2776 C.3     
  52 C52          -12.7076     9.0668    -3.2896 C.3     
  53 C53          -18.1473     8.4919    -6.6120 C.2     
  54 O54          -17.7929     9.6314    -6.3955 O.2     
  55 N55          -16.6811     7.8762    -4.7789 N.am    
  56 C56          -17.7152     7.3805    -5.6906 C.3     
  57 C57          -18.9181     6.8929    -4.8805 C.3     
  58 C58          -19.3889     8.0082    -3.9449 C.3     
  59 C59          -20.6482     7.5546    -3.2038 C.3     
  60 C60          -18.5146     5.6702    -4.0540 C.3     
  61 C61          -20.8459     9.0340    -8.9199 C.2     
  62 O62          -21.3912     8.0148    -8.5527 O.2     
  63 N63          -18.9275     8.2196    -7.6767 N.am    
  64 C64          -19.4185     9.3099    -8.5230 C.3     
  65 C65          -18.5505     9.4113    -9.7789 C.3     
  66 C66          -17.1495     9.8081    -9.3905 C.2     
  67 C67          -16.0224     9.1413    -9.7046 C.2     
  68 N68          -14.9818     9.8432    -9.1584 N.pl3   
  69 C69          -15.5097    10.9151    -8.5291 C.2     
  70 N70          -16.8061    10.8903    -8.6764 N.2     
  71 C71          -22.9800     9.9436   -11.6184 C.2     
  72 O72          -22.0256    10.4018   -12.2101 O.2     
  73 N73          -21.5165     9.9199    -9.6828 N.am    
  74 C74          -22.8675     9.6056   -10.1541 C.3     
  75 C75          -23.8877    10.4255    -9.3617 C.3     
  76 C76          -23.8482    10.0119    -7.9131 C.2     
  77 C77          -24.6383     9.1029    -7.3204 C.2     
  78 N78          -24.3104     8.9921    -5.9965 N.pl3   
  79 C79          -23.2749     9.8489    -5.6974 C.ar    
  80 C80          -22.5715    10.1305    -4.5311 C.ar    
  81 C81          -21.5588    11.0647    -4.5513 C.ar    
  82 C82          -21.2322    11.7292    -5.7252 C.ar    
  83 C83          -21.9106    11.4683    -6.8824 C.ar    
  84 C84          -22.9360    10.5211    -6.8861 C.ar    
  85 C85          -24.5913    11.5250   -13.8479 C.2     
  86 O86          -24.7288    12.2198   -12.8689 O.2     
  87 N87          -24.1412     9.7366   -12.2706 N.am    
  88 C88          -24.2505    10.0652   -13.6941 C.3     
  89 C89          -25.3514     9.2146   -14.3307 C.3     
  90 C90          -24.9529     7.7619   -14.2863 C.2     
  91 O91          -23.8927     7.4388   -13.7939 O.2     
  92 N92          -25.7746     6.8219   -14.7937 N.am    
  93 O93          -24.7422    12.0536   -15.0725 O.3     
  94 C94            2.4785    15.3544     6.4809 C.2     
  95 O95            1.6708    14.9591     7.2943 O.2     
  96 C96            4.0186    30.8989    16.8340 C.3     
  97 C97            3.3599    29.5296    16.6548 C.3     
  98 C98            3.8913    28.8709    15.3802 C.3     
  99 C99            3.2326    27.5016    15.2010 C.3     
 100 C100           3.7640    26.8429    13.9264 C.3     
 101 C101           3.1053    25.4737    13.7472 C.3     
 102 C102           3.6367    24.8150    12.4726 C.3     
 103 C103           2.9779    23.4457    12.2934 C.3     
 104 C104           3.5093    22.7870    11.0188 C.3     
 105 C105           2.8506    21.4177    10.8396 C.3     
 106 C106           3.3820    20.7590     9.5650 C.3     
 107 C107           2.7233    19.3898     9.3858 C.3     
 108 C108           3.2547    18.7310     8.1112 C.3     
 109 C109           2.5960    17.3618     7.9320 C.3     
 110 C110           3.1274    16.7031     6.6574 C.3     
 111 H111          -0.9753     8.7742     8.8532 H       
 112 H112          -0.9498    10.3665     9.3327 H       
 113 H113          -2.9178    10.8538     8.0817 H       
 114 H114          -0.7463     9.3939     6.5125 H       
 115 H115          -1.9905    10.4378     5.7841 H       
 116 H116          -1.1966    12.3429     7.1585 H       
 117 H117           0.0475    11.2990     7.8869 H       
 118 H118           1.0368    10.9144     5.6459 H       
 119 H119          -0.2074    11.9583     4.9175 H       
 120 H120           1.0935    13.4149     6.9578 H       
 121 H121           2.9403    13.0732     3.4292 H       
 122 H122           3.5005    14.8660     4.8130 H       
 123 H123          -4.5268     9.9509     6.4179 H       
 124 H124          -4.6473     7.0380     6.2511 H       
 125 H125          -6.8568     6.8613     7.2904 H       
 126 H126          -5.7236     7.5911     8.4529 H       
 127 H127          -7.7626     8.8262     8.3025 H       
 128 H128          -7.0050     6.5540     5.0388 H       
 129 H129          -7.7488     8.7830     3.3051 H       
 130 H130          -6.3904     6.2697     2.2342 H       
 131 H131          -7.2290     7.4727     1.2254 H       
 132 H132          -4.8966     8.0996     3.0898 H       
 133 H133          -4.9917     7.7930     0.0543 H       
 134 H134          -3.5805     8.3243     1.0003 H       
 135 H135          -4.2047     6.6679     1.1871 H       
 136 H136          -6.3065     9.7295     0.9282 H       
 137 H137          -6.4564     9.9840     2.6834 H       
 138 H138          -4.8954    10.2608     1.8741 H       
 139 H139          -9.4156     7.6742     1.5009 H       
 140 H140         -10.7875     5.3657     2.6481 H       
 141 H141         -12.0756     8.1286     2.5215 H       
 142 H142         -12.9613     6.6137     2.8196 H       
 143 H143         -11.5659     6.1928     4.8258 H       
 144 H144         -10.6803     7.7078     4.5276 H       
 145 H145         -12.7921     8.9872     4.7557 H       
 146 H146         -13.6777     7.4723     5.0539 H       
 147 H147         -11.5540     7.6414     6.9080 H       
 148 H148         -13.4732     9.2437     9.3480 H       
 149 H149         -14.5876     9.2496     6.0685 H       
 150 H150         -14.9411     9.7634     7.6286 H       
 151 H151         -13.0656     5.2047     1.1685 H       
 152 H152         -11.9256     4.9993    -1.5066 H       
 153 H153         -14.6291     4.2018    -0.3416 H       
 154 H154         -14.1363     3.8964    -2.0244 H       
 155 H155         -14.6723     1.5866    -0.6055 H       
 156 H156         -13.2503     0.8220    -0.1405 H       
 157 H157         -13.7148     5.6477    -3.3813 H       
 158 H158         -15.1005     8.1223    -2.5424 H       
 159 H159         -14.3414     9.2012    -4.6873 H       
 160 H160         -12.3009     8.1684    -5.7667 H       
 161 H161         -12.5806     6.7133    -4.7804 H       
 162 H162         -14.7048     7.9130    -6.6027 H       
 163 H163         -13.5707     6.6499    -7.1380 H       
 164 H164         -14.7168     6.3154    -5.8179 H       
 165 H165         -12.0408     8.2969    -2.9013 H       
 166 H166         -12.1298     9.7940    -3.8600 H       
 167 H167         -13.2054     9.5686    -2.4598 H       
 168 H168         -16.6311     8.8223    -4.5707 H       
 169 H169         -17.3151     6.5551    -6.2794 H       
 170 H170         -19.7272     6.6220    -5.5589 H       
 171 H171         -18.6035     8.2326    -3.2231 H       
 172 H172         -19.6124     8.9015    -4.5281 H       
 173 H173         -20.9399     8.3177    -2.4823 H       
 174 H174         -21.4563     7.4034    -3.9195 H       
 175 H175         -20.4455     6.6195    -2.6817 H       
 176 H176         -19.3716     5.3228    -3.4770 H       
 177 H177         -18.1793     4.8756    -4.7206 H       
 178 H178         -17.7056     5.9410    -3.3757 H       
 179 H179         -19.1638     7.3016    -7.8827 H       
 180 H180         -19.3698    10.2485    -7.9709 H       
 181 H181         -18.5279     8.4456   -10.2839 H       
 182 H182         -18.9681    10.1623   -10.4495 H       
 183 H183         -15.9529     8.2282   -10.2771 H       
 184 H184         -14.0410     9.6134    -9.2131 H       
 185 H185         -14.9511    11.6701    -7.9958 H       
 186 H186         -21.1046    10.7655    -9.9198 H       
 187 H187         -23.0646     8.5433   -10.0103 H       
 188 H188         -23.6450    11.4849    -9.4439 H       
 189 H189         -24.8858    10.2492    -9.7627 H       
 190 H190         -25.4176     8.5423    -7.8150 H       
 191 H191         -24.7430     8.3983    -5.3631 H       
 192 H192         -22.8184     9.6189    -3.6126 H       
 193 H193         -21.0140    11.2822    -3.6445 H       
 194 H194         -20.4357    12.4586    -5.7239 H       
 195 H195         -21.6511    11.9897    -7.7920 H       
 196 H196         -24.9045     9.3701   -11.7974 H       
 197 H197         -23.3010     9.8597   -14.1883 H       
 198 H198         -26.2818     9.3531   -13.7800 H       
 199 H199         -25.4936     9.5208   -15.3671 H       
 200 H200         -26.6226     7.0803   -15.1875 H       
 201 H201         -25.5181     5.8868   -14.7652 H       
 202 H202         -24.9606    12.9943   -15.1208 H       
 203 H203           3.6400    31.3682    17.7420 H       
 204 H204           5.0987    30.7750    16.9122 H       
 205 H205           3.7864    31.5289    15.9754 H       
 206 H206           3.5921    28.8995    17.5133 H       
 207 H207           2.2798    29.6535    16.5766 H       
 208 H208           3.6591    29.5010    14.5216 H       
 209 H209           4.9714    28.7470    15.4584 H       
 210 H210           3.4648    26.8716    16.0596 H       
 211 H211           2.1525    27.6255    15.1228 H       
 212 H212           3.5318    27.4730    13.0678 H       
 213 H213           4.8441    26.7190    14.0046 H       
 214 H214           3.3375    24.8436    14.6058 H       
 215 H215           2.0251    25.5976    13.6690 H       
 216 H216           3.4044    25.4450    11.6140 H       
 217 H217           4.7168    24.6911    12.5508 H       
 218 H218           3.2102    22.8156    13.1520 H       
 219 H219           1.8978    23.5696    12.2152 H       
 220 H220           3.2771    23.4171    10.1602 H       
 221 H221           4.5895    22.6631    11.0970 H       
 222 H222           3.0828    20.7876    11.6982 H       
 223 H223           1.7705    21.5416    10.7614 H       
 224 H224           3.1498    21.3891     8.7064 H       
 225 H225           4.4621    20.6351     9.6432 H       
 226 H226           2.9555    18.7597    10.2444 H       
 227 H227           1.6432    19.5136     9.3076 H       
 228 H228           3.0225    19.3611     7.2526 H       
 229 H229           4.3348    18.6072     8.1894 H       
 230 H230           2.8282    16.7317     8.7906 H       
 231 H231           1.5159    17.4857     7.8538 H       
 232 H232           4.2075    16.5792     6.7356 H       
 233 H233           2.8951    17.3331     5.7988 H       
@<TRIPOS>BOND
   1    1    2 2
   2    1    4 1
   3    1   14 am
   4    3    4 1
   5    3  111 1
   6    3  112 1
   7    4    5 1
   8    4  113 1
   9    5    6 1
  10    5  114 1
  11    5  115 1
  12    6    7 1
  13    6  116 1
  14    6  117 1
  15    7    8 1
  16    7  118 1
  17    7  119 1
  18    8    9 1
  19    8  120 1
  20    9   10 2
  21    9   11 1
  22   10  121 1
  23   11   94 am
  24   11  122 1
  25   12   13 2
  26   12   15 1
  27   12   20 am
  28   14   15 1
  29   14  123 1
  30   15   16 1
  31   15  124 1
  32   16   17 1
  33   16  125 1
  34   16  126 1
  35   17  127 1
  36   18   19 2
  37   18   21 1
  38   18   28 am
  39   20   21 1
  40   20  128 1
  41   21   22 1
  42   21  129 1
  43   22   23 1
  44   22  130 1
  45   22  131 1
  46   23   24 1
  47   23   25 1
  48   23  132 1
  49   24  133 1
  50   24  134 1
  51   24  135 1
  52   25  136 1
  53   25  137 1
  54   25  138 1
  55   26   27 2
  56   26   29 1
  57   26   39 am
  58   28   29 1
  59   28  139 1
  60   29   30 1
  61   29  140 1
  62   30   31 1
  63   30  141 1
  64   30  142 1
  65   31   32 1
  66   31  143 1
  67   31  144 1
  68   32   33 1
  69   32  145 1
  70   32  146 1
  71   33   34 1
  72   33  147 1
  73   34   35 2
  74   34   36 1
  75   35  148 1
  76   36  149 1
  77   36  150 1
  78   37   38 2
  79   37   40 1
  80   37   47 am
  81   39   40 1
  82   39  151 1
  83   40   41 1
  84   40  152 1
  85   41   42 1
  86   41  153 1
  87   41  154 1
  88   42   43 2
  89   42   44 am
  90   44  155 1
  91   44  156 1
  92   45   46 2
  93   45   48 1
  94   45   55 am
  95   47   48 1
  96   47  157 1
  97   48   49 1
  98   48  158 1
  99   49   50 1
 100   49   52 1
 101   49  159 1
 102   50   51 1
 103   50  160 1
 104   50  161 1
 105   51  162 1
 106   51  163 1
 107   51  164 1
 108   52  165 1
 109   52  166 1
 110   52  167 1
 111   53   54 2
 112   53   56 1
 113   53   63 am
 114   55   56 1
 115   55  168 1
 116   56   57 1
 117   56  169 1
 118   57   58 1
 119   57   60 1
 120   57  170 1
 121   58   59 1
 122   58  171 1
 123   58  172 1
 124   59  173 1
 125   59  174 1
 126   59  175 1
 127   60  176 1
 128   60  177 1
 129   60  178 1
 130   61   62 2
 131   61   64 1
 132   61   73 am
 133   63   64 1
 134   63  179 1
 135   64   65 1
 136   64  180 1
 137   65   66 1
 138   65  181 1
 139   65  182 1
 140   66   67 2
 141   66   70 1
 142   67   68 1
 143   67  183 1
 144   68   69 1
 145   68  184 1
 146   69   70 2
 147   69  185 1
 148   71   72 2
 149   71   74 1
 150   71   87 am
 151   73   74 1
 152   73  186 1
 153   74   75 1
 154   74  187 1
 155   75   76 1
 156   75  188 1
 157   75  189 1
 158   76   77 2
 159   76   84 1
 160   77   78 1
 161   77  190 1
 162   78   79 1
 163   78  191 1
 164   79   80 ar
 165   79   84 ar
 166   80   81 ar
 167   80  192 1
 168   81   82 ar
 169   81  193 1
 170   82   83 ar
 171   82  194 1
 172   83   84 ar
 173   83  195 1
 174   85   86 2
 175   85   88 1
 176   85   93 1
 177   87   88 1
 178   87  196 1
 179   88   89 1
 180   88  197 1
 181   89   90 1
 182   89  198 1
 183   89  199 1
 184   90   91 2
 185   90   92 am
 186   92  200 1
 187   92  201 1
 188   93  202 1
 189   94   95 2
 190   94  110 1
 191   96   97 1
 192   96  203 1
 193   96  204 1
 194   96  205 1
 195   97   98 1
 196   97  206 1
 197   97  207 1
 198   98   99 1
 199   98  208 1
 200   98  209 1
 201   99  100 1
 202   99  210 1
 203   99  211 1
 204  100  101 1
 205  100  212 1
 206  100  213 1
 207  101  102 1
 208  101  214 1
 209  101  215 1
 210  102  103 1
 211  102  216 1
 212  102  217 1
 213  103  104 1
 214  103  218 1
 215  103  219 1
 216  104  105 1
 217  104  220 1
 218  104  221 1
 219  105  106 1
 220  105  222 1
 221  105  223 1
 222  106  107 1
 223  106  224 1
 224  106  225 1
 225  107  108 1
 226  107  226 1
 227  107  227 1
 228  108  109 1
 229  108  228 1
 230  108  229 1
 231  109  110 1
 232  109  230 1
 233  109  231 1
 234  110  232 1
 235  110  233 1

#	End of record

