#	Name: ASD03331089
#	Creating user name:	WinNT
#	Creation time:	15. 06. 2019 20:38

#	Modifying user name:	WinNT
#	Modification time:	15. 06. 2019 20:38

#	Program:	/corina/corina34_cracker 3.40 0067  02.08.2006

@<TRIPOS>MOLECULE
ASD03331089
  71   75    0    0    0
SMALL
NO_CHARGES


@<TRIPOS>ATOM
   1 N1            -0.5962     1.6987    -0.1675 N.pl3   
   2 C2            -0.4220     0.3536    -0.0690 C.2     
   3 C3             0.9011    -0.3516     0.0771 C.3     
   4 N4             1.6919     0.3184     1.1213 N.3     
   5 C5             2.4990     1.4038     0.5608 C.3     
   6 C6             1.7763     2.0769    -0.6025 C.3     
   7 C7             0.4695     2.7032    -0.1083 C.3     
   8 C8            -1.9331     1.9277    -0.3173 C.2     
   9 N9            -2.5606     0.7751    -0.2941 N.2     
  10 C10           -1.6561    -0.2169    -0.1392 C.2     
  11 C11           -1.9525    -1.6582    -0.0611 C.2     
  12 O12           -1.0474    -2.4584     0.0791 O.2     
  13 N13           -3.2266    -2.0897    -0.1451 N.am    
  14 C14           -2.5687     3.2531    -0.4783 C.ar    
  15 C15           -3.5237     3.4560    -1.4783 C.ar    
  16 C16           -4.1148     4.6963    -1.6240 C.ar    
  17 C17           -3.7621     5.7374    -0.7815 C.ar    
  18 C18           -2.8139     5.5413     0.2129 C.ar    
  19 C19           -2.2214     4.3040     0.3712 C.ar    
  20 F20           -2.4737     6.5614     1.0307 F       
  21 F21           -4.3427     6.9484    -0.9284 F       
  22 F22           -3.8680     2.4414    -2.3013 F       
  23 C23            2.5337    -0.6448     1.8436 C.3     
  24 C24           -4.8243    -3.8063    -0.7693 C.2     
  25 C25           -3.5213    -3.5227    -0.0675 C.3     
  26 C26           -3.6305    -3.9421     1.3999 C.3     
  27 C27           -4.0463    -5.4123     1.4804 C.3     
  28 O28           -5.7294    -3.0007    -0.7165 O.2     
  29 C29           -2.2752    -3.7571     2.0854 C.3     
  30 C30           -4.6791    -3.0763     2.1011 C.3     
  31 C31           -6.2158    -5.4256    -2.0971 C.3     
  32 N32           -4.9839    -4.9551    -1.4557 N.am    
  33 C33           -3.9588    -5.9737    -1.7044 C.3     
  34 C34           -4.5946    -7.0763    -2.5127 C.ar    
  35 C35           -4.0748    -8.2598    -3.0085 C.ar    
  36 C36           -4.8775    -9.1192    -3.7334 C.ar    
  37 C37           -6.2022    -8.7975    -3.9638 C.ar    
  38 C38           -6.7216    -7.6170    -3.4690 C.ar    
  39 C39           -5.9176    -6.7550    -2.7429 C.ar    
  40 H40            0.7310    -1.3906     0.3592 H       
  41 H41            1.4407    -0.3136    -0.8692 H       
  42 H42            2.6936     2.1433     1.3376 H       
  43 H43            3.4473     0.9991     0.2073 H       
  44 H44            2.4138     2.8540    -1.0242 H       
  45 H45            1.5552     1.3350    -1.3698 H       
  46 H46            0.2081     3.5497    -0.7433 H       
  47 H47            0.5939     3.0423     0.9200 H       
  48 H48           -3.9484    -1.4515    -0.2569 H       
  49 H49           -4.8530     4.8544    -2.3963 H       
  50 H50           -1.4869     4.1514     1.1482 H       
  51 H51            3.1670    -1.1774     1.1341 H       
  52 H52            3.1589    -0.1141     2.5616 H       
  53 H53            1.8997    -1.3576     2.3709 H       
  54 H54           -2.7202    -4.0848    -0.5474 H       
  55 H55           -3.2606    -6.0360     1.0541 H       
  56 H56           -4.2041    -5.6887     2.5229 H       
  57 H57           -4.9705    -5.5596     0.9216 H       
  58 H58           -1.9790    -2.7097     2.0280 H       
  59 H59           -2.3530    -4.0560     3.1307 H       
  60 H60           -1.5281    -4.3739     1.5858 H       
  61 H61           -5.6446    -3.2081     1.6127 H       
  62 H62           -4.7569    -3.3752     3.1464 H       
  63 H63           -4.3828    -2.0290     2.0437 H       
  64 H64           -6.9992    -5.5457    -1.3489 H       
  65 H65           -6.5342    -4.7099    -2.8551 H       
  66 H66           -3.1313    -5.5363    -2.2630 H       
  67 H67           -3.5963    -6.3721    -0.7568 H       
  68 H68           -3.0400    -8.5113    -2.8286 H       
  69 H69           -4.4703   -10.0418    -4.1201 H       
  70 H70           -6.8304    -9.4686    -4.5307 H       
  71 H71           -7.7563    -7.3657    -3.6494 H       
@<TRIPOS>BOND
   1    1    2 1
   2    1    7 1
   3    1    8 1
   4    2    3 1
   5    2   10 2
   6    3    4 1
   7    3   40 1
   8    3   41 1
   9    4    5 1
  10    4   23 1
  11    5    6 1
  12    5   42 1
  13    5   43 1
  14    6    7 1
  15    6   44 1
  16    6   45 1
  17    7   46 1
  18    7   47 1
  19    8    9 2
  20    8   14 1
  21    9   10 1
  22   10   11 1
  23   11   12 2
  24   11   13 am
  25   13   25 1
  26   13   48 1
  27   14   15 ar
  28   14   19 ar
  29   15   16 ar
  30   15   22 1
  31   16   17 ar
  32   16   49 1
  33   17   18 ar
  34   17   21 1
  35   18   19 ar
  36   18   20 1
  37   19   50 1
  38   23   51 1
  39   23   52 1
  40   23   53 1
  41   24   28 2
  42   24   32 am
  43   24   25 1
  44   25   26 1
  45   25   54 1
  46   26   27 1
  47   26   29 1
  48   26   30 1
  49   27   55 1
  50   27   56 1
  51   27   57 1
  52   29   58 1
  53   29   59 1
  54   29   60 1
  55   30   61 1
  56   30   62 1
  57   30   63 1
  58   31   32 1
  59   31   39 1
  60   31   64 1
  61   31   65 1
  62   32   33 1
  63   33   34 1
  64   33   66 1
  65   33   67 1
  66   34   35 ar
  67   34   39 ar
  68   35   36 ar
  69   35   68 1
  70   36   37 ar
  71   36   69 1
  72   37   38 ar
  73   37   70 1
  74   38   39 ar
  75   38   71 1

#	End of record

