#	Name: ASD03240419
#	Creating user name:	WinNT
#	Creation time:	15. 06. 2019 20:34

#	Modifying user name:	WinNT
#	Modification time:	15. 06. 2019 20:34

#	Program:	/corina/corina34_cracker 3.40 0067  02.08.2006

@<TRIPOS>MOLECULE
ASD03240419
  48   51    0    0    0
SMALL
NO_CHARGES


@<TRIPOS>ATOM
   1 C1            -0.0653     1.4692    -0.0590 C.ar    
   2 C2            -0.3959     0.5088     0.8787 C.ar    
   3 C3             2.5136     0.3907    -1.2826 C.ar    
   4 C4             2.1168     1.7111    -1.1725 C.ar    
   5 C5             1.2788     2.1479     0.0014 C.3     
   6 C6             3.2811    -0.0148    -2.3557 C.ar    
   7 C7             3.6560     0.9086    -3.3290 C.ar    
   8 C8             3.2541     2.2373    -3.2131 C.ar    
   9 C9             2.4867     2.6321    -2.1358 C.ar    
  10 C10            4.4820     0.4783    -4.4854 C.2     
  11 C11           -1.6277    -0.1154     0.8260 C.ar    
  12 C12           -2.5330     0.2220    -0.1686 C.ar    
  13 C13           -2.1990     1.1869    -1.1096 C.ar    
  14 C14           -0.9635     1.8041    -1.0557 C.ar    
  15 C15            4.9178     1.2732    -5.5050 C.2     
  16 N16            5.6340     0.5008    -6.3467 N.pl3   
  17 N17            5.6449    -0.8045    -5.8406 N.2     
  18 C18            4.9632    -0.8234    -4.7259 C.2     
  19 C19            1.0877     3.6665    -0.0433 C.3     
  20 C20            0.2880     4.1114     1.1834 C.3     
  21 N21            1.0074     3.7263     2.4043 N.3     
  22 C22            1.1613     2.2686     2.4925 C.3     
  23 C23            1.9863     1.7673     1.3049 C.3     
  24 Cl24          -3.3293     1.6125    -2.3567 Cl      
  25 O25           -3.7450    -0.3910    -0.2227 O.3     
  26 C26           -4.0200    -1.3739     0.7775 C.3     
  27 H27            0.3094     0.2458     1.6532 H       
  28 H28            2.2261    -0.3235    -0.5251 H       
  29 H29            3.5906    -1.0460    -2.4406 H       
  30 H30            3.5421     2.9572    -3.9649 H       
  31 H31            2.1742     3.6620    -2.0452 H       
  32 H32           -1.8850    -0.8659     1.5589 H       
  33 H33           -0.7028     2.5547    -1.7871 H       
  34 H34            4.7242     2.3297    -5.6176 H       
  35 H35            6.0667     0.7982    -7.1624 H       
  36 H36            4.7924    -1.6879    -4.1016 H       
  37 H37            2.0615     4.1561    -0.0400 H       
  38 H38            0.5459     3.9386    -0.9491 H       
  39 H39            0.1624     5.1939     1.1620 H       
  40 H40           -0.6909     3.6321     1.1721 H       
  41 H41            1.9028     4.1883     2.4573 H       
  42 H42            1.6700     2.0127     3.4219 H       
  43 H43            0.1783     1.7979     2.4751 H       
  44 H44            2.0866     0.6835     1.3631 H       
  45 H45            2.9745     2.2265     1.3286 H       
  46 H46           -5.0176    -1.7838     0.6195 H       
  47 H47           -3.2836    -2.1748     0.7121 H       
  48 H48           -3.9687    -0.9128     1.7638 H       
@<TRIPOS>BOND
   1    1    2 ar
   2    1    5 1
   3    1   14 ar
   4    2   11 ar
   5    2   27 1
   6    3    4 ar
   7    3    6 ar
   8    3   28 1
   9    4    5 1
  10    4    9 ar
  11    5   19 1
  12    5   23 1
  13    6    7 ar
  14    6   29 1
  15    7    8 ar
  16    7   10 1
  17    8    9 ar
  18    8   30 1
  19    9   31 1
  20   10   15 2
  21   10   18 1
  22   11   12 ar
  23   11   32 1
  24   12   13 ar
  25   12   25 1
  26   13   14 ar
  27   13   24 1
  28   14   33 1
  29   15   16 1
  30   15   34 1
  31   16   17 1
  32   16   35 1
  33   17   18 2
  34   18   36 1
  35   19   20 1
  36   19   37 1
  37   19   38 1
  38   20   21 1
  39   20   39 1
  40   20   40 1
  41   21   22 1
  42   21   41 1
  43   22   23 1
  44   22   42 1
  45   22   43 1
  46   23   44 1
  47   23   45 1
  48   25   26 1
  49   26   46 1
  50   26   47 1
  51   26   48 1

#	End of record

