#	Name: ASD01900124
#	Creating user name:	WinNT
#	Creation time:	15. 06. 2019 19:51

#	Modifying user name:	WinNT
#	Modification time:	15. 06. 2019 19:51

#	Program:	/corina/corina34_cracker 3.40 0067  02.08.2006

@<TRIPOS>MOLECULE
ASD01900124
  46   50    0    0    0
SMALL
NO_CHARGES


@<TRIPOS>ATOM
   1 C1            -0.0167     1.3776     0.0096 C.ar    
   2 C2             0.0021    -0.0041     0.0020 C.ar    
   3 C3             1.2220    -0.6632    -0.0132 C.ar    
   4 C4             2.3820     0.0958    -0.0203 C.ar    
   5 C5             2.2848     1.4746    -0.0119 C.ar    
   6 N6             1.1073     2.0676     0.0026 N.ar    
   7 N7             4.8188     3.9176    -1.5469 N.pl3   
   8 C8             4.9499     4.4700    -2.8266 C.ar    
   9 C9             5.5551     5.7092    -2.9892 C.ar    
  10 C10            5.6840     6.2543    -4.2514 C.ar    
  11 C11            5.2087     5.5632    -5.3580 C.ar    
  12 C12            4.6038     4.3239    -5.1955 C.ar    
  13 C13            4.4797     3.7763    -3.9338 C.ar    
  14 N14            5.3389     6.1161    -6.6376 N.am    
  15 S15            4.8413     5.4571    -8.0772 S.o2    
  16 S16            6.0178     7.5756    -7.0421 S.o2    
  17 C17            5.2771     6.6130    -9.3361 C.ar    
  18 C18            5.0804     6.5373   -10.7099 C.ar    
  19 C19            5.4998     7.5601   -11.5351 C.ar    
  20 C20            6.1203     8.6696   -10.9926 C.ar    
  21 C21            6.3163     8.7473    -9.6292 C.ar    
  22 C22            5.8916     7.7196    -8.7954 C.ar    
  23 O23            5.6443     4.3046    -8.2922 O.2     
  24 O24            3.4213     5.4223    -8.0355 O.2     
  25 O25            5.1742     8.5788    -6.4932 O.2     
  26 O26            7.4034     7.4722    -6.7445 O.2     
  27 C27            4.8452     1.6194    -0.4177 C.3     
  28 C28            3.5393     2.3097    -0.0190 C.3     
  29 C29            4.1802     2.6103    -1.3753 C.3     
  30 H30           -0.9627     1.8985     0.0169 H       
  31 H31           -0.9217    -0.5635     0.0082 H       
  32 H32            1.2673    -1.7423    -0.0191 H       
  33 H33            3.3495    -0.3842    -0.0318 H       
  34 H34            5.1508     4.4004    -0.7738 H       
  35 H35            5.9248     6.2467    -2.1285 H       
  36 H36            6.1541     7.2184    -4.3778 H       
  37 H37            4.2342     3.7863    -6.0562 H       
  38 H38            4.0093     2.8124    -3.8073 H       
  39 H39            4.5956     5.6707   -11.1348 H       
  40 H40            5.3442     7.4939   -12.6018 H       
  41 H41            6.4510     9.4731   -11.6340 H       
  42 H42            6.8016     9.6144    -9.2063 H       
  43 H43            5.7578     1.9403     0.0846 H       
  44 H44            4.7971     0.5613    -0.6750 H       
  45 H45            3.5926     3.0843     0.7460 H       
  46 H46            3.6946     2.2040    -2.2626 H       
@<TRIPOS>BOND
   1    1    2 ar
   2    1    6 ar
   3    1   30 1
   4    2    3 ar
   5    2   31 1
   6    3    4 ar
   7    3   32 1
   8    4    5 ar
   9    4   33 1
  10    5    6 ar
  11    5   28 1
  12    7    8 1
  13    7   29 1
  14    7   34 1
  15    8    9 ar
  16    8   13 ar
  17    9   10 ar
  18    9   35 1
  19   10   11 ar
  20   10   36 1
  21   11   12 ar
  22   11   14 1
  23   12   13 ar
  24   12   37 1
  25   13   38 1
  26   14   15 am
  27   14   16 am
  28   15   17 1
  29   15   23 2
  30   15   24 2
  31   16   22 1
  32   16   25 2
  33   16   26 2
  34   17   18 ar
  35   17   22 ar
  36   18   19 ar
  37   18   39 1
  38   19   20 ar
  39   19   40 1
  40   20   21 ar
  41   20   41 1
  42   21   22 ar
  43   21   42 1
  44   27   28 1
  45   27   29 1
  46   27   43 1
  47   27   44 1
  48   28   29 1
  49   28   45 1
  50   29   46 1

#	End of record

