#	Name: ASD03331259
#	Creating user name:	WinNT
#	Creation time:	15. 06. 2019 20:38

#	Modifying user name:	WinNT
#	Modification time:	15. 06. 2019 20:38

#	Program:	/corina/corina34_cracker 3.40 0067  02.08.2006

@<TRIPOS>MOLECULE
ASD03331259
  58   61    0    0    0
SMALL
NO_CHARGES


@<TRIPOS>ATOM
   1 N1            -0.1946     1.4011     0.4775 N.am    
   2 C2            -0.0921     0.0709     1.0967 C.3     
   3 C3             0.5132    -0.8967     0.0741 C.3     
   4 N4             1.7794    -0.3456    -0.4269 N.3     
   5 C5             1.5642     0.9202    -1.1407 C.3     
   6 C6             1.0020     1.9622    -0.1680 C.3     
   7 C7            -1.3556     2.0852     0.4963 C.2     
   8 O8            -2.3604     1.5654     0.9417 O.2     
   9 N9            -1.4028     3.3456     0.0213 N.am    
  10 C10           -2.6327     4.0022    -0.0996 C.ar    
  11 C11           -2.7106     5.3751     0.0943 C.ar    
  12 C12           -3.9259     6.0202    -0.0263 C.ar    
  13 C13           -5.0643     5.3005    -0.3397 C.ar    
  14 C14           -4.9900     3.9333    -0.5334 C.ar    
  15 C15           -3.7768     3.2831    -0.4195 C.ar    
  16 C16            2.4766    -1.3184    -1.2786 C.3     
  17 C17            3.6347    -0.6438    -1.9675 C.ar    
  18 C18            4.8798    -0.6250    -1.3669 C.ar    
  19 C19            5.9446    -0.0064    -1.9962 C.ar    
  20 C20            5.7665     0.5945    -3.2269 C.ar    
  21 C21            4.5179     0.5767    -3.8323 C.ar    
  22 C22            3.4527    -0.0495    -3.2014 C.ar    
  23 O23            4.3400     1.1676    -5.0430 O.3     
  24 C24            5.4344     1.6626    -5.6782 C.ar    
  25 C25            6.3142     0.8021    -6.3176 C.ar    
  26 C26            5.6698     3.0302    -5.6927 C.ar    
  27 C27            6.7827     3.5341    -6.3386 C.ar    
  28 C28            7.6633     2.6783    -6.9717 C.ar    
  29 C29            7.4297     1.3102    -6.9647 C.ar    
  30 O30            8.2966     0.4690    -7.5873 O.3     
  31 C31            9.4275     1.0615    -8.2292 C.3     
  32 H32            0.5508     0.1245     1.9753 H       
  33 H33           -1.0842    -0.2757     1.3861 H       
  34 H34            0.6987    -1.8596     0.5500 H       
  35 H35           -0.1801    -1.0286    -0.7566 H       
  36 H36            2.5119     1.2749    -1.5459 H       
  37 H37            0.8563     0.7630    -1.9545 H       
  38 H38            0.7332     2.8660    -0.7147 H       
  39 H39            1.7501     2.1976     0.5891 H       
  40 H40           -0.5843     3.7977    -0.2367 H       
  41 H41           -1.8219     5.9377     0.3394 H       
  42 H42           -3.9872     7.0878     0.1247 H       
  43 H43           -6.0134     5.8072    -0.4331 H       
  44 H44           -5.8809     3.3740    -0.7781 H       
  45 H45           -3.7187     2.2160    -0.5753 H       
  46 H46            2.8472    -2.1391    -0.6645 H       
  47 H47            1.7856    -1.7075    -2.0265 H       
  48 H48            5.0210    -1.0940    -0.4043 H       
  49 H49            6.9161     0.0072    -1.5246 H       
  50 H50            6.5982     1.0781    -3.7176 H       
  51 H51            2.4800    -0.0650    -3.6706 H       
  52 H52            6.1306    -0.2622    -6.3110 H       
  53 H53            4.9824     3.7012    -5.1990 H       
  54 H54            6.9642     4.5987    -6.3487 H       
  55 H55            8.5320     3.0747    -7.4764 H       
  56 H56           10.0364     0.2811    -8.6856 H       
  57 H57            9.0869     1.7536    -8.9993 H       
  58 H58           10.0218     1.6017    -7.4923 H       
@<TRIPOS>BOND
   1    1    2 1
   2    1    6 1
   3    1    7 am
   4    2    3 1
   5    2   32 1
   6    2   33 1
   7    3    4 1
   8    3   34 1
   9    3   35 1
  10    4    5 1
  11    4   16 1
  12    5    6 1
  13    5   36 1
  14    5   37 1
  15    6   38 1
  16    6   39 1
  17    7    8 2
  18    7    9 am
  19    9   10 1
  20    9   40 1
  21   10   11 ar
  22   10   15 ar
  23   11   12 ar
  24   11   41 1
  25   12   13 ar
  26   12   42 1
  27   13   14 ar
  28   13   43 1
  29   14   15 ar
  30   14   44 1
  31   15   45 1
  32   16   17 1
  33   16   46 1
  34   16   47 1
  35   17   18 ar
  36   17   22 ar
  37   18   19 ar
  38   18   48 1
  39   19   20 ar
  40   19   49 1
  41   20   21 ar
  42   20   50 1
  43   21   22 ar
  44   21   23 1
  45   22   51 1
  46   23   24 1
  47   24   25 ar
  48   24   26 ar
  49   25   29 ar
  50   25   52 1
  51   26   27 ar
  52   26   53 1
  53   27   28 ar
  54   27   54 1
  55   28   29 ar
  56   28   55 1
  57   29   30 1
  58   30   31 1
  59   31   56 1
  60   31   57 1
  61   31   58 1

#	End of record

