#	Name: ASD01880891
#	Creating user name:	WinNT
#	Creation time:	15. 06. 2019 19:41

#	Modifying user name:	WinNT
#	Modification time:	15. 06. 2019 19:41

#	Program:	/corina/corina34_cracker 3.40 0067  02.08.2006

@<TRIPOS>MOLECULE
ASD01880891
  45   47    0    0    0
SMALL
NO_CHARGES


@<TRIPOS>ATOM
   1 N1            -0.0156     1.3137     0.0069 N.ar    
   2 C2             0.0019    -0.0037     0.0069 C.ar    
   3 N3             1.1310    -0.6835    -0.0050 N.ar    
   4 C4             2.3009    -0.0553    -0.0176 C.ar    
   5 C5             2.3189     1.3387    -0.0180 C.ar    
   6 C6             1.1115     2.0107    -0.0052 C.ar    
   7 C7             3.6229     2.0941    -0.0315 C.3     
   8 O8             4.0759     2.2383    -1.3791 O.3     
   9 C9             5.2454     2.9002    -1.5684 C.ar    
  10 C10            5.7440     3.0762    -2.8556 C.ar    
  11 C11            6.9269     3.7463    -3.0458 C.ar    
  12 C12            7.6361     4.2546    -1.9524 C.ar    
  13 C13            7.1307     4.0754    -0.6618 C.ar    
  14 C14            5.9411     3.4067    -0.4771 C.ar    
  15 C15            7.7263     4.1022    -4.2745 C.3     
  16 N16            8.9077     4.8303    -3.7979 N.am    
  17 C17            8.8517     4.9159    -2.4578 C.2     
  18 O18            9.6855     5.4620    -1.7615 O.2     
  19 C19            7.8842     4.6171     0.5256 C.3     
  20 O20            3.4593    -0.7585    -0.0294 O.3     
  21 C21            3.3533    -2.1835    -0.0276 C.3     
  22 C22            9.6221     6.8070    -5.0482 C.3     
  23 C23            9.9733     5.3739    -4.6436 C.3     
  24 C24            1.0768     3.5173    -0.0055 C.3     
  25 F25            1.8153     4.0005    -1.0910 F       
  26 F26           -0.2483     3.9532    -0.1119 F       
  27 F27            1.6312     3.9967     1.1861 F       
  28 H28           -0.9347    -0.5414     0.0174 H       
  29 H29            3.4763     3.0799     0.4100 H       
  30 H30            4.3670     1.5447     0.5452 H       
  31 H31            5.2012     2.6858    -3.7038 H       
  32 H32            5.5509     3.2688     0.5205 H       
  33 H33            8.0306     3.1963    -4.7988 H       
  34 H34            7.1358     4.7374    -4.9347 H       
  35 H35            7.5519     5.6341     0.7337 H       
  36 H36            7.6936     3.9875     1.3948 H       
  37 H37            8.9521     4.6212     0.3072 H       
  38 H38            2.8233    -2.5073     0.8682 H       
  39 H39            2.8046    -2.5081    -0.9117 H       
  40 H40            4.3511    -2.6221    -0.0378 H       
  41 H41            8.6828     6.8086    -5.6013 H       
  42 H42            9.5184     7.4219    -4.1542 H       
  43 H43           10.4149     7.2115    -5.6775 H       
  44 H44           10.9126     5.3723    -4.0906 H       
  45 H45           10.0770     4.7590    -5.5376 H       
@<TRIPOS>BOND
   1    1    2 ar
   2    1    6 ar
   3    2    3 ar
   4    2   28 1
   5    3    4 ar
   6    4    5 ar
   7    4   20 1
   8    5    6 ar
   9    5    7 1
  10    6   24 1
  11    7    8 1
  12    7   29 1
  13    7   30 1
  14    8    9 1
  15    9   10 ar
  16    9   14 ar
  17   10   11 ar
  18   10   31 1
  19   11   12 ar
  20   11   15 1
  21   12   13 ar
  22   12   17 1
  23   13   14 ar
  24   13   19 1
  25   14   32 1
  26   15   16 1
  27   15   33 1
  28   15   34 1
  29   16   17 am
  30   16   23 1
  31   17   18 2
  32   19   35 1
  33   19   36 1
  34   19   37 1
  35   20   21 1
  36   21   38 1
  37   21   39 1
  38   21   40 1
  39   22   23 1
  40   22   41 1
  41   22   42 1
  42   22   43 1
  43   23   44 1
  44   23   45 1
  45   24   25 1
  46   24   26 1
  47   24   27 1

#	End of record

