#	Name: ASD00990048
#	Creating user name:	WinNT
#	Creation time:	15. 06. 2019 18:54

#	Modifying user name:	WinNT
#	Modification time:	15. 06. 2019 18:54

#	Program:	/corina/corina34_cracker 3.40 0067  02.08.2006

@<TRIPOS>MOLECULE
ASD00990048
  38   39    0    0    0
SMALL
NO_CHARGES


@<TRIPOS>ATOM
   1 C1            -0.0170     1.4006     0.0097 C.ar    
   2 C2             0.0021    -0.0041     0.0020 C.ar    
   3 C3            -1.1912    -0.7133     0.0100 C.ar    
   4 C4            -2.3914    -0.0362     0.0255 C.ar    
   5 C5            -2.4161     1.3523     0.0332 C.ar    
   6 C6            -1.2425     2.0721     0.0301 C.ar    
   7 N7             1.2764     1.8141    -0.0004 N.2     
   8 C8             2.0661     0.7802    -0.0135 C.2     
   9 N9             1.3346    -0.3667    -0.0127 N.pl3   
  10 C10            3.5716     0.8439    -0.0283 C.3     
  11 N11            4.0406     0.9923    -1.4082 N.am    
  12 C12            4.2228     2.3287    -1.9803 C.3     
  13 Br13          -4.0742     2.2612     0.0544 Br      
  14 O14            4.7353     0.0358    -3.4197 O.3     
  15 C15            4.9997    -1.1845    -4.1610 C.3     
  16 C16            3.7179    -2.0152    -4.2494 C.3     
  17 C17            5.4769    -0.8314    -5.5711 C.3     
  18 C18            6.0827    -1.9926    -3.4434 C.3     
  19 C19            4.3044    -0.1006    -2.1515 C.2     
  20 O20            4.1533    -1.2090    -1.6771 O.2     
  21 H21           -1.1790    -1.7933     0.0037 H       
  22 H22           -3.3191    -0.5891     0.0313 H       
  23 H23           -1.2690     3.1517     0.0362 H       
  24 H24            1.6842    -1.2715    -0.0206 H       
  25 H25            3.9050     1.6971     0.5625 H       
  26 H26            3.9783    -0.0736     0.3970 H       
  27 H27            5.2406     2.6694    -1.7906 H       
  28 H28            4.0467     2.2908    -3.0553 H       
  29 H29            3.5166     3.0200    -1.5205 H       
  30 H30            2.9463    -1.4395    -4.7606 H       
  31 H31            3.9163    -2.9313    -4.8058 H       
  32 H32            3.3779    -2.2668    -3.2448 H       
  33 H33            6.3901    -0.2396    -5.5081 H       
  34 H34            5.6753    -1.7475    -6.1275 H       
  35 H35            4.7054    -0.2557    -6.0823 H       
  36 H36            5.7426    -2.2441    -2.4388 H       
  37 H37            6.2811    -2.9087    -3.9998 H       
  38 H38            6.9958    -1.4008    -3.3804 H       
@<TRIPOS>BOND
   1    1    2 ar
   2    1    7 1
   3    1    6 ar
   4    2    3 ar
   5    2    9 1
   6    3    4 ar
   7    3   21 1
   8    4    5 ar
   9    4   22 1
  10    5    6 ar
  11    5   13 1
  12    6   23 1
  13    7    8 2
  14    8    9 1
  15    8   10 1
  16    9   24 1
  17   10   11 1
  18   10   25 1
  19   10   26 1
  20   11   12 1
  21   11   19 am
  22   12   27 1
  23   12   28 1
  24   12   29 1
  25   14   15 1
  26   14   19 1
  27   15   16 1
  28   15   17 1
  29   15   18 1
  30   16   30 1
  31   16   31 1
  32   16   32 1
  33   17   33 1
  34   17   34 1
  35   17   35 1
  36   18   36 1
  37   18   37 1
  38   18   38 1
  39   19   20 2

#	End of record

