#	Name: ASD00431107
#	Creating user name:	WinNT
#	Creation time:	15. 06. 2019 18:35

#	Modifying user name:	WinNT
#	Modification time:	15. 06. 2019 18:35

#	Program:	/corina/corina34_cracker 3.40 0067  02.08.2006

@<TRIPOS>MOLECULE
ASD00431107
  53   57    0    0    0
SMALL
NO_CHARGES


@<TRIPOS>ATOM
   1 C1            -3.2890     0.3701    -0.5629 C.2     
   2 N2            -2.1522     0.1450     0.1202 N.am    
   3 C3            -1.9260     1.1208     1.0182 C.2     
   4 C4            -3.0249     2.1055     0.9306 C.ar    
   5 C5            -3.3210     3.2867     1.5916 C.ar    
   6 C6            -4.4676     3.9912     1.2597 C.ar    
   7 C7            -5.3169     3.5234     0.2745 C.ar    
   8 C8            -5.0337     2.3433    -0.3952 C.ar    
   9 C9            -3.8910     1.6285    -0.0740 C.ar    
  10 O10           -3.7422    -0.3392    -1.4384 O.2     
  11 O11           -0.9779     1.1821     1.7747 O.2     
  12 C12           -1.2761    -1.0109    -0.0863 C.3     
  13 C13            0.1116    -0.5290    -0.5142 C.3     
  14 C14           -1.1630    -1.7912     1.1980 C.ar    
  15 C15           -2.2482    -1.8723     2.0524 C.ar    
  16 C16           -2.1515    -2.5854     3.2294 C.ar    
  17 C17           -0.9554    -3.2260     3.5575 C.ar    
  18 C18            0.1356    -3.1401     2.6909 C.ar    
  19 C19            0.0238    -2.4282     1.5146 C.ar    
  20 S20           -2.1164    -4.2011     6.0179 S.3     
  21 C21           -1.0680    -5.1491     6.9793 C.2     
  22 N22            0.0910    -5.2584     6.4081 N.2     
  23 C23            0.2482    -4.6526     5.2501 C.2     
  24 C24           -0.8445    -3.9913     4.8170 C.2     
  25 O25           -1.4003    -5.7062     8.1685 O.3     
  26 C26           -0.4906    -6.5188     8.7691 C.ar    
  27 C27            0.6028    -5.9712     9.4243 C.ar    
  28 C28            1.5268    -6.7968    10.0344 C.ar    
  29 C29            1.3618    -8.1734     9.9916 C.ar    
  30 C30            0.2686    -8.7210     9.3366 C.ar    
  31 C31           -0.6588    -7.8954     8.7318 C.ar    
  32 O32            2.2721    -8.9861    10.5915 O.3     
  33 C33            2.0395   -10.3935    10.5082 C.3     
  34 H34           -2.6612     3.6568     2.3625 H       
  35 H35           -4.6993     4.9118     1.7746 H       
  36 H36           -6.2075     4.0811     0.0251 H       
  37 H37           -5.7010     1.9824    -1.1638 H       
  38 H38           -1.6946    -1.6497    -0.8640 H       
  39 H39            0.5302     0.1098     0.2635 H       
  40 H40            0.7635    -1.3890    -0.6678 H       
  41 H41            0.0298     0.0354    -1.4430 H       
  42 H42           -3.1729    -1.3760     1.7976 H       
  43 H43           -2.9992    -2.6477     3.8957 H       
  44 H44            1.0640    -3.6331     2.9390 H       
  45 H45            0.8659    -2.3643     0.8413 H       
  46 H46            1.1737    -4.6822     4.6942 H       
  47 H47            0.7316    -4.8994     9.4570 H       
  48 H48            2.3780    -6.3705    10.5444 H       
  49 H49            0.1405    -9.7928     9.3031 H       
  50 H50           -1.5124    -8.3216     8.2256 H       
  51 H51            1.0828   -10.6319    10.9731 H       
  52 H52            2.0205   -10.6973     9.4615 H       
  53 H53            2.8377   -10.9250    11.0264 H       
@<TRIPOS>BOND
   1    1    2 am
   2    1    9 1
   3    1   10 2
   4    2    3 am
   5    2   12 1
   6    3    4 1
   7    3   11 2
   8    4    5 ar
   9    4    9 ar
  10    5    6 ar
  11    5   34 1
  12    6    7 ar
  13    6   35 1
  14    7    8 ar
  15    7   36 1
  16    8    9 ar
  17    8   37 1
  18   12   13 1
  19   12   14 1
  20   12   38 1
  21   13   39 1
  22   13   40 1
  23   13   41 1
  24   14   15 ar
  25   14   19 ar
  26   15   16 ar
  27   15   42 1
  28   16   17 ar
  29   16   43 1
  30   17   18 ar
  31   17   24 1
  32   18   19 ar
  33   18   44 1
  34   19   45 1
  35   20   21 1
  36   20   24 1
  37   21   22 2
  38   21   25 1
  39   22   23 1
  40   23   24 2
  41   23   46 1
  42   25   26 1
  43   26   27 ar
  44   26   31 ar
  45   27   28 ar
  46   27   47 1
  47   28   29 ar
  48   28   48 1
  49   29   30 ar
  50   29   32 1
  51   30   31 ar
  52   30   49 1
  53   31   50 1
  54   32   33 1
  55   33   51 1
  56   33   52 1
  57   33   53 1

#	End of record

