#	Name: ASD01883301
#	Creating user name:	WinNT
#	Creation time:	15. 06. 2019 19:46

#	Modifying user name:	WinNT
#	Modification time:	15. 06. 2019 19:46

#	Program:	/corina/corina34_cracker 3.40 0067  02.08.2006

@<TRIPOS>MOLECULE
ASD01883301
  72   74    0    0    0
SMALL
NO_CHARGES


@<TRIPOS>ATOM
   1 N1            -0.0162     1.3417     0.0094 N.am    
   2 C2             0.0021    -0.0041     0.0020 C.2     
   3 C3            -1.2166    -0.7275     0.0102 C.2     
   4 C4            -2.4257    -0.0118     0.0261 C.2     
   5 C5            -2.3786     1.3954     0.0332 C.2     
   6 C6            -1.1848     2.0319     0.0299 C.2     
   7 O7             1.0656    -0.6000    -0.0121 O.2     
   8 C8            -1.2158    -2.1595     0.0021 C.1     
   9 N9            -1.2152    -3.2954    -0.0044 N.1     
  10 C10            1.2511     2.0766     0.0013 C.3     
  11 C11            1.6785     2.3402    -1.4440 C.3     
  12 C12            3.0021     3.1077    -1.4525 C.3     
  13 C13            4.1048     2.2293    -0.8581 C.3     
  14 C14            3.3665     3.4800    -2.8911 C.3     
  15 C15           -3.7229    -0.7230     0.0347 C.ar    
  16 C16           -4.5720    -0.6188     1.1376 C.ar    
  17 C17           -5.7803    -1.2846     1.1392 C.ar    
  18 C18           -6.1508    -2.0546     0.0510 C.ar    
  19 C19           -5.3137    -2.1620    -1.0455 C.ar    
  20 C20           -4.1055    -1.4964    -1.0624 C.ar    
  21 C21           -7.4718    -2.7799     0.0602 C.3     
  22 C22           -8.3288    -2.2936    -1.1103 C.3     
  23 C23           -9.6744    -3.0288    -1.1054 C.3     
  24 C24          -10.4369    -2.6631    -2.3795 C.3     
  25 N25          -10.4817    -1.2162    -2.5496 N.am    
  26 C26           -9.6531    -0.3659    -1.9424 C.2     
  27 C27           -8.5965    -0.7935    -0.9646 C.3     
  28 O28           -9.7584     0.8160    -2.1933 O.2     
  29 C29          -11.5006    -0.6613    -3.4441 C.3     
  30 C30          -12.7729    -0.3662    -2.6472 C.3     
  31 C31          -13.8370     0.2133    -3.5814 C.3     
  32 C32          -14.2408    -0.8430    -4.6119 C.3     
  33 C33          -15.0637     0.6240    -2.7645 C.3     
  34 C34           -7.2378    -4.2272    -0.0711 C.1     
  35 N35           -7.0572    -5.3442    -0.1725 N.1     
  36 C36           -9.0538    -0.5084     0.4052 C.1     
  37 N37           -9.4067    -0.2883     1.4623 N.1     
  38 H38           -3.2952     1.9665     0.0453 H       
  39 H39           -1.1612     3.1116     0.0354 H       
  40 H40            1.1240     3.0260     0.5214 H       
  41 H41            2.0167     1.4862     0.5046 H       
  42 H42            1.8057     1.3908    -1.9642 H       
  43 H43            0.9129     2.9306    -1.9474 H       
  44 H44            2.8998     4.0150    -0.8572 H       
  45 H45            5.0477     2.7761    -0.8642 H       
  46 H46            3.8452     1.9641     0.1668 H       
  47 H47            4.2071     1.3220    -1.4534 H       
  48 H48            2.5809     4.1058    -3.3145 H       
  49 H49            4.3094     4.0268    -2.8971 H       
  50 H50            3.4688     2.5727    -3.4864 H       
  51 H51           -4.2836    -0.0187     1.9879 H       
  52 H52           -6.4382    -1.2049     1.9920 H       
  53 H53           -5.6088    -2.7647    -1.8917 H       
  54 H54           -3.4531    -1.5807    -1.9190 H       
  55 H55           -7.9899    -2.5792     0.9979 H       
  56 H56           -7.8096    -2.4847    -2.0495 H       
  57 H57           -9.5031    -4.1049    -1.0779 H       
  58 H58          -10.2535    -2.7259    -0.2330 H       
  59 H59           -9.9386    -3.1117    -3.2389 H       
  60 H60          -11.4539    -3.0498    -2.3143 H       
  61 H61           -7.6773    -0.2415    -1.1604 H       
  62 H62          -11.1290     0.2613    -3.8901 H       
  63 H63          -11.7238    -1.3813    -4.2315 H       
  64 H64          -13.1444    -1.2888    -2.2012 H       
  65 H65          -12.5496     0.3537    -1.8598 H       
  66 H66          -13.4334     1.0861    -4.0947 H       
  67 H67          -14.9988    -0.4302    -5.2775 H       
  68 H68          -13.3668    -1.1356    -5.1939 H       
  69 H69          -14.6443    -1.7158    -4.0986 H       
  70 H70          -14.7760     1.3766    -2.0303 H       
  71 H71          -15.8218     1.0369    -3.4301 H       
  72 H72          -15.4673    -0.2488    -2.2512 H       
@<TRIPOS>BOND
   1    1    2 am
   2    1   10 1
   3    1    6 1
   4    2    3 1
   5    2    7 2
   6    3    4 2
   7    3    8 1
   8    4    5 1
   9    4   15 1
  10    5    6 2
  11    5   38 1
  12    6   39 1
  13    8    9 3
  14   10   11 1
  15   10   40 1
  16   10   41 1
  17   11   12 1
  18   11   42 1
  19   11   43 1
  20   12   13 1
  21   12   14 1
  22   12   44 1
  23   13   45 1
  24   13   46 1
  25   13   47 1
  26   14   48 1
  27   14   49 1
  28   14   50 1
  29   15   16 ar
  30   15   20 ar
  31   16   17 ar
  32   16   51 1
  33   17   18 ar
  34   17   52 1
  35   18   19 ar
  36   18   21 1
  37   19   20 ar
  38   19   53 1
  39   20   54 1
  40   21   22 1
  41   21   34 1
  42   21   55 1
  43   22   23 1
  44   22   27 1
  45   22   56 1
  46   23   24 1
  47   23   57 1
  48   23   58 1
  49   24   25 1
  50   24   59 1
  51   24   60 1
  52   25   26 am
  53   25   29 1
  54   26   27 1
  55   26   28 2
  56   27   36 1
  57   27   61 1
  58   29   30 1
  59   29   62 1
  60   29   63 1
  61   30   31 1
  62   30   64 1
  63   30   65 1
  64   31   32 1
  65   31   33 1
  66   31   66 1
  67   32   67 1
  68   32   68 1
  69   32   69 1
  70   33   70 1
  71   33   71 1
  72   33   72 1
  73   34   35 3
  74   36   37 3

#	End of record

