#	Name: ASD05062006
#	Creating user name:	WinNT
#	Creation time:	15. 06. 2019 20:56

#	Modifying user name:	WinNT
#	Modification time:	15. 06. 2019 20:56

#	Program:	/corina/corina34_cracker 3.40 0067  02.08.2006

@<TRIPOS>MOLECULE
ASD05062006
  52   54    0    0    0
SMALL
NO_CHARGES


@<TRIPOS>ATOM
   1 C1            -0.0168     1.3845     0.0097 C.ar    
   2 C2             0.0021    -0.0041     0.0020 C.ar    
   3 C3            -1.1740    -0.7226     0.0094 C.ar    
   4 C4            -2.3940    -0.0554     0.0251 C.ar    
   5 C5            -2.4142     1.3505     0.0333 C.ar    
   6 C6            -1.2149     2.0651     0.0305 C.ar    
   7 N7            -3.5837    -0.7555     0.0322 N.am    
   8 C8            -4.7668    -0.1186     0.0464 C.2     
   9 C9            -4.8532     1.2852     0.0553 C.2     
  10 C10           -3.7126     2.0432     0.0499 C.2     
  11 C11           -3.7840     3.5213     0.0600 C.ar    
  12 C12           -6.2026     1.9560     0.0708 C.3     
  13 C13           -6.9792     1.5505    -1.1554 C.2     
  14 O14           -5.7939    -0.7759     0.0515 O.2     
  15 O15           -6.4875     0.7945    -1.9594 O.2     
  16 O16           -8.2173     2.0294    -1.3544 O.3     
  17 Cl17           1.4776     2.2680     0.0001 Cl      
  18 C18           -3.2985     4.2388     1.1541 C.ar    
  19 C19           -3.3680     5.6166     1.1573 C.ar    
  20 C20           -3.9179     6.2871     0.0791 C.ar    
  21 C21           -4.4010     5.5816    -1.0087 C.ar    
  22 C22           -4.3318     4.2038    -1.0270 C.ar    
  23 C23           -3.5559    -2.2202     0.0235 C.3     
  24 C24           -3.5327    -2.7384     1.4629 C.3     
  25 C25           -3.5036    -4.2681     1.4539 C.3     
  26 C26           -6.9696     1.5299     1.3242 C.3     
  27 C27           -8.2863     2.3050     1.4045 C.3     
  28 C28           -9.0533     1.8790     2.6579 C.3     
  29 H29            0.9475    -0.5260    -0.0102 H       
  30 H30           -1.1482    -1.8023     0.0026 H       
  31 H31           -1.2261     3.1450     0.0368 H       
  32 H32           -6.0704     3.0379     0.0759 H       
  33 H33           -8.6761     1.7409    -2.1552 H       
  34 H34           -2.8696     3.7166     1.9966 H       
  35 H35           -2.9926     6.1731     2.0034 H       
  36 H36           -3.9706     7.3658     0.0868 H       
  37 H37           -4.8291     6.1108    -1.8472 H       
  38 H38           -4.7089     3.6543    -1.8768 H       
  39 H39           -4.4435    -2.5975    -0.4842 H       
  40 H40           -2.6640    -2.5636    -0.5007 H       
  41 H41           -2.6450    -2.3611     1.9706 H       
  42 H42           -4.4245    -2.3950     1.9871 H       
  43 H43           -4.3913    -4.6454     0.9461 H       
  44 H44           -2.6117    -4.6115     0.9297 H       
  45 H45           -3.4871    -4.6372     2.4793 H       
  46 H46           -7.1793     0.4614     1.2762 H       
  47 H47           -6.3682     1.7428     2.2081 H       
  48 H48           -8.0766     3.3736     1.4525 H       
  49 H49           -8.8877     2.0921     0.5207 H       
  50 H50           -9.2630     0.8104     2.6099 H       
  51 H51           -8.4519     2.0918     3.5418 H       
  52 H52           -9.9913     2.4311     2.7151 H       
@<TRIPOS>BOND
   1    1    2 ar
   2    1   17 1
   3    1    6 ar
   4    2    3 ar
   5    2   29 1
   6    3    4 ar
   7    3   30 1
   8    4    5 ar
   9    4    7 1
  10    5    6 ar
  11    5   10 1
  12    6   31 1
  13    7    8 am
  14    7   23 1
  15    8    9 1
  16    8   14 2
  17    9   10 2
  18    9   12 1
  19   10   11 1
  20   11   18 ar
  21   11   22 ar
  22   12   13 1
  23   12   26 1
  24   12   32 1
  25   13   15 2
  26   13   16 1
  27   16   33 1
  28   18   19 ar
  29   18   34 1
  30   19   20 ar
  31   19   35 1
  32   20   21 ar
  33   20   36 1
  34   21   22 ar
  35   21   37 1
  36   22   38 1
  37   23   24 1
  38   23   39 1
  39   23   40 1
  40   24   25 1
  41   24   41 1
  42   24   42 1
  43   25   43 1
  44   25   44 1
  45   25   45 1
  46   26   27 1
  47   26   46 1
  48   26   47 1
  49   27   28 1
  50   27   48 1
  51   27   49 1
  52   28   50 1
  53   28   51 1
  54   28   52 1

#	End of record

