#	Name: ASD04882179
#	Creating user name:	WinNT
#	Creation time:	15. 06. 2019 20:54

#	Modifying user name:	WinNT
#	Modification time:	15. 06. 2019 20:54

#	Program:	/corina/corina34_cracker 3.40 0067  02.08.2006

@<TRIPOS>MOLECULE
ASD04882179
  78   82    0    0    0
SMALL
NO_CHARGES


@<TRIPOS>ATOM
   1 C1            -0.0409     1.6389    -0.5251 C.2     
   2 C2            -0.0032     0.1737    -0.5662 C.2     
   3 N3             1.0476    -0.4883    -0.0428 N.am    
   4 C4             1.0302    -1.8874     0.0264 C.ar    
   5 C5             2.2169    -2.6100    -0.1252 C.ar    
   6 C6             2.2012    -3.9984    -0.0563 C.ar    
   7 C7             1.0169    -4.6668     0.1614 C.ar    
   8 C8            -0.1735    -3.9503     0.3139 C.ar    
   9 C9            -0.1596    -2.5541     0.2503 C.ar    
  10 N10            3.4166    -1.9384    -0.3460 N.3     
  11 C11            3.4088    -1.2614    -1.6503 C.3     
  12 C12            4.5606    -2.8545    -0.2382 C.3     
  13 C13            5.8607    -2.0650    -0.4079 C.3     
  14 N14            5.8530    -1.3879    -1.7122 N.3     
  15 C15            4.7090    -0.4718    -1.8200 C.3     
  16 C16            7.0563    -0.7142    -1.9336 C.ar    
  17 C17            7.8496    -1.0467    -3.0241 C.ar    
  18 C18            7.4596     0.2938    -1.0668 C.ar    
  19 C19            8.6498     0.9578    -1.2886 C.ar    
  20 C20            9.4400     0.6206    -2.3725 C.ar    
  21 C21            9.0391    -0.3785    -3.2401 C.ar    
  22 C22           -1.4420    -4.6665     0.5471 C.2     
  23 N23           -1.4536    -6.0126     0.6134 N.am    
  24 O24           -2.4771    -4.0424     0.6797 O.2     
  25 O25           -0.9210    -0.4448    -1.0729 O.2     
  26 C26           -1.0425     2.4298    -1.0111 C.2     
  27 O27            0.9051     2.4418     0.0046 O.3     
  28 C28            0.5328     3.7206    -0.1368 C.2     
  29 C29           -0.6655     3.7583    -0.7600 C.2     
  30 C30            7.4135    -2.1355    -3.9702 C.3     
  31 C31            1.3195     4.9199     0.3260 C.3     
  32 C32           -2.7132    -6.7238     0.8450 C.3     
  33 C33           -2.4499    -8.2307     0.8758 C.3     
  34 N34           -3.7267    -8.9487     0.9859 N.3     
  35 C35           -4.4503    -8.9310    -0.2875 C.3     
  36 C36           -4.5297    -8.4250     2.0933 C.3     
  37 C37           -5.6293    -9.4267     2.4593 C.3     
  38 S38           -6.7347    -9.6262     1.0296 S.o2    
  39 C39           -5.5378   -10.0098    -0.2842 C.3     
  40 O40           -7.5563   -10.7655     1.2444 O.2     
  41 O41           -7.3396    -8.3727     0.7430 O.2     
  42 H42            1.8160     0.0040     0.2860 H       
  43 H43            3.1197    -4.5542    -0.1742 H       
  44 H44            1.0079    -5.7455     0.2141 H       
  45 H45           -1.0778    -1.9978     0.3681 H       
  46 H46            3.3276    -2.0033    -2.4446 H       
  47 H47            2.5600    -0.5794    -1.7010 H       
  48 H48            4.5515    -3.3340     0.7406 H       
  49 H49            4.4925    -3.6145    -1.0165 H       
  50 H50            5.9420    -1.3230     0.3865 H       
  51 H51            6.7096    -2.7469    -0.3572 H       
  52 H52            4.7181     0.0077    -2.7988 H       
  53 H53            4.7771     0.2882    -1.0416 H       
  54 H54            6.8427     0.5581    -0.2206 H       
  55 H55            8.9639     1.7415    -0.6151 H       
  56 H56           10.3701     1.1420    -2.5441 H       
  57 H57            9.6585    -0.6394    -4.0855 H       
  58 H58           -0.6278    -6.5105     0.5077 H       
  59 H59           -1.9491     2.0974    -1.4949 H       
  60 H60           -1.2274     4.6441    -1.0170 H       
  61 H61            6.8133    -1.7026    -4.7705 H       
  62 H62            8.2920    -2.6201    -4.3963 H       
  63 H63            6.8197    -2.8715    -3.4282 H       
  64 H64            2.2449     4.5878     0.7966 H       
  65 H65            1.5539     5.5529    -0.5298 H       
  66 H66            0.7286     5.4862     1.0459 H       
  67 H67           -3.1378    -6.4096     1.7985 H       
  68 H68           -3.4134    -6.4937     0.0420 H       
  69 H69           -1.9428    -8.5297    -0.0415 H       
  70 H70           -1.8220    -8.4723     1.7334 H       
  71 H71           -4.9108    -7.9532    -0.4286 H       
  72 H72           -3.7529    -9.1225    -1.1029 H       
  73 H73           -3.8883    -8.2592     2.9588 H       
  74 H74           -4.9849    -7.4805     1.7953 H       
  75 H75           -5.1799   -10.3873     2.7109 H       
  76 H76           -6.1969    -9.0516     3.3109 H       
  77 H77           -6.0449   -10.0208    -1.2490 H       
  78 H78           -5.0863   -10.9836    -0.0946 H       
@<TRIPOS>BOND
   1    1    2 1
   2    1   27 1
   3    1   26 2
   4    2    3 am
   5    2   25 2
   6    3    4 1
   7    3   42 1
   8    4    5 ar
   9    4    9 ar
  10    5    6 ar
  11    5   10 1
  12    6    7 ar
  13    6   43 1
  14    7    8 ar
  15    7   44 1
  16    8    9 ar
  17    8   22 1
  18    9   45 1
  19   10   11 1
  20   10   12 1
  21   11   15 1
  22   11   46 1
  23   11   47 1
  24   12   13 1
  25   12   48 1
  26   12   49 1
  27   13   14 1
  28   13   50 1
  29   13   51 1
  30   14   15 1
  31   14   16 1
  32   15   52 1
  33   15   53 1
  34   16   17 ar
  35   16   18 ar
  36   17   30 1
  37   17   21 ar
  38   18   19 ar
  39   18   54 1
  40   19   20 ar
  41   19   55 1
  42   20   21 ar
  43   20   56 1
  44   21   57 1
  45   22   23 am
  46   22   24 2
  47   23   32 1
  48   23   58 1
  49   26   29 1
  50   26   59 1
  51   27   28 1
  52   28   29 2
  53   28   31 1
  54   29   60 1
  55   30   61 1
  56   30   62 1
  57   30   63 1
  58   31   64 1
  59   31   65 1
  60   31   66 1
  61   32   33 1
  62   32   67 1
  63   32   68 1
  64   33   34 1
  65   33   69 1
  66   33   70 1
  67   34   35 1
  68   34   36 1
  69   35   39 1
  70   35   71 1
  71   35   72 1
  72   36   37 1
  73   36   73 1
  74   36   74 1
  75   37   38 1
  76   37   75 1
  77   37   76 1
  78   38   39 1
  79   38   40 2
  80   38   41 2
  81   39   77 1
  82   39   78 1

#	End of record

