#	Name: ASD04880168
#	Creating user name:	WinNT
#	Creation time:	15. 06. 2019 20:52

#	Modifying user name:	WinNT
#	Modification time:	15. 06. 2019 20:52

#	Program:	/corina/corina34_cracker 3.40 0067  02.08.2006

@<TRIPOS>MOLECULE
ASD04880168
  63   66    0    0    0
SMALL
NO_CHARGES


@<TRIPOS>ATOM
   1 C1            -0.0280     1.4424     0.1664 C.3     
   2 O2            -0.1415     0.2934    -0.6757 O.3     
   3 C3            -1.3386    -0.3477    -0.6859 C.ar    
   4 C4            -2.3838     0.1250     0.0955 C.ar    
   5 C5            -3.6006    -0.5224     0.0890 C.ar    
   6 C6            -3.7842    -1.6564    -0.7054 C.ar    
   7 C7            -2.7318    -2.1323    -1.4928 C.ar    
   8 C8            -1.5168    -1.4759    -1.4857 C.ar    
   9 O9            -0.4924    -1.9330    -2.2547 O.3     
  10 C10           -0.7453    -3.0936    -3.0491 C.3     
  11 C11           -5.0863    -2.3510    -0.7132 C.2     
  12 O12           -5.2446    -3.3382    -1.4053 O.2     
  13 N13           -6.0999    -1.8912     0.0469 N.am    
  14 C14           -7.3615    -2.4892    -0.0339 C.ar    
  15 C15           -7.4707    -3.8596    -0.2319 C.ar    
  16 C16           -8.7181    -4.4471    -0.3107 C.ar    
  17 C17           -9.8576    -3.6725    -0.1927 C.ar    
  18 C18           -9.7523    -2.3078     0.0040 C.ar    
  19 C19           -8.5079    -1.7149     0.0895 C.ar    
  20 C20          -11.2171    -4.3170    -0.2792 C.3     
  21 C21          -11.3722    -4.9996    -1.6397 C.3     
  22 C22          -11.3597    -5.3579     0.8329 C.3     
  23 C23          -12.2996    -3.2477    -0.1188 C.3     
  24 N24          -13.6212    -3.8742    -0.2029 N.am    
  25 C25          -14.7327    -3.1206    -0.0881 C.2     
  26 O26          -14.6386    -1.9210     0.0852 O.2     
  27 C27          -16.0648    -3.7521    -0.1729 C.ar    
  28 C28          -16.1842    -5.1336    -0.3666 C.ar    
  29 N29          -17.3595    -5.7139    -0.4451 N.ar    
  30 C30          -18.4905    -5.0247    -0.3450 C.ar    
  31 N31          -19.8127    -5.3860    -0.3923 N.pl3   
  32 H32          -20.1371    -6.2914    -0.5189 H       
  33 C33          -20.6084    -4.2826    -0.2348 C.2     
  34 C34          -19.8479    -3.1876    -0.0828 C.2     
  35 C35          -18.4525    -3.6287    -0.1486 C.ar    
  36 C36          -17.2236    -2.9799    -0.0551 C.ar    
  37 H37            0.9760     1.8580     0.0806 H       
  38 H38           -0.7585     2.1911    -0.1402 H       
  39 H39           -0.2149     1.1546     1.2009 H       
  40 H40           -2.2433     1.0017     0.7103 H       
  41 H41           -4.4121    -0.1529     0.6985 H       
  42 H42           -2.8698    -3.0089    -2.1084 H       
  43 H43           -1.0182    -3.9257    -2.4001 H       
  44 H44           -1.5625    -2.8893    -3.7410 H       
  45 H45            0.1517    -3.3510    -3.6122 H       
  46 H46           -5.9543    -1.1455     0.6499 H       
  47 H47           -6.5812    -4.4650    -0.3245 H       
  48 H48           -8.8038    -5.5126    -0.4651 H       
  49 H49          -10.6442    -1.7055     0.0951 H       
  50 H50           -8.4263    -0.6497     0.2480 H       
  51 H51          -10.6011    -5.7614    -1.7540 H       
  52 H52          -12.3555    -5.4658    -1.7023 H       
  53 H53          -11.2706    -4.2580    -2.4320 H       
  54 H54          -11.2492    -4.8716     1.8021 H       
  55 H55          -12.3431    -5.8241     0.7704 H       
  56 H56          -10.5886    -6.1197     0.7187 H       
  57 H57          -12.1890    -2.7613     0.8504 H       
  58 H58          -12.1979    -2.5061    -0.9112 H       
  59 H59          -13.6962    -4.8313    -0.3412 H       
  60 H60          -15.2910    -5.7344    -0.4536 H       
  61 H61          -21.6884    -4.2923    -0.2333 H       
  62 H62          -20.1973    -2.1758     0.0606 H       
  63 H63          -17.1679    -1.9125     0.0997 H       
@<TRIPOS>BOND
   1    1    2 1
   2    1   37 1
   3    1   38 1
   4    1   39 1
   5    2    3 1
   6    3    8 ar
   7    3    4 ar
   8    4    5 ar
   9    4   40 1
  10    5    6 ar
  11    5   41 1
  12    6    7 ar
  13    6   11 1
  14    7    8 ar
  15    7   42 1
  16    8    9 1
  17    9   10 1
  18   10   43 1
  19   10   44 1
  20   10   45 1
  21   11   12 2
  22   11   13 am
  23   13   14 1
  24   13   46 1
  25   14   19 ar
  26   14   15 ar
  27   15   16 ar
  28   15   47 1
  29   16   17 ar
  30   16   48 1
  31   17   18 ar
  32   17   20 1
  33   18   19 ar
  34   18   49 1
  35   19   50 1
  36   20   21 1
  37   20   22 1
  38   20   23 1
  39   21   51 1
  40   21   52 1
  41   21   53 1
  42   22   54 1
  43   22   55 1
  44   22   56 1
  45   23   24 1
  46   23   57 1
  47   23   58 1
  48   24   25 am
  49   24   59 1
  50   25   26 2
  51   25   27 1
  52   27   36 ar
  53   27   28 ar
  54   28   29 ar
  55   28   60 1
  56   29   30 ar
  57   30   35 ar
  58   30   31 1
  59   31   32 1
  60   31   33 1
  61   33   34 2
  62   33   61 1
  63   34   35 1
  64   34   62 1
  65   35   36 ar
  66   36   63 1

#	End of record

