#	Name: ASD03331732
#	Creating user name:	WinNT
#	Creation time:	15. 06. 2019 20:39

#	Modifying user name:	WinNT
#	Modification time:	15. 06. 2019 20:39

#	Program:	/corina/corina34_cracker 3.40 0067  02.08.2006

@<TRIPOS>MOLECULE
ASD03331732
  31   33    0    0    0
SMALL
NO_CHARGES


@<TRIPOS>ATOM
   1 C1            -0.0134     1.3660     0.0521 C.ar    
   2 C2             0.0107    -0.0155     0.0947 C.ar    
   3 C3             1.2196    -0.6859     0.0998 C.ar    
   4 C4             2.4044     0.0252     0.0617 C.ar    
   5 C5             2.3803     1.4067     0.0182 C.ar    
   6 C6             1.1715     2.0771     0.0145 C.ar    
   7 C7             3.6720     2.1819    -0.0228 C.3     
   8 C8             3.9578     2.6074    -1.4400 C.2     
   9 C9             3.2319     3.6213    -2.2086 C.ar    
  10 N10            4.8825     2.7566    -3.4533 N.pl3   
  11 C11            4.9305     2.1328    -2.2362 C.2     
  12 C12            2.1457     4.4538    -1.9332 C.ar    
  13 C13            1.6919     5.3163    -2.8914 C.ar    
  14 C14            2.3022     5.3709    -4.1367 C.ar    
  15 C15            3.3757     4.5580    -4.4296 C.ar    
  16 C16            3.8543     3.6732    -3.4694 C.ar    
  17 Br17           6.1808     0.8011    -1.7472 Br      
  18 N18            3.5569     3.3680     0.8293 N.pl3   
  19 O19            4.2510     3.4724     1.8247 O.2     
  20 O20            2.7671     4.2497     0.5424 O.2     
  21 H21           -0.9579     1.8896     0.0436 H       
  22 H22           -0.9150    -0.5710     0.1244 H       
  23 H23            1.2384    -1.7652     0.1338 H       
  24 H24            3.3489    -0.4985     0.0664 H       
  25 H25            1.1526     3.1564    -0.0191 H       
  26 H26            4.4852     1.5524     0.3386 H       
  27 H27            5.4846     2.5814    -4.1934 H       
  28 H28            1.6654     4.4163    -0.9666 H       
  29 H29            0.8516     5.9602    -2.6780 H       
  30 H30            1.9318     6.0571    -4.8839 H       
  31 H31            3.8440     4.6081    -5.4014 H       
@<TRIPOS>BOND
   1    1    2 ar
   2    1    6 ar
   3    1   21 1
   4    2    3 ar
   5    2   22 1
   6    3    4 ar
   7    3   23 1
   8    4    5 ar
   9    4   24 1
  10    5    6 ar
  11    5    7 1
  12    6   25 1
  13    7    8 1
  14    7   18 1
  15    7   26 1
  16    8    9 1
  17    8   11 2
  18    9   12 ar
  19    9   16 ar
  20   10   11 1
  21   10   16 1
  22   10   27 1
  23   11   17 1
  24   12   13 ar
  25   12   28 1
  26   13   14 ar
  27   13   29 1
  28   14   15 ar
  29   14   30 1
  30   15   16 ar
  31   15   31 1
  32   18   19 2
  33   18   20 2

#	End of record

