#	Name: ASD00431507
#	Creating user name:	WinNT
#	Creation time:	15. 06. 2019 18:35

#	Modifying user name:	WinNT
#	Modification time:	15. 06. 2019 18:35

#	Program:	/corina/corina34_cracker 3.40 0067  02.08.2006

@<TRIPOS>MOLECULE
ASD00431507
  25   26    0    0    0
SMALL
NO_CHARGES


@<TRIPOS>ATOM
   1 S1            -1.8393     1.4586     1.3435 S.3     
   2 C2            -1.3517    -0.1719     1.1851 C.2     
   3 N3            -1.2585    -0.7374     2.3539 N.2     
   4 C4            -1.5378    -0.0054     3.3994 C.2     
   5 C5            -1.8969     1.2846     3.0960 C.2     
   6 C6            -2.2477     2.2889     4.0198 C.2     
   7 O7            -2.5481     3.3983     3.6261 O.2     
   8 O8            -1.0988    -0.7889     0.0090 O.3     
   9 C9            -0.8239    -2.1195     0.0328 C.ar    
  10 C10           -1.8486    -3.0368     0.2102 C.ar    
  11 C11           -1.5649    -4.3934     0.2341 C.ar    
  12 C12           -0.2565    -4.8304     0.0805 C.ar    
  13 C13            0.7628    -3.9145    -0.0956 C.ar    
  14 C14            0.4818    -2.5618    -0.1260 C.ar    
  15 O15           -2.5669    -5.2947     0.4081 O.3     
  16 C16           -2.2017    -6.6762     0.4223 C.3     
  17 H17           -1.4909    -0.3812     4.4109 H       
  18 H18           -2.2495     2.0726     5.0779 H       
  19 H19           -2.8661    -2.6948     0.3299 H       
  20 H20           -0.0350    -5.8872     0.0990 H       
  21 H21            1.7803    -4.2566    -0.2145 H       
  22 H22            1.2797    -1.8481    -0.2689 H       
  23 H23           -3.0930    -7.2862     0.5684 H       
  24 H24           -1.7337    -6.9380    -0.5267 H       
  25 H25           -1.4995    -6.8580     1.2360 H       
@<TRIPOS>BOND
   1    1    2 1
   2    1    5 1
   3    2    3 2
   4    2    8 1
   5    3    4 1
   6    4    5 2
   7    4   17 1
   8    5    6 1
   9    6    7 2
  10    6   18 1
  11    8    9 1
  12    9   10 ar
  13    9   14 ar
  14   10   11 ar
  15   10   19 1
  16   11   12 ar
  17   11   15 1
  18   12   13 ar
  19   12   20 1
  20   13   14 ar
  21   13   21 1
  22   14   22 1
  23   15   16 1
  24   16   23 1
  25   16   24 1
  26   16   25 1

#	End of record

