#	Name: ASD04880504
#	Creating user name:	WinNT
#	Creation time:	15. 06. 2019 20:53

#	Modifying user name:	WinNT
#	Modification time:	15. 06. 2019 20:53

#	Program:	/corina/corina34_cracker 3.40 0067  02.08.2006

@<TRIPOS>MOLECULE
ASD04880504
  54   56    0    0    0
SMALL
NO_CHARGES


@<TRIPOS>ATOM
   1 C1            -0.0203     1.4014     0.2738 C.ar    
   2 C2            -0.0046     0.0124     0.2923 C.ar    
   3 C3             1.2022    -0.6733     0.2479 C.ar    
   4 C4             2.3905     0.0221     0.1858 C.ar    
   5 C5             2.3797     1.4192     0.1670 C.ar    
   6 C6             1.1627     2.1050     0.2114 C.ar    
   7 S7            -1.5556     2.2645     0.3230 S.o2    
   8 O8            -2.3061     1.6884     1.3832 O.2     
   9 O9            -1.2402     3.6485     0.2567 O.2     
  10 N10           -2.3666     1.9023    -1.0747 N.am    
  11 O11           -1.1734    -0.6772     0.3543 O.3     
  12 C12           -1.0851    -2.1034     0.3700 C.3     
  13 N13            5.0664     3.9139     0.0157 N.am    
  14 N14            3.7535     3.4516     0.0793 N.2     
  15 C15            3.6480     2.1675     0.1011 C.2     
  16 C16            5.0257     1.5467     0.0493 C.3     
  17 C17            5.9771     2.7582    -0.0085 C.3     
  18 C18            5.4409     5.2080    -0.0230 C.2     
  19 C19            4.4185     6.2703    -0.1253 C.ar    
  20 C20            4.7894     7.6122    -0.0217 C.ar    
  21 C21            3.8284     8.6001    -0.1187 C.ar    
  22 C22            2.4996     8.2599    -0.3178 C.ar    
  23 C23            2.1277     6.9318    -0.4205 C.ar    
  24 C24            3.0790     5.9363    -0.3315 C.ar    
  25 O25            6.6199     5.5015     0.0261 O.2     
  26 F26            4.1844     9.8995    -0.0188 F       
  27 C27           -3.2663     0.7471    -1.1211 C.3     
  28 C28           -4.6989     1.2048    -0.8396 C.3     
  29 C29           -2.1843     2.7370    -2.2647 C.3     
  30 C30           -1.1081     2.1202    -3.1604 C.3     
  31 H31            1.2096    -1.7532     0.2624 H       
  32 H32            3.3286    -0.5120     0.1520 H       
  33 H33            1.1495     3.1849     0.1968 H       
  34 H34           -0.5903    -2.4468    -0.5385 H       
  35 H35           -0.5104    -2.4223     1.2395 H       
  36 H36           -2.0874    -2.5289     0.4210 H       
  37 H37            5.2129     0.9560     0.9461 H       
  38 H38            5.1347     0.9320    -0.8442 H       
  39 H39            6.5574     2.7465    -0.9311 H       
  40 H40            6.6357     2.7705     0.8599 H       
  41 H41            5.8246     7.8773     0.1342 H       
  42 H42            1.7515     9.0352    -0.3927 H       
  43 H43            1.0906     6.6734    -0.5753 H       
  44 H44            2.7870     4.9000    -0.4169 H       
  45 H45           -3.2187     0.2890    -2.1090 H       
  46 H46           -2.9628     0.0196    -0.3682 H       
  47 H47           -4.7465     1.6629     0.1483 H       
  48 H48           -5.0024     1.9322    -1.5925 H       
  49 H49           -5.3683     0.3453    -0.8742 H       
  50 H50           -3.1238     2.7967    -2.8140 H       
  51 H51           -1.8757     3.7379    -1.9627 H       
  52 H52           -0.1685     2.0604    -2.6110 H       
  53 H53           -1.4166     1.1193    -3.4624 H       
  54 H54           -0.9724     2.7412    -4.0458 H       
@<TRIPOS>BOND
   1    1    2 ar
   2    1    6 ar
   3    1    7 1
   4    2    3 ar
   5    2   11 1
   6    3    4 ar
   7    3   31 1
   8    4    5 ar
   9    4   32 1
  10    5    6 ar
  11    5   15 1
  12    6   33 1
  13    7    8 2
  14    7    9 2
  15    7   10 am
  16   10   27 1
  17   10   29 1
  18   11   12 1
  19   12   34 1
  20   12   35 1
  21   12   36 1
  22   13   14 1
  23   13   17 1
  24   13   18 am
  25   14   15 2
  26   15   16 1
  27   16   17 1
  28   16   37 1
  29   16   38 1
  30   17   39 1
  31   17   40 1
  32   18   19 1
  33   18   25 2
  34   19   20 ar
  35   19   24 ar
  36   20   21 ar
  37   20   41 1
  38   21   22 ar
  39   21   26 1
  40   22   23 ar
  41   22   42 1
  42   23   24 ar
  43   23   43 1
  44   24   44 1
  45   27   28 1
  46   27   45 1
  47   27   46 1
  48   28   47 1
  49   28   48 1
  50   28   49 1
  51   29   30 1
  52   29   50 1
  53   29   51 1
  54   30   52 1
  55   30   53 1
  56   30   54 1

#	End of record

