#	Name: ASD04590502
#	Creating user name:	WinNT
#	Creation time:	15. 06. 2019 20:50

#	Modifying user name:	WinNT
#	Modification time:	15. 06. 2019 20:50

#	Program:	/corina/corina34_cracker 3.40 0067  02.08.2006

@<TRIPOS>MOLECULE
ASD04590502
  59   63    0    0    0
SMALL
NO_CHARGES


@<TRIPOS>ATOM
   1 C1            -0.0167     1.3832     0.0096 C.ar    
   2 C2             0.0021    -0.0041     0.0020 C.ar    
   3 C3             2.4020     0.0223    -0.0207 C.ar    
   4 C4             2.3769     1.4283    -0.0129 C.ar    
   5 C5             1.1624     2.0986     0.0022 C.ar    
   6 N6             3.7040    -0.3552    -0.0352 N.2     
   7 C7             4.4709     0.7083    -0.0368 C.2     
   8 N8             3.6969     1.8375    -0.0233 N.pl3   
   9 C9             5.9482     0.6906    -0.0514 C.2     
  10 C10            6.7657    -0.4631    -0.0664 C.2     
  11 C11            8.0578    -0.0540    -0.0774 C.2     
  12 N12            8.0646     1.3050    -0.0699 N.pl3   
  13 N13            6.7360     1.7480    -0.0586 N.2     
  14 N14            6.3187    -1.7945    -0.0688 N.am    
  15 C15            7.2107    -2.8047    -0.0838 C.2     
  16 O16            8.4029    -2.5633    -0.0952 O.2     
  17 C17            1.1969    -0.6870    -0.0130 C.ar    
  18 C18            6.7420    -4.2009    -0.0864 C.ar    
  19 C19            7.6607    -5.2613    -0.1019 C.ar    
  20 C20           -1.2962    -0.7693     0.0108 C.3     
  21 N21           -1.7317    -1.0105    -1.3713 N.3     
  22 C22           -2.8603    -1.9518    -1.4113 C.3     
  23 C23           -0.6175    -1.4976    -2.1974 C.3     
  24 C24           -1.0994    -1.6784    -3.6393 C.3     
  25 O25           -2.2160    -2.5719    -3.6550 O.3     
  26 C26           -3.3197    -2.1280    -2.8611 C.3     
  27 N27            7.2383    -6.5140    -0.1047 N.ar    
  28 C28            5.9492    -6.8138    -0.0926 C.ar    
  29 C29            4.9799    -5.8152    -0.0769 C.ar    
  30 C30            5.3702    -4.4922    -0.0675 C.ar    
  31 O31            8.9893    -4.9997    -0.1146 O.3     
  32 C32            9.8717    -6.1236    -0.1301 C.3     
  33 O33            5.5671    -8.1137    -0.0961 O.3     
  34 C34            6.6056    -9.0952    -0.1129 C.3     
  35 H35           -0.9614     1.9066     0.0169 H       
  36 H36            1.1403     3.1784     0.0079 H       
  37 H37            4.0156     2.7537    -0.0212 H       
  38 H38            8.9275    -0.6942    -0.0897 H       
  39 H39            8.8529     1.8702    -0.0748 H       
  40 H40            5.3681    -1.9869    -0.0597 H       
  41 H41            1.2037    -1.7669    -0.0185 H       
  42 H42           -1.1522    -1.7232     0.5181 H       
  43 H43           -2.0559    -0.1898     0.5353 H       
  44 H44           -2.5453    -2.9149    -1.0097 H       
  45 H45           -3.6831    -1.5591    -0.8140 H       
  46 H46            0.1968    -0.7734    -2.1739 H       
  47 H47           -0.2667    -2.4535    -1.8083 H       
  48 H48           -1.4000    -0.7130    -4.0463 H       
  49 H49           -0.2926    -2.0935    -4.2433 H       
  50 H50           -4.1186    -2.8683    -2.9023 H       
  51 H51           -3.6848    -1.1756    -3.2455 H       
  52 H52            3.9313    -6.0738    -0.0676 H       
  53 H53            4.6368    -3.6994    -0.0553 H       
  54 H54           10.9043    -5.7748    -0.1391 H       
  55 H55            9.7014    -6.7316     0.7585 H       
  56 H56            9.6825    -6.7219    -1.0214 H       
  57 H57            6.1639   -10.0916    -0.1140 H       
  58 H58            7.2131    -8.9661    -1.0087 H       
  59 H59            7.2321    -8.9764     0.7711 H       
@<TRIPOS>BOND
   1    1    2 ar
   2    1    5 ar
   3    1   35 1
   4    2   17 ar
   5    2   20 1
   6    3    4 ar
   7    3    6 1
   8    3   17 ar
   9    4    5 ar
  10    4    8 1
  11    5   36 1
  12    6    7 2
  13    7    8 1
  14    7    9 1
  15    8   37 1
  16    9   10 1
  17    9   13 2
  18   10   11 2
  19   10   14 1
  20   11   12 1
  21   11   38 1
  22   12   13 1
  23   12   39 1
  24   14   15 am
  25   14   40 1
  26   15   16 2
  27   15   18 1
  28   17   41 1
  29   18   19 ar
  30   18   30 ar
  31   19   27 ar
  32   19   31 1
  33   20   21 1
  34   20   42 1
  35   20   43 1
  36   21   22 1
  37   21   23 1
  38   22   26 1
  39   22   44 1
  40   22   45 1
  41   23   24 1
  42   23   46 1
  43   23   47 1
  44   24   25 1
  45   24   48 1
  46   24   49 1
  47   25   26 1
  48   26   50 1
  49   26   51 1
  50   27   28 ar
  51   28   29 ar
  52   28   33 1
  53   29   30 ar
  54   29   52 1
  55   30   53 1
  56   31   32 1
  57   32   54 1
  58   32   55 1
  59   32   56 1
  60   33   34 1
  61   34   57 1
  62   34   58 1
  63   34   59 1

#	End of record

