#	Name: ASD01882638
#	Creating user name:	WinNT
#	Creation time:	15. 06. 2019 19:44

#	Modifying user name:	WinNT
#	Modification time:	15. 06. 2019 19:44

#	Program:	/corina/corina34_cracker 3.40 0067  02.08.2006

@<TRIPOS>MOLECULE
ASD01882638
  49   53    0    0    0
SMALL
NO_CHARGES


@<TRIPOS>ATOM
   1 C1            -0.0332     1.3459    -0.1957 C.2     
   2 C2             0.0381    -0.0544    -0.1008 C.2     
   3 C3             1.2560    -0.6487     0.0891 C.2     
   4 C4             2.4148     0.1524     0.1860 C.2     
   5 C5             2.3233     1.4933     0.0922 C.2     
   6 N6             1.1137     2.0956    -0.0971 N.pl3   
   7 N7            -0.5759     3.3989    -0.3924 N.2     
   8 N8            -1.0320     2.1959    -0.3790 N.2     
   9 C9             0.7205     3.3953    -0.2264 C.2     
  10 C10           -1.2110    -0.8909    -0.2063 C.3     
  11 F11           -1.7119    -1.1448     1.0750 F       
  12 F12           -2.1717    -0.2021    -0.9545 F       
  13 F13           -0.9090    -2.1024    -0.8375 F       
  14 N14            1.3519    -2.0336     0.1866 N.pl3   
  15 C15            2.0582    -2.8155    -0.8395 C.3     
  16 C16            3.0685    -3.7330    -0.1426 C.3     
  17 N17            2.3773    -4.5303     0.8794 N.3     
  18 C18            1.8113    -3.6741     1.9304 C.3     
  19 C19            0.7548    -2.7536     1.3216 C.3     
  20 C20            3.2219    -5.4850     1.4188 C.ar    
  21 N21            2.7628    -6.2972     2.3596 N.ar    
  22 C22            3.5437    -7.2204     2.8958 C.ar    
  23 C23            4.8554    -7.3317     2.4619 C.ar    
  24 C24            5.3030    -6.4661     1.4762 C.ar    
  25 N25            4.4686    -5.5686     0.9781 N.ar    
  26 C26            1.6173     4.6058    -0.1872 C.3     
  27 C27            2.1013     4.9280    -1.6024 C.3     
  28 C28            2.9330     6.1981    -1.7925 C.3     
  29 C29            3.6031     4.8252    -1.8759 C.3     
  30 H30            3.3783    -0.3117     0.3362 H       
  31 H31            3.2155     2.0970     0.1679 H       
  32 H32            1.3420    -3.4174    -1.3987 H       
  33 H33            2.5824    -2.1415    -1.5171 H       
  34 H34            3.5228    -4.3981    -0.8770 H       
  35 H35            3.8431    -3.1289     0.3297 H       
  36 H36            1.3538    -4.2965     2.6994 H       
  37 H37            2.6034    -3.0708     2.3739 H       
  38 H38            0.4175    -2.0387     2.0722 H       
  39 H39           -0.0892    -3.3494     0.9741 H       
  40 H40            3.1639    -7.8794     3.6626 H       
  41 H41            5.5145    -8.0765     2.8830 H       
  42 H42            6.3195    -6.5263     1.1164 H       
  43 H43            1.0626     5.4562     0.2096 H       
  44 H44            2.4757     4.4015     0.4527 H       
  45 H45            1.4224     4.6459    -2.4071 H       
  46 H46            2.8015     6.7513    -2.7224 H       
  47 H47            3.1353     6.8041    -0.9094 H       
  48 H48            4.2463     4.5280    -1.0476 H       
  49 H49            3.9125     4.4751    -2.8607 H       
@<TRIPOS>BOND
   1    1    2 1
   2    1    6 1
   3    1    8 2
   4    2    3 2
   5    2   10 1
   6    3    4 1
   7    3   14 1
   8    4    5 2
   9    4   30 1
  10    5    6 1
  11    5   31 1
  12    6    9 1
  13    7    8 1
  14    7    9 2
  15    9   26 1
  16   10   11 1
  17   10   12 1
  18   10   13 1
  19   14   15 1
  20   14   19 1
  21   15   16 1
  22   15   32 1
  23   15   33 1
  24   16   17 1
  25   16   34 1
  26   16   35 1
  27   17   18 1
  28   17   20 1
  29   18   19 1
  30   18   36 1
  31   18   37 1
  32   19   38 1
  33   19   39 1
  34   20   21 ar
  35   20   25 ar
  36   21   22 ar
  37   22   23 ar
  38   22   40 1
  39   23   24 ar
  40   23   41 1
  41   24   25 ar
  42   24   42 1
  43   26   27 1
  44   26   43 1
  45   26   44 1
  46   27   28 1
  47   27   29 1
  48   27   45 1
  49   28   29 1
  50   28   46 1
  51   28   47 1
  52   29   48 1
  53   29   49 1

#	End of record

