#	Name: ASD06020095
#	Creating user name:	WinNT
#	Creation time:	15. 06. 2019 21:04

#	Modifying user name:	WinNT
#	Modification time:	15. 06. 2019 21:04

#	Program:	/corina/corina34_cracker 3.40 0067  02.08.2006

@<TRIPOS>MOLECULE
ASD06020095
  31   33    0    0    0
SMALL
NO_CHARGES


@<TRIPOS>ATOM
   1 C1            -0.0184     1.5028     0.0103 C.2     
   2 C2             0.0021    -0.0041     0.0020 C.3     
   3 O3             1.0236     2.1234     0.0037 O.2     
   4 N4            -1.1946     2.1607     0.0195 N.am    
   5 C5             1.3964    -0.4758    -0.0138 C.1     
   6 N6             2.4724    -0.8398    -0.0261 N.1     
   7 C7            -1.2135     3.5547     0.0271 C.ar    
   8 C8            -2.4357     4.2334     0.0366 C.ar    
   9 C9            -2.4480     5.6334     0.0443 C.ar    
  10 C10           -1.1911     6.2892     0.0414 C.ar    
  11 C11           -0.0498     5.5506     0.0316 C.ar    
  12 N12           -0.0761     4.2273     0.0308 N.ar    
  13 S13           -4.1014     3.6648     0.0420 S.3     
  14 C14           -4.6788     5.3263     0.0540 C.2     
  15 N15           -3.6790     6.1468     0.0533 N.2     
  16 C16           -6.1012     5.7269     0.0629 C.ar    
  17 C17           -6.4494     7.0796     0.0721 C.ar    
  18 C18           -7.7804     7.4466     0.0800 C.ar    
  19 C19           -8.7690     6.4786     0.0788 C.ar    
  20 C20           -8.4332     5.1373     0.0697 C.ar    
  21 C21           -7.1048     4.7543     0.0564 C.ar    
  22 F22           -6.7778     3.4435     0.0420 F       
  23 Cl23          -5.2114     8.2966     0.0742 Cl      
  24 H24           -0.4983    -0.3791     0.8948 H       
  25 H25           -0.5153    -0.3696    -0.8850 H       
  26 H26           -2.0280     1.6644     0.0207 H       
  27 H27           -1.1407     7.3680     0.0467 H       
  28 H28            0.9040     6.0572     0.0295 H       
  29 H29           -8.0506     8.4922     0.0874 H       
  30 H30           -9.8084     6.7721     0.0853 H       
  31 H31           -9.2103     4.3873     0.0689 H       
@<TRIPOS>BOND
   1    1    2 1
   2    1    3 2
   3    1    4 am
   4    2    5 1
   5    2   24 1
   6    2   25 1
   7    4    7 1
   8    4   26 1
   9    5    6 3
  10    7    8 ar
  11    7   12 ar
  12    8    9 ar
  13    8   13 1
  14    9   10 ar
  15    9   15 1
  16   10   11 ar
  17   10   27 1
  18   11   12 ar
  19   11   28 1
  20   13   14 1
  21   14   15 2
  22   14   16 1
  23   16   17 ar
  24   16   21 ar
  25   17   18 ar
  26   17   23 1
  27   18   19 ar
  28   18   29 1
  29   19   20 ar
  30   19   30 1
  31   20   21 ar
  32   20   31 1
  33   21   22 1

#	End of record

