#	Name: ASD06620041
#	Creating user name:	WinNT
#	Creation time:	15. 06. 2019 21:07

#	Modifying user name:	WinNT
#	Modification time:	15. 06. 2019 21:07

#	Program:	/corina/corina34_cracker 3.40 0067  02.08.2006

@<TRIPOS>MOLECULE
ASD06620041
  52   56    0    0    0
SMALL
NO_CHARGES


@<TRIPOS>ATOM
   1 C1            -0.0167     1.3797     0.0096 C.ar    
   2 C2             0.0021    -0.0041     0.0020 C.ar    
   3 C3             1.2349    -0.6673    -0.0134 C.ar    
   4 C4             2.3975     0.0930    -0.0204 C.ar    
   5 C5             2.2923     1.4695    -0.0120 C.ar    
   6 N6             1.1127     2.0628     0.0025 N.ar    
   7 C7            -0.3747    -2.1918    -0.0061 C.2     
   8 N8            -0.9810    -0.9888     0.0062 N.am    
   9 N9             0.9622    -2.0260    -0.0180 N.am    
  10 O10           -0.9476    -3.2652    -0.0058 O.2     
  11 C11           -2.4275    -0.7571     0.0217 C.3     
  12 C12           -3.7450    -1.2448    -3.3280 C.2     
  13 C13           -4.2657    -1.9150    -4.4479 C.2     
  14 C14           -4.5630    -1.2048    -5.5750 C.2     
  15 C15           -4.3447     0.1810    -5.5986 C.2     
  16 C16           -3.8429     0.8073    -4.5105 C.2     
  17 N17           -3.5440     0.1065    -3.3834 N.pl3   
  18 N18           -3.3699    -1.6826    -2.1264 N.2     
  19 C19           -2.9375    -0.6697    -1.3937 C.2     
  20 C20           -3.0307     0.4880    -2.1562 C.2     
  21 C21           -2.6712     1.7921    -1.7593 C.2     
  22 C22            1.9586    -3.0999    -0.0341 C.3     
  23 C23            1.9537    -4.0857     1.1359 C.3     
  24 C24            1.4535    -4.5293    -0.2403 C.3     
  25 C25           -1.8669     2.5483    -2.5553 C.2     
  26 C26           -1.5073     3.8529    -2.1583 C.2     
  27 O27           -1.9168     4.3031    -1.1027 O.2     
  28 Cl28          -5.2068    -2.0114    -6.9710 Cl      
  29 N29           -0.7108     4.6017    -2.9466 N.am    
  30 C30           -0.3373     5.9569    -2.5342 C.3     
  31 C31           -0.2186     4.0604    -4.2158 C.3     
  32 H32           -0.9610     1.9037     0.0169 H       
  33 H33            3.3663    -0.3842    -0.0319 H       
  34 H34            3.1894     2.0709    -0.0170 H       
  35 H35           -2.9220    -1.5813     0.5358 H       
  36 H36           -2.6404     0.1762     0.5429 H       
  37 H37           -4.4289    -2.9822    -4.4173 H       
  38 H38           -4.5780     0.7484    -6.4875 H       
  39 H39           -3.6769     1.8742    -4.5366 H       
  40 H40           -3.0341     2.1912    -0.8236 H       
  41 H41            2.9237    -2.8392    -0.4685 H       
  42 H42            2.9155    -4.4740     1.4710 H       
  43 H43            1.2091    -3.9353     1.9176 H       
  44 H44            0.3798    -4.6707    -0.3640 H       
  45 H45            2.0862    -5.2093    -0.8106 H       
  46 H46           -1.5040     2.1493    -3.4910 H       
  47 H47            0.5829     5.9187    -1.9513 H       
  48 H48           -0.1822     6.5759    -3.4179 H       
  49 H49           -1.1348     6.3846    -1.9265 H       
  50 H50           -0.9241     4.3006    -5.0112 H       
  51 H51            0.7520     4.4998    -4.4462 H       
  52 H52           -0.1174     2.9782    -4.1344 H       
@<TRIPOS>BOND
   1    1    2 ar
   2    1    6 ar
   3    1   32 1
   4    2    3 ar
   5    2    8 1
   6    3    4 ar
   7    3    9 1
   8    4    5 ar
   9    4   33 1
  10    5    6 ar
  11    5   34 1
  12    7    8 am
  13    7    9 am
  14    7   10 2
  15    8   11 1
  16    9   22 1
  17   11   19 1
  18   11   35 1
  19   11   36 1
  20   12   13 1
  21   12   17 1
  22   12   18 2
  23   13   14 2
  24   13   37 1
  25   14   15 1
  26   14   28 1
  27   15   16 2
  28   15   38 1
  29   16   17 1
  30   16   39 1
  31   17   20 1
  32   18   19 1
  33   19   20 2
  34   20   21 1
  35   21   25 2
  36   21   40 1
  37   22   23 1
  38   22   24 1
  39   22   41 1
  40   23   24 1
  41   23   42 1
  42   23   43 1
  43   24   44 1
  44   24   45 1
  45   25   26 1
  46   25   46 1
  47   26   27 2
  48   26   29 am
  49   29   30 1
  50   29   31 1
  51   30   47 1
  52   30   48 1
  53   30   49 1
  54   31   50 1
  55   31   51 1
  56   31   52 1

#	End of record

