#	Name: ASD01912663
#	Creating user name:	WinNT
#	Creation time:	15. 06. 2019 20:00

#	Modifying user name:	WinNT
#	Modification time:	15. 06. 2019 20:00

#	Program:	/corina/corina34_cracker 3.40 0067  02.08.2006

@<TRIPOS>MOLECULE
ASD01912663
  47   49    0    0    0
SMALL
NO_CHARGES


@<TRIPOS>ATOM
   1 C1            -0.2788     1.5475    -0.5761 C.2     
   2 N2            -0.2528     0.2075    -0.8644 N.pl3   
   3 C3            -1.4469    -0.4982    -0.8843 C.2     
   4 C4            -2.6045     0.0985    -0.6306 C.2     
   5 N5            -2.6847     1.4450    -0.3349 N.am    
   6 C6            -1.5609     2.1953    -0.2920 C.2     
   7 C7             1.0291     1.9915    -0.6249 C.2     
   8 C8             1.7849     0.8657    -0.9476 C.2     
   9 N9             0.9647    -0.1505    -1.0742 N.2     
  10 O10           -1.6147     3.3840    -0.0328 O.2     
  11 C11           -3.9865     2.0590    -0.0618 C.3     
  12 C12            3.2814     0.8232    -1.1208 C.3     
  13 O13            3.8234     2.1273    -0.9024 O.3     
  14 C14            5.1703     2.2634    -1.0211 C.ar    
  15 C15            5.7637     3.5016    -0.8223 C.ar    
  16 C16            7.1331     3.6374    -0.9436 C.ar    
  17 C17            7.9122     2.5406    -1.2628 C.ar    
  18 C18            7.3231     1.3056    -1.4618 C.ar    
  19 C19            5.9548     1.1633    -1.3356 C.ar    
  20 C20           -4.9425     1.7637    -1.2193 C.3     
  21 C21           -4.5606     1.4821     1.2337 C.3     
  22 C22           -3.5416     1.6502     2.3625 C.3     
  23 C23           -5.8491     2.2238     1.5952 C.3     
  24 C24           -4.8655    -0.0045     1.0390 C.3     
  25 H25           -1.4341    -1.5540    -1.1110 H       
  26 H26           -3.5118    -0.4868    -0.6565 H       
  27 H27            1.3882     2.9951    -0.4510 H       
  28 H28           -3.8649     3.1371     0.0430 H       
  29 H29            3.7107     0.1261    -0.4012 H       
  30 H30            3.5209     0.4949    -2.1322 H       
  31 H31            5.1556     4.3587    -0.5734 H       
  32 H32            7.5955     4.6011    -0.7894 H       
  33 H33            8.9826     2.6488    -1.3571 H       
  34 H34            7.9337     0.4506    -1.7117 H       
  35 H35            5.4952     0.1985    -1.4911 H       
  36 H36           -5.0640     0.6856    -1.3241 H       
  37 H37           -5.9111     2.2205    -1.0161 H       
  38 H38           -4.5334     2.1747    -2.1423 H       
  39 H39           -3.3244     2.7093     2.5012 H       
  40 H40           -3.9506     1.2392     3.2855 H       
  41 H41           -2.6237     1.1218     2.1050 H       
  42 H42           -6.5751     2.1041     0.7911 H       
  43 H43           -6.2581     1.8129     2.5182 H       
  44 H44           -5.6319     3.2829     1.7340 H       
  45 H45           -3.9339    -0.5494     0.8862 H       
  46 H46           -5.3713    -0.3906     1.9239 H       
  47 H47           -5.5083    -0.1325     0.1681 H       
@<TRIPOS>BOND
   1    1    2 1
   2    1    7 2
   3    1    6 1
   4    2    3 1
   5    2    9 1
   6    3    4 2
   7    3   25 1
   8    4    5 1
   9    4   26 1
  10    5    6 am
  11    5   11 1
  12    6   10 2
  13    7    8 1
  14    7   27 1
  15    8    9 2
  16    8   12 1
  17   11   20 1
  18   11   21 1
  19   11   28 1
  20   12   13 1
  21   12   29 1
  22   12   30 1
  23   13   14 1
  24   14   15 ar
  25   14   19 ar
  26   15   16 ar
  27   15   31 1
  28   16   17 ar
  29   16   32 1
  30   17   18 ar
  31   17   33 1
  32   18   19 ar
  33   18   34 1
  34   19   35 1
  35   20   36 1
  36   20   37 1
  37   20   38 1
  38   21   22 1
  39   21   24 1
  40   21   23 1
  41   22   39 1
  42   22   40 1
  43   22   41 1
  44   23   42 1
  45   23   43 1
  46   23   44 1
  47   24   45 1
  48   24   46 1
  49   24   47 1

#	End of record

