#	Name: ASD01918145
#	Creating user name:	WinNT
#	Creation time:	15. 06. 2019 20:10

#	Modifying user name:	WinNT
#	Modification time:	15. 06. 2019 20:10

#	Program:	/corina/corina34_cracker 3.40 0067  02.08.2006

@<TRIPOS>MOLECULE
ASD01918145
  41   44    0    0    0
SMALL
NO_CHARGES


@<TRIPOS>ATOM
   1 N1             4.8253    -0.4043    -2.1402 N.ar    
   2 C2             5.2914     0.2918    -3.1579 C.ar    
   3 C3             5.1763     1.6746    -3.1855 C.ar    
   4 C4             4.5602     2.3233    -2.1218 C.ar    
   5 C5             4.0817     1.5534    -1.0672 C.ar    
   6 C6             4.2350     0.1750    -1.1136 C.ar    
   7 O7             3.4725     2.1431    -0.0052 O.3     
   8 C8             3.4500     3.5021     0.0444 C.2     
   9 N9             2.1945     5.5119    -0.0206 N.pl3   
  10 C10            2.2656     4.1562    -0.0650 C.2     
  11 C11            4.6480     4.2065     0.2134 C.2     
  12 C12            4.6168     5.5957     0.2636 C.2     
  13 C13            3.3228     6.2657     0.1366 C.2     
  14 C14            5.8551     6.3728     0.4406 C.2     
  15 N15            5.8052     7.7188     0.4869 N.am    
  16 O16            6.9230     5.7999     0.5450 O.2     
  17 N17            1.1294     6.4204    -0.1062 N.2     
  18 C18            1.6413     7.6244    -0.0088 C.2     
  19 N19            2.9567     7.5377     0.1431 N.2     
  20 C20            6.9603     8.4502     0.7598 C.ar    
  21 N21            8.1221     7.8250     0.8652 N.ar    
  22 C22            6.8812     9.8295     0.9130 C.ar    
  23 C23            8.0348    10.5445     1.1837 C.ar    
  24 C24            9.2341     9.8508     1.2924 C.ar    
  25 C25            9.2391     8.4781     1.1224 C.ar    
  26 O26            5.6600     2.3850    -4.2384 O.3     
  27 C27            6.2797     1.6437    -5.2912 C.3     
  28 F28            7.3731     0.9351    -4.7818 F       
  29 F29            5.3553     0.7461    -5.8363 F       
  30 F30           10.3834    10.5106     1.5553 F       
  31 H31            5.7691    -0.2202    -3.9801 H       
  32 H32            4.4560     3.3983    -2.1144 H       
  33 H33            3.8660    -0.4305    -0.2991 H       
  34 H34            1.3579     3.5848    -0.1907 H       
  35 H35            5.5851     3.6773     0.3040 H       
  36 H36            4.9656     8.1787     0.3303 H       
  37 H37            1.0775     8.5451    -0.0394 H       
  38 H38            5.9321    10.3366     0.8216 H       
  39 H39            8.0038    11.6169     1.3073 H       
  40 H40           10.1688     7.9342     1.2013 H       
  41 H41            6.6207     2.3297    -6.0667 H       
@<TRIPOS>BOND
   1    1    2 ar
   2    1    6 ar
   3    2    3 ar
   4    2   31 1
   5    3    4 ar
   6    3   26 1
   7    4    5 ar
   8    4   32 1
   9    5    6 ar
  10    5    7 1
  11    6   33 1
  12    7    8 1
  13    8   11 1
  14    8   10 2
  15    9   10 1
  16    9   17 1
  17    9   13 1
  18   10   34 1
  19   11   12 2
  20   11   35 1
  21   12   13 1
  22   12   14 1
  23   13   19 2
  24   14   15 am
  25   14   16 2
  26   15   20 1
  27   15   36 1
  28   17   18 2
  29   18   19 1
  30   18   37 1
  31   20   22 ar
  32   20   21 ar
  33   21   25 ar
  34   22   23 ar
  35   22   38 1
  36   23   24 ar
  37   23   39 1
  38   24   25 ar
  39   24   30 1
  40   25   40 1
  41   26   27 1
  42   27   28 1
  43   27   29 1
  44   27   41 1

#	End of record

