#	Name: ASD08710034
#	Creating user name:	WinNT
#	Creation time:	15. 06. 2019 21:19

#	Modifying user name:	WinNT
#	Modification time:	15. 06. 2019 21:19

#	Program:	/corina/corina34_cracker 3.40 0067  02.08.2006

@<TRIPOS>MOLECULE
ASD08710034
  53   56    0    0    0
SMALL
NO_CHARGES


@<TRIPOS>ATOM
   1 C1             1.7587     2.9898    -5.1498 C.ar    
   2 C2             2.0023     1.9725    -4.2502 C.ar    
   3 C3             0.7288     2.8599    -6.0835 C.ar    
   4 C4            -0.0480     1.6995    -6.0998 C.ar    
   5 C5             0.2065     0.6903    -5.1948 C.ar    
   6 C6             1.2292     0.8255    -4.2723 C.ar    
   7 S7             1.5473    -0.4688    -3.1198 S.o2    
   8 O8             2.6640    -0.0518    -2.3463 O.2     
   9 O9             0.2928    -0.8156    -2.5495 O.2     
  10 N10            2.0464    -1.7872    -3.9887 N.am    
  11 C11            3.4473    -1.9160    -4.4140 C.3     
  12 C12            1.0978    -2.8523    -4.3430 C.3     
  13 C13            1.6489    -4.1893    -3.8321 C.3     
  14 N14            3.0486    -4.3154    -4.2623 N.am    
  15 C15            3.9934    -3.2550    -3.9030 C.3     
  16 C16            3.4550    -5.3889    -4.9687 C.2     
  17 C17            0.8267    -5.3402    -4.4155 C.3     
  18 C18            4.8834    -5.5580    -5.2973 C.ar    
  19 O19            2.6445    -6.2179    -5.3351 O.2     
  20 C20            5.8642    -5.3284    -4.3309 C.ar    
  21 N21            7.1390    -5.4795    -4.6231 N.ar    
  22 C22            7.5361    -5.8514    -5.8327 C.ar    
  23 C23            6.6114    -6.0976    -6.8458 C.ar    
  24 C24            5.2751    -5.9577    -6.5840 C.ar    
  25 C25            0.4700     3.9119    -7.0199 C.1     
  26 N26            8.8883    -5.9967    -6.0925 N.3     
  27 C27            9.6894    -5.6914    -4.8996 C.3     
  28 C28            9.4480    -7.1337    -5.3496 C.3     
  29 N29            0.2646     4.7465    -7.7627 N.1     
  30 C30           -0.6307    -0.5627    -5.2108 C.3     
  31 H31            2.3603     3.8865    -5.1288 H       
  32 H32            2.7986     2.0716    -3.5274 H       
  33 H33           -0.8464     1.5927    -6.8192 H       
  34 H34            3.5031    -1.8896    -5.5022 H       
  35 H35            4.0335    -1.0981    -3.9952 H       
  36 H36            0.1328    -2.6525    -3.8773 H       
  37 H37            0.9825    -2.8940    -5.4261 H       
  38 H38            1.5971    -4.2144    -2.7437 H       
  39 H39            4.9591    -3.4524    -4.3684 H       
  40 H40            4.1074    -3.2182    -2.8196 H       
  41 H41            0.9314    -5.3480    -5.5005 H       
  42 H42            1.1858    -6.2857    -4.0091 H       
  43 H43           -0.2226    -5.2068    -4.1527 H       
  44 H44            5.5751    -5.0240    -3.3358 H       
  45 H45            6.9458    -6.4000    -7.8272 H       
  46 H46            4.5393    -6.1432    -7.3525 H       
  47 H47           10.6847    -5.2741    -5.0523 H       
  48 H48            9.1616    -5.3438    -4.0116 H       
  49 H49            8.7606    -7.7393    -4.7589 H       
  50 H50           10.2837    -7.6695    -5.7996 H       
  51 H51           -0.1640    -1.3032    -5.8605 H       
  52 H52           -0.7058    -0.9624    -4.1996 H       
  53 H53           -1.6277    -0.3287    -5.5841 H       
@<TRIPOS>BOND
   1    1    2 ar
   2    1    3 ar
   3    1   31 1
   4    2    6 ar
   5    2   32 1
   6    3    4 ar
   7    3   25 1
   8    4    5 ar
   9    4   33 1
  10    5    6 ar
  11    5   30 1
  12    6    7 1
  13    7    8 2
  14    7    9 2
  15    7   10 am
  16   10   11 1
  17   10   12 1
  18   11   15 1
  19   11   34 1
  20   11   35 1
  21   12   13 1
  22   12   36 1
  23   12   37 1
  24   13   14 1
  25   13   17 1
  26   13   38 1
  27   14   15 1
  28   14   16 am
  29   15   39 1
  30   15   40 1
  31   16   18 1
  32   16   19 2
  33   17   41 1
  34   17   42 1
  35   17   43 1
  36   18   20 ar
  37   18   24 ar
  38   20   21 ar
  39   20   44 1
  40   21   22 ar
  41   22   23 ar
  42   22   26 1
  43   23   24 ar
  44   23   45 1
  45   24   46 1
  46   25   29 3
  47   26   27 1
  48   26   28 1
  49   27   28 1
  50   27   47 1
  51   27   48 1
  52   28   49 1
  53   28   50 1
  54   30   51 1
  55   30   52 1
  56   30   53 1

#	End of record

