#	Name: ASD02030765
#	Creating user name:	WinNT
#	Creation time:	15. 06. 2019 20:16

#	Modifying user name:	WinNT
#	Modification time:	15. 06. 2019 20:16

#	Program:	/corina/corina34_cracker 3.40 0067  02.08.2006

@<TRIPOS>MOLECULE
ASD02030765
  38   41    0    0    0
SMALL
NO_CHARGES


@<TRIPOS>ATOM
   1 C1            -0.0196     1.4967     0.1783 C.3     
   2 C2             0.0015    -0.0068     0.0775 C.2     
   3 C3            -1.0388    -0.8183     0.0022 C.2     
   4 C4            -2.4412    -0.2668     0.0118 C.3     
   5 H5            -2.9104    -0.1583    -0.9661 H       
   6 C6            -2.7835     0.7748     1.0790 C.3     
   7 C7            -3.3416    -0.6463     1.1891 C.3     
   8 H8            -2.9196    -1.2949     1.9568 H       
   9 C9            -4.7753    -0.8365     0.9147 C.1     
  10 N10           -5.8816    -0.9833     0.7029 N.1     
  11 N11           -0.8229    -2.1712    -0.0853 N.am    
  12 C12            0.4836    -2.5549    -0.0859 C.2     
  13 S13            1.4268    -1.0588     0.0272 S.3     
  14 N14            0.8559    -3.8187    -0.1649 N.2     
  15 C15           -0.0348    -4.7994    -0.2495 C.2     
  16 C16            0.4162    -6.2346    -0.3383 C.3     
  17 N17            0.7046    -6.5704    -1.7348 N.pl3   
  18 N18           -0.2092    -7.0824    -2.6649 N.2     
  19 C19            0.4156    -7.2531    -3.8016 C.2     
  20 C20            1.7461    -6.8560    -3.6332 C.2     
  21 C21            1.8963    -6.4355    -2.3542 C.2     
  22 Cl22           3.3595    -5.8340    -1.6393 Cl      
  23 C23           -0.1930    -7.7861    -5.0730 C.3     
  24 F24           -1.5681    -7.9683    -4.8911 F       
  25 F25            0.0232    -6.8741    -6.1116 F       
  26 F26            0.4008    -9.0108    -5.3966 F       
  27 C27           -1.3778    -4.4879    -0.2546 C.2     
  28 C28           -1.7696    -3.1509    -0.1706 C.2     
  29 O29           -2.9551    -2.8586    -0.1739 O.2     
  30 H30            1.0027     1.8725     0.2187 H       
  31 H31           -0.5253     1.9122    -0.6933 H       
  32 H32           -0.5516     1.7928     1.0824 H       
  33 H33           -1.9943     1.0611     1.7742 H       
  34 H34           -3.4781     1.5683     0.8034 H       
  35 H35            1.3163    -6.3703     0.2613 H       
  36 H36           -0.3722    -6.8871     0.0370 H       
  37 H37            2.5164    -6.8773    -4.3898 H       
  38 H38           -2.1191    -5.2704    -0.3229 H       
@<TRIPOS>BOND
   1    1    2 1
   2    1   30 1
   3    1   31 1
   4    1   32 1
   5    2   13 1
   6    2    3 2
   7    3    4 1
   8    3   11 1
   9    4    5 1
  10    4    7 1
  11    4    6 1
  12    6    7 1
  13    6   33 1
  14    6   34 1
  15    7    8 1
  16    7    9 1
  17    9   10 3
  18   11   28 am
  19   11   12 1
  20   12   13 1
  21   12   14 2
  22   14   15 1
  23   15   16 1
  24   15   27 2
  25   16   17 1
  26   16   35 1
  27   16   36 1
  28   17   21 1
  29   17   18 1
  30   18   19 2
  31   19   20 1
  32   19   23 1
  33   20   21 2
  34   20   37 1
  35   21   22 1
  36   23   24 1
  37   23   25 1
  38   23   26 1
  39   27   28 1
  40   27   38 1
  41   28   29 2

#	End of record

