#	Name: ASD03430901
#	Creating user name:	WinNT
#	Creation time:	15. 06. 2019 20:41

#	Modifying user name:	WinNT
#	Modification time:	15. 06. 2019 20:41

#	Program:	/corina/corina34_cracker 3.40 0067  02.08.2006

@<TRIPOS>MOLECULE
ASD03430901
  35   39    0    0    0
SMALL
NO_CHARGES


@<TRIPOS>ATOM
   1 O1            -0.0175     1.4362     0.0099 O.3     
   2 C2             0.0021    -0.0041     0.0020 C.3     
   3 C3             1.3460    -0.3160    -0.6699 C.3     
   4 C4             2.1588     0.9236    -0.4074 C.ar    
   5 C5             1.2627     1.9061     0.0002 C.ar    
   6 C6             1.7494     3.1734     0.3259 C.ar    
   7 C7             3.1062     3.4431     0.2375 C.ar    
   8 C8             3.9859     2.4533    -0.1805 C.ar    
   9 C9             3.5071     1.1973    -0.5008 C.ar    
  10 N10            2.1632    -2.4019    -1.1235 N.am    
  11 C11            1.9854    -1.5476    -0.0961 C.2     
  12 C12            1.1904    -0.5944    -2.1355 C.ar    
  13 C13            0.6794     0.1257    -3.1916 C.ar    
  14 C14            0.6779    -0.4173    -4.4646 C.ar    
  15 C15            1.1903    -1.6844    -4.6729 C.ar    
  16 C16            1.7031    -2.4104    -3.6176 C.ar    
  17 C17            1.7079    -1.8725    -2.3334 C.ar    
  18 O18            2.2834    -1.7366     1.0643 O.2     
  19 O19            3.5948     4.6726     0.5603 O.3     
  20 C20            2.6503     5.7472     0.6113 C.3     
  21 C21            1.4226     5.2708     1.3994 C.3     
  22 O22            0.8706     4.1350     0.7250 O.3     
  23 H23           -0.0227    -0.3969     1.0185 H       
  24 H24           -0.8258    -0.3990    -0.5868 H       
  25 H25            5.0424     2.6646    -0.2545 H       
  26 H26            4.1912     0.4274    -0.8259 H       
  27 H27            2.5611    -3.2819    -1.0332 H       
  28 H28            0.2791     1.1150    -3.0266 H       
  29 H29            0.2770     0.1474    -5.2934 H       
  30 H30            1.1895    -2.1078    -5.6664 H       
  31 H31            2.1015    -3.3997    -3.7882 H       
  32 H32            3.0976     6.6062     1.1115 H       
  33 H33            2.3532     6.0237    -0.4003 H       
  34 H34            1.7205     4.9898     2.4096 H       
  35 H35            0.6813     6.0687     1.4428 H       
@<TRIPOS>BOND
   1    1    2 1
   2    1    5 1
   3    2    3 1
   4    2   23 1
   5    2   24 1
   6    3    4 1
   7    3   11 1
   8    3   12 1
   9    4    5 ar
  10    4    9 ar
  11    5    6 ar
  12    6    7 ar
  13    6   22 1
  14    7    8 ar
  15    7   19 1
  16    8    9 ar
  17    8   25 1
  18    9   26 1
  19   10   11 am
  20   10   17 1
  21   10   27 1
  22   11   18 2
  23   12   13 ar
  24   12   17 ar
  25   13   14 ar
  26   13   28 1
  27   14   15 ar
  28   14   29 1
  29   15   16 ar
  30   15   30 1
  31   16   17 ar
  32   16   31 1
  33   19   20 1
  34   20   21 1
  35   20   32 1
  36   20   33 1
  37   21   22 1
  38   21   34 1
  39   21   35 1

#	End of record

