#	Name: ASD01150449
#	Creating user name:	WinNT
#	Creation time:	15. 06. 2019 19:04

#	Modifying user name:	WinNT
#	Modification time:	15. 06. 2019 19:04

#	Program:	/corina/corina34_cracker 3.40 0067  02.08.2006

@<TRIPOS>MOLECULE
ASD01150449
  39   41    0    0    0
SMALL
NO_CHARGES


@<TRIPOS>ATOM
   1 C1            -0.0169     1.3921     0.0097 C.ar    
   2 C2             0.0021    -0.0041     0.0020 C.ar    
   3 C3            -2.3951    -0.0372     0.0252 C.ar    
   4 C4            -2.4294     1.3435     0.0441 C.ar    
   5 C5            -1.2464     2.0686     0.0309 C.ar    
   6 N6            -1.2789     3.4629     0.0393 N.am    
   7 C7            -1.9513     4.1042     1.0112 C.2     
   8 N8            -2.0036     5.4487     1.0500 N.am    
   9 C9            -1.3748     6.1769     0.1041 C.2     
  10 C10           -0.6370     5.4812    -0.9618 C.2     
  11 N11           -0.6064     4.1747    -0.9611 N.2     
  12 O12           -1.4177     7.3927     0.1319 O.2     
  13 C13           -2.7442     6.1218     2.1198 C.3     
  14 O14           -2.5220     3.4587     1.8693 O.2     
  15 C15           -1.8235     6.3752     3.2856 C.ar    
  16 C16           -1.1059     7.5548     3.3556 C.ar    
  17 C17           -0.2613     7.7878     4.4246 C.ar    
  18 C18           -0.1341     6.8402     5.4247 C.ar    
  19 C19           -0.8525     5.6600     5.3541 C.ar    
  20 C20           -1.7011     5.4305     4.2874 C.ar    
  21 O21            0.0064     6.1858    -1.9286 O.3     
  22 C22            0.6993     5.4339    -2.9269 C.3     
  23 Cl23           0.9269     7.1320     6.7674 Cl      
  24 C24           -1.1837    -0.7080     0.0100 C.ar    
  25 C25            1.2109     2.1291     0.0019 C.1     
  26 N26            2.1848     2.7139    -0.0042 N.1     
  27 H27            0.9442    -0.5320    -0.0105 H       
  28 H28           -3.3185    -0.5972     0.0359 H       
  29 H29           -3.3781     1.8594     0.0559 H       
  30 H30           -3.1331     7.0709     1.7510 H       
  31 H31           -3.5723     5.4902     2.4414 H       
  32 H32           -1.2051     8.2942     2.5747 H       
  33 H33            0.2995     8.7091     4.4790 H       
  34 H34           -0.7536     4.9200     6.1344 H       
  35 H35           -2.2619     4.5092     4.2322 H       
  36 H36           -0.0067     4.7917    -3.4533 H       
  37 H37            1.1679     6.1165    -3.6358 H       
  38 H38            1.4653     4.8201    -2.4530 H       
  39 H39           -1.1675    -1.7879     0.0041 H       
@<TRIPOS>BOND
   1    1    2 ar
   2    1   25 1
   3    1    5 ar
   4    2   24 ar
   5    2   27 1
   6    3    4 ar
   7    3   24 ar
   8    3   28 1
   9    4    5 ar
  10    4   29 1
  11    5    6 1
  12    6    7 am
  13    6   11 1
  14    7    8 am
  15    7   14 2
  16    8    9 am
  17    8   13 1
  18    9   10 1
  19    9   12 2
  20   10   11 2
  21   10   21 1
  22   13   15 1
  23   13   30 1
  24   13   31 1
  25   15   16 ar
  26   15   20 ar
  27   16   17 ar
  28   16   32 1
  29   17   18 ar
  30   17   33 1
  31   18   19 ar
  32   18   23 1
  33   19   20 ar
  34   19   34 1
  35   20   35 1
  36   21   22 1
  37   22   36 1
  38   22   37 1
  39   22   38 1
  40   24   39 1
  41   25   26 3

#	End of record

