#	Name: ASD01901114
#	Creating user name:	WinNT
#	Creation time:	15. 06. 2019 19:53

#	Modifying user name:	WinNT
#	Modification time:	15. 06. 2019 19:53

#	Program:	/corina/corina34_cracker 3.40 0067  02.08.2006

@<TRIPOS>MOLECULE
ASD01901114
  58   62    0    0    0
SMALL
NO_CHARGES


@<TRIPOS>ATOM
   1 C1             0.2304     0.7293    -0.2013 C.ar    
   2 C2             0.2966    -0.6276    -0.4400 C.ar    
   3 C3             1.4857    -1.2132    -0.8456 C.ar    
   4 C4             2.6243    -0.4484    -1.0116 C.ar    
   5 C5             2.5755     0.9150    -0.7739 C.ar    
   6 C6             1.3685     1.5137    -0.3716 C.ar    
   7 N7             3.6985     1.7228    -0.9124 N.pl3   
   8 C8             3.5146     3.1354    -1.2634 C.3     
   9 N9             2.4146     3.7115    -0.4890 N.am    
  10 C10            1.3496     2.9670    -0.1304 C.2     
  11 C11            2.4696     5.0595    -0.1132 C.ar    
  12 C12            1.7241     6.0046    -0.8055 C.ar    
  13 C13            1.7789     7.3335    -0.4344 C.ar    
  14 C14            2.5784     7.7245     0.6297 C.ar    
  15 C15            3.3234     6.7809     1.3218 C.ar    
  16 C16            3.2652     5.4507     0.9555 C.ar    
  17 O17            0.3817     3.4903     0.3877 O.2     
  18 O18            2.6322     9.0333     0.9943 O.3     
  19 C19            4.8050     3.9039    -0.9632 C.3     
  20 C20            3.2004     3.2491    -2.7579 C.3     
  21 C21            3.0749     4.7269    -3.1356 C.3     
  22 N22            4.3316     5.4212    -2.8270 N.3     
  23 C23            4.6329     5.3632    -1.3912 C.3     
  24 C24            4.2954     6.8110    -3.3016 C.3     
  25 C25            5.5568     7.5191    -2.8790 C.ar    
  26 C26            3.3877     9.3501     2.1652 C.3     
  27 C27            6.7387     7.2946    -3.5627 C.ar    
  28 C28            7.8960     7.9453    -3.1744 C.ar    
  29 C29            7.8712     8.8193    -2.1038 C.ar    
  30 C30            6.6904     9.0428    -1.4209 C.ar    
  31 C31            5.5321     8.3971    -1.8121 C.ar    
  32 Cl32           6.7692     6.1964    -4.9068 Cl      
  33 H33           -0.6993     1.1813     0.1113 H       
  34 H34           -0.5845    -1.2384    -0.3096 H       
  35 H35            1.5226    -2.2762    -1.0330 H       
  36 H36            3.5481    -0.9117    -1.3249 H       
  37 H37            4.5877     1.3590    -0.7790 H       
  38 H38            1.1019     5.7004    -1.6342 H       
  39 H39            1.1995     8.0688    -0.9730 H       
  40 H40            3.9456     7.0860     2.1502 H       
  41 H41            3.8418     4.7156     1.4972 H       
  42 H42            5.0145     3.8602     0.1056 H       
  43 H43            5.6317     3.4574    -1.5157 H       
  44 H44            4.0049     2.7930    -3.3348 H       
  45 H45            2.2622     2.7376    -2.9726 H       
  46 H46            2.8650     4.8127    -4.2018 H       
  47 H47            2.2615     5.1790    -2.5681 H       
  48 H48            3.8136     5.8122    -0.8297 H       
  49 H49            5.5535     5.9114    -1.1909 H       
  50 H50            4.2196     6.8218    -4.3889 H       
  51 H51            3.4321     7.3193    -2.8722 H       
  52 H52            2.9216     8.8867     3.0347 H       
  53 H53            4.4046     8.9738     2.0543 H       
  54 H54            3.4131    10.4315     2.2997 H       
  55 H55            8.8189     7.7702    -3.7075 H       
  56 H56            8.7747     9.3274    -1.8005 H       
  57 H57            6.6717     9.7252    -0.5840 H       
  58 H58            4.6088     8.5755    -1.2810 H       
@<TRIPOS>BOND
   1    1    2 ar
   2    1    6 ar
   3    1   33 1
   4    2    3 ar
   5    2   34 1
   6    3    4 ar
   7    3   35 1
   8    4    5 ar
   9    4   36 1
  10    5    7 1
  11    5    6 ar
  12    6   10 1
  13    7    8 1
  14    7   37 1
  15    8    9 1
  16    8   20 1
  17    8   19 1
  18    9   10 am
  19    9   11 1
  20   10   17 2
  21   11   12 ar
  22   11   16 ar
  23   12   13 ar
  24   12   38 1
  25   13   14 ar
  26   13   39 1
  27   14   15 ar
  28   14   18 1
  29   15   16 ar
  30   15   40 1
  31   16   41 1
  32   18   26 1
  33   19   23 1
  34   19   42 1
  35   19   43 1
  36   20   21 1
  37   20   44 1
  38   20   45 1
  39   21   22 1
  40   21   46 1
  41   21   47 1
  42   22   23 1
  43   22   24 1
  44   23   48 1
  45   23   49 1
  46   24   25 1
  47   24   50 1
  48   24   51 1
  49   25   27 ar
  50   25   31 ar
  51   26   52 1
  52   26   53 1
  53   26   54 1
  54   27   28 ar
  55   27   32 1
  56   28   29 ar
  57   28   55 1
  58   29   30 ar
  59   29   56 1
  60   30   31 ar
  61   30   57 1
  62   31   58 1

#	End of record

