#	Name: ASD01903116
#	Creating user name:	WinNT
#	Creation time:	15. 06. 2019 19:54

#	Modifying user name:	WinNT
#	Modification time:	15. 06. 2019 19:54

#	Program:	/corina/corina34_cracker 3.40 0067  02.08.2006

@<TRIPOS>MOLECULE
ASD01903116
  45   48    0    0    0
SMALL
NO_CHARGES


@<TRIPOS>ATOM
   1 C1             0.1266     1.9533    -0.0191 C.3     
   2 C2             0.0350     0.4430     0.2256 C.3     
   3 C3             0.5069    -0.2723    -1.0351 C.3     
   4 C4             1.8921     0.1265    -1.4508 C.3     
   5 C5             2.2602     1.5984    -1.3268 C.3     
   6 C6             1.5936     2.3282    -0.1767 C.3     
   7 C7             2.9681    -0.5663    -0.6430 C.2     
   8 N8             4.0100     0.2816    -0.5509 N.am    
   9 C9             3.7556     1.5131    -1.0262 C.2     
  10 O10            4.5682     2.3980    -1.1881 O.2     
  11 O11            2.9039    -1.6793    -0.1668 O.2     
  12 C12            5.2503    -0.0872    -0.0074 C.ar    
  13 C13            6.2389    -0.6123    -0.8278 C.ar    
  14 C14            7.4591    -0.9757    -0.2935 C.ar    
  15 C15            7.6980    -0.8154     1.0652 C.ar    
  16 C16            6.7091    -0.2894     1.8869 C.ar    
  17 C17            5.4905     0.0789     1.3513 C.ar    
  18 Cl18           4.2542     0.7363     2.3775 Cl      
  19 N19            8.9346    -1.1841     1.6065 N.am    
  20 C20            8.9969    -1.7180     2.8424 C.2     
  21 C21           10.2911    -2.2034     3.3751 C.ar    
  22 N22           11.3859    -2.1099     2.6306 N.ar    
  23 C23           12.5542    -2.5289     3.0658 C.ar    
  24 C24           12.6851    -3.0877     4.3270 C.ar    
  25 C25           11.5668    -3.2044     5.1380 C.ar    
  26 C26           10.3500    -2.7491     4.6558 C.ar    
  27 O27            7.9914    -1.8011     3.5199 O.2     
  28 H28           -0.4170     2.2107    -0.9282 H       
  29 H29           -0.2991     2.4884     0.8297 H       
  30 H30            0.6726     0.1671     1.0655 H       
  31 H31           -0.9973     0.1671     0.4405 H       
  32 H32            0.4901    -1.3474    -0.8558 H       
  33 H33           -0.1829    -0.0435    -1.8475 H       
  34 H34            2.0329    -0.1690    -2.4905 H       
  35 H35            2.0736     2.1185    -2.2664 H       
  36 H36            1.6663     3.4017    -0.3510 H       
  37 H37            2.1202     2.0866     0.7465 H       
  38 H38            6.0535    -0.7371    -1.8844 H       
  39 H39            8.2278    -1.3849    -0.9322 H       
  40 H40            6.8947    -0.1646     2.9435 H       
  41 H41            9.7469    -1.0555     1.0922 H       
  42 H42           13.4233    -2.4365     2.4314 H       
  43 H43           13.6488    -3.4293     4.6746 H       
  44 H44           11.6429    -3.6367     6.1248 H       
  45 H45            9.4585    -2.8240     5.2607 H       
@<TRIPOS>BOND
   1    1    2 1
   2    1    6 1
   3    1   28 1
   4    1   29 1
   5    2    3 1
   6    2   30 1
   7    2   31 1
   8    3    4 1
   9    3   32 1
  10    3   33 1
  11    4    5 1
  12    4    7 1
  13    4   34 1
  14    5    6 1
  15    5    9 1
  16    5   35 1
  17    6   36 1
  18    6   37 1
  19    7    8 am
  20    7   11 2
  21    8    9 am
  22    8   12 1
  23    9   10 2
  24   12   13 ar
  25   12   17 ar
  26   13   14 ar
  27   13   38 1
  28   14   15 ar
  29   14   39 1
  30   15   16 ar
  31   15   19 1
  32   16   17 ar
  33   16   40 1
  34   17   18 1
  35   19   20 am
  36   19   41 1
  37   20   21 1
  38   20   27 2
  39   21   22 ar
  40   21   26 ar
  41   22   23 ar
  42   23   24 ar
  43   23   42 1
  44   24   25 ar
  45   24   43 1
  46   25   26 ar
  47   25   44 1
  48   26   45 1

#	End of record

