#	Name: ASD02038628
#	Creating user name:	WinNT
#	Creation time:	15. 06. 2019 20:17

#	Modifying user name:	WinNT
#	Modification time:	15. 06. 2019 20:17

#	Program:	/corina/corina34_cracker 3.40 0067  02.08.2006

@<TRIPOS>MOLECULE
ASD02038628
  46   47    0    0    0
SMALL
NO_CHARGES


@<TRIPOS>ATOM
   1 C1             0.0243     2.0477    -0.9852 C.ar    
   2 C2            -0.0215     0.6708    -0.8542 C.ar    
   3 C3             1.1502    -0.0518    -0.7279 C.ar    
   4 C4             2.3733     0.6058    -0.7326 C.ar    
   5 C5             2.4150     1.9883    -0.8644 C.ar    
   6 C6             1.2411     2.7046    -0.9902 C.ar    
   7 N7             3.5591    -0.1210    -0.6048 N.pl3   
   8 C8             4.8486     0.5742    -0.6099 C.3     
   9 C9             5.9786    -0.4458    -0.4563 C.3     
  10 N10            7.2681     0.2495    -0.4615 N.am    
  11 C11            8.4124    -0.4519    -0.3381 C.2     
  12 C12            9.7388     0.2633    -0.3434 C.3     
  13 O13           10.7942    -0.6894    -0.1999 O.3     
  14 C14           12.0651    -0.2055    -0.1855 C.ar    
  15 C15           13.1366    -1.0756    -0.0492 C.ar    
  16 C16           12.2893     1.1574    -0.3127 C.ar    
  17 C17           13.5796     1.6497    -0.2986 C.ar    
  18 C18           14.6526     0.7798    -0.1565 C.ar    
  19 C19           14.4276    -0.5850    -0.0344 C.ar    
  20 N20           15.9604     1.2778    -0.1422 N.am    
  21 S21           16.5352     2.0562     1.2017 S.o2    
  22 O22           17.8730     2.3965     0.8641 O.2     
  23 O23           15.5673     3.0628     1.4645 O.2     
  24 C24           16.5088     0.7925     2.5028 C.3     
  25 Cl25          -1.5514    -0.1495    -0.8480 Cl      
  26 O26            8.3745    -1.6586    -0.2227 O.2     
  27 H27           -0.8921     2.6100    -1.0883 H       
  28 H28            1.1144    -1.1263    -0.6253 H       
  29 H29            3.3648     2.5024    -0.8680 H       
  30 H30            1.2735     3.7792    -1.0930 H       
  31 H31            3.5288    -1.0862    -0.5125 H       
  32 H32            4.9686     1.1103    -1.5514 H       
  33 H33            4.8831     1.2821     0.2182 H       
  34 H34            5.8586    -0.9819     0.4852 H       
  35 H35            5.9442    -1.1537    -1.2844 H       
  36 H36            7.2984     1.2146    -0.5537 H       
  37 H37            9.8588     0.7993    -1.2848 H       
  38 H38            9.7733     0.9711     0.4847 H       
  39 H39           12.9614    -2.1370     0.0458 H       
  40 H40           11.4546     1.8338    -0.4232 H       
  41 H41           13.7540     2.7108    -0.3984 H       
  42 H42           15.2615    -1.2622     0.0761 H       
  43 H43           16.5301     1.1669    -0.9193 H       
  44 H44           17.0738    -0.0796     2.1738 H       
  45 H45           16.9585     1.1958     3.4101 H       
  46 H46           15.4781     0.5021     2.7063 H       
@<TRIPOS>BOND
   1    1    2 ar
   2    1    6 ar
   3    1   27 1
   4    2    3 ar
   5    2   25 1
   6    3    4 ar
   7    3   28 1
   8    4    5 ar
   9    4    7 1
  10    5    6 ar
  11    5   29 1
  12    6   30 1
  13    7    8 1
  14    7   31 1
  15    8    9 1
  16    8   32 1
  17    8   33 1
  18    9   10 1
  19    9   34 1
  20    9   35 1
  21   10   11 am
  22   10   36 1
  23   11   12 1
  24   11   26 2
  25   12   13 1
  26   12   37 1
  27   12   38 1
  28   13   14 1
  29   14   15 ar
  30   14   16 ar
  31   15   19 ar
  32   15   39 1
  33   16   17 ar
  34   16   40 1
  35   17   18 ar
  36   17   41 1
  37   18   19 ar
  38   18   20 1
  39   19   42 1
  40   20   21 am
  41   20   43 1
  42   21   22 2
  43   21   23 2
  44   21   24 1
  45   24   44 1
  46   24   45 1
  47   24   46 1

#	End of record

