#	Name: ASD02320065
#	Creating user name:	WinNT
#	Creation time:	15. 06. 2019 20:20

#	Modifying user name:	WinNT
#	Modification time:	15. 06. 2019 20:20

#	Program:	/corina/corina34_cracker 3.40 0067  02.08.2006

@<TRIPOS>MOLECULE
ASD02320065
  84   81    0    0    0
SMALL
NO_CHARGES


@<TRIPOS>ATOM
   1 C1            -0.0164     1.3560     0.0095 C.2     
   2 C2             0.0021    -0.0041     0.0020 C.2     
   3 O3             1.1438    -0.7103    -0.0122 O.3     
   4 C4             2.3572    -0.1189    -0.0208 C.ar    
   5 C5             1.2051     2.0703     0.0017 C.2     
   6 C6            -1.2815    -0.7309     0.0104 C.ar    
   7 C7            -1.2955    -2.1285     0.0030 C.ar    
   8 C8            -2.4962    -2.8031     0.0113 C.ar    
   9 C9            -3.6926    -2.0962     0.0270 C.ar    
  10 C10           -3.6833    -0.7066     0.0344 C.ar    
  11 C11           -2.4871    -0.0240     0.0315 C.ar    
  12 C12            3.5166    -0.8781    -0.0361 C.ar    
  13 C13            4.7548    -0.2541    -0.0452 C.ar    
  14 C14            4.8494     1.1330    -0.0384 C.ar    
  15 C15            3.7038     1.9073    -0.0232 C.ar    
  16 C16            2.4501     1.2838    -0.0145 C.ar    
  17 O17           -4.8740    -2.7652     0.0347 O.3     
  18 S18           -5.3991    -3.0781     1.4285 S.o2    
  19 O19           -6.4411    -4.0806     1.2689 O.co2   
  20 O20           -4.2717    -3.5804     2.1985 O.co2   
  21 O21           -5.9187    -1.8322     1.9705 O.co2   
  22 O22            1.2260     3.2906     0.0081 O.2     
  23 O23            3.7939     3.2614    -0.0161 O.3     
  24 O24            5.8857    -1.0049    -0.0602 O.3     
  25 S25            6.3877    -1.3401    -1.4574 S.o2    
  26 O26            7.3559    -2.4154    -1.3085 O.co2   
  27 O27            5.2277    -1.7533    -2.2319 O.co2   
  28 O28            6.9943    -0.1287    -1.9870 O.co2   
  29 C29            5.0081     5.3510    -0.0154 C.3     
  30 O30            4.4205     5.7822     1.2138 O.3     
  31 C31            4.2597     7.1190     1.3842 C.ar    
  32 C32            3.6963     7.6167     2.5655 C.ar    
  33 C33            4.6564     8.0001     0.3949 C.ar    
  34 C34            4.4916     9.3693     0.5720 C.ar    
  35 C35            3.9296     9.8686     1.7371 C.ar    
  36 C36            3.5304     9.0015     2.7418 C.ar    
  37 C37            2.7059     7.3054     4.8041 C.2     
  38 C38            3.2650     6.7142     3.6465 C.2     
  39 O39            2.9853     9.4712     3.8840 O.3     
  40 C40            2.5879     8.6586     4.8759 C.2     
  41 C41            2.0021     9.2560     6.0907 C.ar    
  42 C42            1.8675    10.6434     6.1944 C.ar    
  43 C43            1.3196    11.1970     7.3303 C.ar    
  44 C44            0.9007    10.3784     8.3722 C.ar    
  45 C45            1.0326     8.9985     8.2732 C.ar    
  46 C46            1.5746     8.4361     7.1388 C.ar    
  47 O47            3.3848     5.5037     3.5475 O.2     
  48 O48            4.8852    10.2256    -0.4050 O.3     
  49 O49            0.3615    10.9283     9.4902 O.3     
  50 S50           -1.1496    11.0995     9.4290 S.o2    
  51 S51            3.8018    10.5387    -1.4272 S.o2    
  52 O52           -1.5132    12.0048    10.5080 O.co2   
  53 O53           -1.4557    11.6581     8.1212 O.co2   
  54 O54           -1.7291     9.7772     9.6071 O.co2   
  55 O55            4.4654    11.1517    -2.5673 O.co2   
  56 O56            3.1756     9.2728    -1.7758 O.co2   
  57 O57            2.8687    11.4503    -0.7835 O.co2   
  58 C58            5.1074     3.8243    -0.0252 C.3     
  59 H59           -0.9568     1.8870     0.0168 H       
  60 H60           -0.3662    -2.6786    -0.0096 H       
  61 H61           -2.5080    -3.8831     0.0053 H       
  62 H62           -4.6153    -0.1611     0.0462 H       
  63 H63           -2.4806     1.0560     0.0418 H       
  64 H64            3.4555    -1.9563    -0.0408 H       
  65 H65            5.8199     1.6068    -0.0448 H       
  66 H66            4.3884     5.6802    -0.8495 H       
  67 H67            6.0052     5.7806    -0.1119 H       
  68 H68            5.0955     7.6239    -0.5172 H       
  69 H69            3.8069    10.9341     1.8636 H       
  70 H70            2.3740     6.6863     5.6245 H       
  71 H71            2.1931    11.2803     5.3853 H       
  72 H72            1.2156    12.2689     7.4114 H       
  73 H73            0.7061     8.3659     9.0855 H       
  74 H74            1.6727     7.3634     7.0609 H       
  75 H75            5.6520     3.4899     0.8577 H       
  76 H76            5.6353     3.5003    -0.9221 H       
  77 Na77          12.3559    17.2689    15.5080 Du      
  78 Na78          17.3559    22.2689    20.5080 Du      
  79 Na79          22.3559    27.2689    25.5080 Du      
  80 Na80          27.3559    32.2689    30.5080 Du      
  81 Na81          32.3559    37.2689    35.5080 Du      
  82 Na82          37.3559    42.2689    40.5080 Du      
  83 Na83          42.3559    47.2689    45.5080 Du      
  84 Na84          47.3559    52.2689    50.5080 Du      
@<TRIPOS>BOND
   1    1    2 2
   2    1    5 1
   3    1   59 1
   4    2    3 1
   5    2    6 1
   6    3    4 1
   7    4   12 ar
   8    4   16 ar
   9    5   22 2
  10    5   16 1
  11    6    7 ar
  12    6   11 ar
  13    7    8 ar
  14    7   60 1
  15    8    9 ar
  16    8   61 1
  17    9   10 ar
  18    9   17 1
  19   10   11 ar
  20   10   62 1
  21   11   63 1
  22   12   13 ar
  23   12   64 1
  24   13   14 ar
  25   13   24 1
  26   14   15 ar
  27   14   65 1
  28   15   16 ar
  29   15   23 1
  30   17   18 1
  31   18   19 ar
  32   18   20 ar
  33   18   21 ar
  34   23   58 1
  35   24   25 1
  36   25   26 ar
  37   25   27 ar
  38   25   28 ar
  39   29   30 1
  40   29   58 1
  41   29   66 1
  42   29   67 1
  43   30   31 1
  44   31   33 ar
  45   31   32 ar
  46   32   36 ar
  47   32   38 1
  48   33   34 ar
  49   33   68 1
  50   34   35 ar
  51   34   48 1
  52   35   36 ar
  53   35   69 1
  54   36   39 1
  55   37   38 1
  56   37   40 2
  57   37   70 1
  58   38   47 2
  59   39   40 1
  60   40   41 1
  61   41   42 ar
  62   41   46 ar
  63   42   43 ar
  64   42   71 1
  65   43   44 ar
  66   43   72 1
  67   44   45 ar
  68   44   49 1
  69   45   46 ar
  70   45   73 1
  71   46   74 1
  72   48   51 1
  73   49   50 1
  74   50   52 ar
  75   50   53 ar
  76   50   54 ar
  77   51   55 ar
  78   51   56 ar
  79   51   57 ar
  80   58   75 1
  81   58   76 1

#	End of record

