#	Name: ASD00840137
#	Creating user name:	WinNT
#	Creation time:	15. 06. 2019 18:37

#	Modifying user name:	WinNT
#	Modification time:	15. 06. 2019 18:37

#	Program:	/corina/corina34_cracker 3.40 0067  02.08.2006

@<TRIPOS>MOLECULE
ASD00840137
  34   36    0    0    0
SMALL
NO_CHARGES


@<TRIPOS>ATOM
   1 N1            -0.0161     1.3394     0.0094 N.am    
   2 C2             0.0021    -0.0041     0.0020 C.2     
   3 C3             1.4547    -0.4300    -0.0141 C.3     
   4 C4             2.2200     0.8734    -0.0144 C.ar    
   5 C5             3.5650     1.1687    -0.0261 C.ar    
   6 C6             3.9826     2.4887    -0.0234 C.ar    
   7 C7             3.0431     3.5079    -0.0090 C.ar    
   8 C8             1.6938     3.2122     0.0032 C.ar    
   9 C9             1.2685     1.8853     0.0001 C.ar    
  10 O10           -0.9638    -0.7377     0.0079 O.2     
  11 O11            1.7658    -1.1929     1.1534 O.3     
  12 F12            3.4490     4.7965    -0.0063 F       
  13 C13            1.5558    -0.6629    -2.5157 C.ar    
  14 C14            1.7591    -1.2213    -1.2600 C.ar    
  15 C15            2.2452    -2.5136    -1.1686 C.ar    
  16 C16            2.5122    -3.2052    -2.3424 C.ar    
  17 C17            2.2865    -2.5878    -3.5563 C.ar    
  18 N18            1.8221    -1.3538    -3.6115 N.ar    
  19 O19            1.0743     0.6014    -2.6189 O.3     
  20 C20            0.8872     1.1187    -3.9378 C.3     
  21 C21            0.3421     2.5458    -3.8533 C.3     
  22 Cl22           5.6770     2.8662    -0.0374 Cl      
  23 H23           -0.8287     1.8692     0.0163 H       
  24 H24            4.2934     0.3714    -0.0369 H       
  25 H25            0.9670     4.0110     0.0148 H       
  26 H26            1.2581    -2.0119     1.2349 H       
  27 H27            2.4134    -2.9736    -0.2061 H       
  28 H28            2.8927    -4.2153    -2.3063 H       
  29 H29            2.4929    -3.1213    -4.4724 H       
  30 H30            1.8416     1.1249    -4.4644 H       
  31 H31            0.1786     0.4904    -4.4774 H       
  32 H32           -0.6122     2.5396    -3.3267 H       
  33 H33            1.0508     3.1741    -3.3137 H       
  34 H34            0.1994     2.9404    -4.8593 H       
@<TRIPOS>BOND
   1    1    2 am
   2    1    9 1
   3    1   23 1
   4    2    3 1
   5    2   10 2
   6    3    4 1
   7    3   11 1
   8    3   14 1
   9    4    5 ar
  10    4    9 ar
  11    5    6 ar
  12    5   24 1
  13    6    7 ar
  14    6   22 1
  15    7    8 ar
  16    7   12 1
  17    8    9 ar
  18    8   25 1
  19   11   26 1
  20   13   14 ar
  21   13   18 ar
  22   13   19 1
  23   14   15 ar
  24   15   16 ar
  25   15   27 1
  26   16   17 ar
  27   16   28 1
  28   17   18 ar
  29   17   29 1
  30   19   20 1
  31   20   21 1
  32   20   30 1
  33   20   31 1
  34   21   32 1
  35   21   33 1
  36   21   34 1

#	End of record

