#	Name: ASD01148674
#	Creating user name:	WinNT
#	Creation time:	15. 06. 2019 19:03

#	Modifying user name:	WinNT
#	Modification time:	15. 06. 2019 19:03

#	Program:	/corina/corina34_cracker 3.40 0067  02.08.2006

@<TRIPOS>MOLECULE
ASD01148674
  30   31    0    0    0
SMALL
NO_CHARGES


@<TRIPOS>ATOM
   1 O1            -0.0162     1.3421     0.0094 O.3     
   2 C2             0.0021    -0.0041     0.0020 C.2     
   3 C3             1.3218    -0.4897    -0.0132 C.2     
   4 C4             2.1877     0.5476    -0.0159 C.2     
   5 C5             1.3412     1.8012    -0.0011 C.3     
   6 O6            -0.9914    -0.7072     0.0077 O.2     
   7 N7             3.5516     0.4783    -0.0286 N.pl3   
   8 C8             4.3476     1.7082    -0.0292 C.3     
   9 C9             4.6378     2.1285     1.4131 C.3     
  10 F10            5.3980     3.3030     1.4125 F       
  11 C11            4.2187    -0.8260    -0.0417 C.3     
  12 C12            5.5959    -0.9267    -2.1349 C.ar    
  13 C13            4.4345    -1.2655    -1.4669 C.ar    
  14 C14            3.4705    -2.0151    -2.1236 C.ar    
  15 C15            3.7118    -2.3981    -3.4348 C.ar    
  16 C16            4.8992    -2.0213    -4.0394 C.ar    
  17 N17            5.7934    -1.3074    -3.3820 N.ar    
  18 Cl18           5.2152    -2.4938    -5.6797 Cl      
  19 Cl19           2.5407    -3.3379    -4.3061 Cl      
  20 H20            1.6008    -1.5330    -0.0211 H       
  21 H21            1.5317     2.3961    -0.8943 H       
  22 H22            1.5488     2.3865     0.8947 H       
  23 H23            5.2875     1.5324    -0.5525 H       
  24 H24            3.7933     2.4995    -0.5337 H       
  25 H25            3.6979     2.3043     1.9364 H       
  26 H26            5.1921     1.3372     1.9176 H       
  27 H27            5.1811    -0.7470     0.4639 H       
  28 H28            3.5964    -1.5575     0.4738 H       
  29 H29            6.3490    -0.3392    -1.6309 H       
  30 H30            2.5537    -2.2945    -1.6259 H       
@<TRIPOS>BOND
   1    1    2 1
   2    1    5 1
   3    2    3 1
   4    2    6 2
   5    3    4 2
   6    3   20 1
   7    4    5 1
   8    4    7 1
   9    5   21 1
  10    5   22 1
  11    7    8 1
  12    7   11 1
  13    8    9 1
  14    8   23 1
  15    8   24 1
  16    9   10 1
  17    9   25 1
  18    9   26 1
  19   11   13 1
  20   11   27 1
  21   11   28 1
  22   12   13 ar
  23   12   17 ar
  24   12   29 1
  25   13   14 ar
  26   14   15 ar
  27   14   30 1
  28   15   16 ar
  29   15   19 1
  30   16   17 ar
  31   16   18 1

#	End of record

