#	Name: ASD06150005
#	Creating user name:	WinNT
#	Creation time:	15. 06. 2019 21:05

#	Modifying user name:	WinNT
#	Modification time:	15. 06. 2019 21:05

#	Program:	/corina/corina34_cracker 3.40 0067  02.08.2006

@<TRIPOS>MOLECULE
ASD06150005
 229  229    0    0    0
SMALL
NO_CHARGES


@<TRIPOS>ATOM
   1 C1            -3.0134     1.0697     1.3072 C.3     
   2 C2            -1.6977     1.8022     1.0369 C.3     
   3 C3            -1.9522     3.2864     0.9767 C.2     
   4 N4            -0.7449     1.5121     2.1167 N.3     
   5 O5            -1.3971     4.0261     1.7533 O.2     
   6 C6            -2.7819    -0.4181     1.2456 C.2     
   7 O7            -1.6778    -0.8484     1.0097 O.2     
   8 O8            -3.8023    -1.2652     1.4529 O.3     
   9 C9             1.4225     2.3024     3.8177 C.3     
  10 C10            1.5768     1.2606     2.7079 C.3     
  11 C11            1.3013    -0.1120     3.2656 C.2     
  12 N12            0.6240     1.5507     1.6281 N.3     
  13 O13            0.4000    -0.7826     2.8086 O.2     
  14 C14            1.8227     3.6793     3.2839 C.3     
  15 C15            1.6707     4.7055     4.3770 C.2     
  16 O16            1.2808     4.3687     5.4749 O.2     
  17 N17            1.9682     5.9975     4.1345 N.am    
  18 C18            2.5099    -2.9781     3.9662 C.3     
  19 C19            1.7886    -1.9288     4.8145 C.3     
  20 C20            2.2860    -2.0029     6.2351 C.2     
  21 N21            2.0565    -0.5944     4.2723 N.am    
  22 O22            2.8124    -1.0363     6.7445 O.2     
  23 C23            1.9179    -2.9882     2.5554 C.3     
  24 C24            2.6391    -4.0375     1.7072 C.3     
  25 C25            2.0471    -4.0476     0.2964 C.3     
  26 N26            2.7396    -5.0551    -0.5181 N.3     
  27 C27            1.5558    -2.6723     9.2658 C.3     
  28 C28            2.6294    -3.2154     8.3206 C.3     
  29 C29            2.9305    -4.6493     8.6732 C.2     
  30 N30            2.1459    -3.1433     6.9395 N.am    
  31 O31            2.7582    -5.5248     7.8519 O.2     
  32 C32            1.3394    -1.1831     8.9899 C.3     
  33 C33            0.2820    -0.6482     9.9209 C.2     
  34 O34           -0.2446    -1.3828    10.7228 O.2     
  35 O35           -0.0750     0.6443     9.8593 O.3     
  36 C36            4.9906    -6.8090     9.8943 C.3     
  37 C37            3.5797    -6.3610    10.2812 C.3     
  38 C38            3.3969    -6.5071    11.7699 C.2     
  39 N39            3.3913    -4.9587     9.9014 N.am    
  40 O40            3.3301    -5.5207    12.4724 O.2     
  41 C41            5.1322    -8.3132    10.1357 C.3     
  42 C42            4.2239    -9.0729     9.1668 C.3     
  43 C43            6.5858    -8.7318     9.9065 C.3     
  44 C44            1.7384    -7.7426    14.1967 C.3     
  45 C45            3.2028    -7.8783    13.7748 C.3     
  46 C46            3.7199    -9.2334    14.1836 C.2     
  47 N47            3.3074    -7.7340    12.3207 N.am    
  48 O48            4.1350   -10.0029    13.3431 O.2     
  49 O49            0.9838    -8.8280    13.6539 O.3     
  50 C50            5.7434   -10.8445    16.0482 C.3     
  51 C51            4.2239   -10.9077    15.8807 C.3     
  52 C52            3.5911   -11.3138    17.1867 C.2     
  53 N53            3.7212    -9.5903    15.4833 N.am    
  54 O54            2.7982   -10.5755    17.7319 O.2     
  55 S55            6.5051   -10.3556    14.4761 S.3     
  56 C56            1.9360   -13.5486    18.7464 C.3     
  57 C57            3.2910   -12.8922    19.0185 C.3     
  58 C58            4.1897   -13.8712    19.7292 C.2     
  59 N59            3.9062   -12.4975    17.7489 N.am    
  60 O60            5.2406   -14.2061    19.2249 O.2     
  61 C61            2.1359   -14.7866    17.8698 C.3     
  62 C62            0.7999   -15.5128    17.7006 C.3     
  63 C63            1.0236   -12.5548    18.0248 C.3     
  64 C64            5.7502   -14.5608    22.4228 C.3     
  65 C65            4.6992   -15.3261    21.6162 C.3     
  66 C66            3.8761   -16.1801    22.5460 C.2     
  67 N67            3.8256   -14.3745    20.9253 N.am    
  68 O68            2.6778   -16.0104    22.6238 O.2     
  69 C69            6.6650   -13.7911    21.4680 C.3     
  70 S70            7.9110   -12.8838    22.4244 S.3     
  71 C71            8.8830   -12.0491    21.1401 C.3     
  72 C72            3.0857   -19.1433    23.4182 C.3     
  73 C73            3.6716   -17.9624    24.1948 C.3     
  74 C74            4.5455   -18.4779    25.3091 C.2     
  75 N75            4.4718   -17.1323    23.2910 N.am    
  76 O76            5.7209   -18.1811    25.3448 O.2     
  77 C77            2.1167   -18.6326    22.3832 C.ar    
  78 C78            2.5651   -18.3183    21.1136 C.ar    
  79 C79            1.6789   -17.8500    20.1630 C.ar    
  80 C80            0.3379   -17.6953    20.4831 C.ar    
  81 C81           -0.1096   -18.0114    21.7577 C.ar    
  82 C82            0.7797   -18.4847    22.7030 C.ar    
  83 O83           -0.5359   -17.2344    19.5498 O.3     
  84 C84            4.9477   -18.7232    28.4626 C.3     
  85 C85            4.8703   -19.7699    27.3493 C.3     
  86 C86            4.2840   -21.0449    27.8985 C.2     
  87 N87            4.0208   -19.2687    26.2661 N.am    
  88 O88            3.2577   -21.4911    27.4311 O.2     
  89 C89            5.6560   -17.4725    27.9383 C.3     
  90 C90            5.7323   -16.4415    29.0348 C.2     
  91 O91            5.2660   -16.6833    30.1280 O.2     
  92 N92            6.3187   -15.2508    28.8007 N.am    
  93 C93            4.8009   -24.1130    28.5959 C.3     
  94 C94            4.3304   -22.9290    29.4430 C.3     
  95 C95            4.7850   -23.1182    30.8673 C.2     
  96 N96            4.9003   -21.6895    28.9091 N.am    
  97 O97            5.5133   -22.2985    31.3854 O.2     
  98 N98            4.1634   -25.0447    24.9776 N.pl3   
  99 C99            4.4532   -25.9995    24.0319 C.2     
 100 N100           3.9711   -25.8897    22.8259 N.2     
 101 N101           5.2516   -27.0701    24.3581 N.pl3   
 102 C102           4.2349   -23.9841    27.1803 C.3     
 103 C103           4.7054   -25.1681    26.3331 C.3     
 104 C104           3.8942   -23.6114    33.8888 C.3     
 105 C105           4.8241   -24.3825    32.9499 C.3     
 106 C106           4.7871   -25.8482    33.2984 C.2     
 107 N107           4.3822   -24.1985    31.5653 N.am    
 108 O108           4.4271   -26.6592    32.4717 O.2     
 109 O109           2.5835   -24.1777    33.8319 O.3     
 110 C110           6.1109   -27.9632    35.9976 C.3     
 111 C111           5.1182   -27.6825    34.8677 C.3     
 112 C112           3.7289   -28.0576    35.3150 C.2     
 113 N113           5.1542   -26.2577    34.5289 N.am    
 114 O114           2.8585   -27.2211    35.3474 O.2     
 115 S115           7.7833   -27.5118    35.4592 S.3     
 116 H116          -3.3827     1.3393     2.2967 H       
 117 H117          -3.7490     1.3544     0.5549 H       
 118 H118          -1.2832     1.4659     0.0865 H       
 119 H119          -2.6309     3.6884     0.2391 H       
 120 H120          -0.8707     2.1476     2.8903 H       
 121 H121          -3.6050    -2.2106     1.4032 H       
 122 H122           0.3845     2.3290     4.1494 H       
 123 H123           2.0655     2.0372     4.6570 H       
 124 H124           2.5929     1.2959     2.3151 H       
 125 H125           0.7498     0.9153     0.8544 H       
 126 H126           2.8606     3.6528     2.9522 H       
 127 H127           1.1797     3.9445     2.4446 H       
 128 H128           2.2800     6.2668     3.2564 H       
 129 H129           1.8704     6.6580     4.8381 H       
 130 H130           3.5712    -2.7355     3.9132 H       
 131 H131           2.3841    -3.9612     4.4200 H       
 132 H132           0.7158    -2.1204     4.7947 H       
 133 H133           2.7773    -0.0581     4.6379 H       
 134 H134           0.8565    -3.2308     2.6085 H       
 135 H135           2.0437    -2.0051     2.1016 H       
 136 H136           3.7005    -3.7949     1.6541 H       
 137 H137           2.5133    -5.0206     2.1610 H       
 138 H138           0.9858    -4.2902     0.3494 H       
 139 H139           2.1729    -3.0645    -0.1574 H       
 140 H140           2.6926    -5.9650    -0.0846 H       
 141 H141           2.3665    -5.0812    -1.4552 H       
 142 H142           0.6224    -3.2113     9.1034 H       
 143 H143           1.8786    -2.8074    10.2981 H       
 144 H144           3.5362    -2.6187     8.4196 H       
 145 H145           1.7249    -3.9164     6.5321 H       
 146 H146           2.2728    -0.6441     9.1523 H       
 147 H147           1.0167    -1.0479     7.9576 H       
 148 H148          -0.7576     0.9412    10.4766 H       
 149 H149           5.1644    -6.5922     8.8403 H       
 150 H150           5.7210    -6.2734    10.5007 H       
 151 H151           2.8471    -6.9795     9.7627 H       
 152 H152           3.5981    -4.2529    10.5338 H       
 153 H153           4.8446    -8.5453    11.1611 H       
 154 H154           4.5585    -8.9002     8.1439 H       
 155 H155           4.2676   -10.1393     9.3883 H       
 156 H156           3.1984    -8.7204     9.2780 H       
 157 H157           7.2330    -8.1906    10.5967 H       
 158 H158           6.6867    -9.8034    10.0784 H       
 159 H159           6.8735    -8.4997     8.8811 H       
 160 H160           1.6705    -7.7611    15.2845 H       
 161 H161           1.3386    -6.7997    13.8237 H       
 162 H162           3.7942    -7.1020    14.2604 H       
 163 H163           3.3124    -8.5214    11.7543 H       
 164 H164           0.0443    -8.8064    13.8815 H       
 165 H165           5.9942   -10.1130    16.8164 H       
 166 H166           6.1174   -11.8247    16.3438 H       
 167 H167           3.9731   -11.6392    15.1125 H       
 168 H168           3.3892    -8.9748    16.1555 H       
 169 H169           7.8181   -10.3415    14.7676 H       
 170 H170           1.4783   -13.8424    19.6910 H       
 171 H171           3.1486   -12.0103    19.6430 H       
 172 H172           4.5403   -13.0880    17.3129 H       
 173 H173           2.5108   -14.4830    16.8923 H       
 174 H174           2.8552   -15.4548    18.3433 H       
 175 H175           0.9424   -16.3948    17.0761 H       
 176 H176           0.4251   -15.8164    18.6780 H       
 177 H177           0.0806   -14.8447    17.2270 H       
 178 H178           0.0583   -13.0224    17.8309 H       
 179 H179           0.8812   -11.6728    18.6493 H       
 180 H180           1.4813   -12.2610    17.0802 H       
 181 H181           5.2537   -13.8602    23.0942 H       
 182 H182           6.3437   -15.2646    23.0064 H       
 183 H183           5.1958   -15.9618    20.8831 H       
 184 H184           2.9851   -14.1066    21.3287 H       
 185 H185           7.1615   -14.4918    20.7967 H       
 186 H186           6.0714   -13.0874    20.8845 H       
 187 H187           9.6750   -11.4635    21.6069 H       
 188 H188           9.3240   -12.7933    20.4770 H       
 189 H189           8.2339   -11.3889    20.5648 H       
 190 H190           3.8902   -19.6888    22.9249 H       
 191 H191           2.5647   -19.8084    24.1069 H       
 192 H192           2.8617   -17.3658    24.6146 H       
 193 H193           5.4302   -17.2680    23.2287 H       
 194 H194           3.6092   -18.4386    20.8650 H       
 195 H195           2.0297   -17.6043    19.1715 H       
 196 H196          -1.1530   -17.8918    22.0093 H       
 197 H197           0.4311   -18.7351    23.6940 H       
 198 H198          -0.9468   -17.9299    19.0183 H       
 199 H199           3.9402   -18.4615    28.7859 H       
 200 H200           5.5057   -19.1302    29.3058 H       
 201 H201           5.8712   -19.9662    26.9649 H       
 202 H202           3.0807   -19.5061    26.2375 H       
 203 H203           6.6635   -17.7342    27.6149 H       
 204 H204           5.0980   -17.0655    27.0951 H       
 205 H205           6.6916   -15.0575    27.9264 H       
 206 H206           6.3678   -14.5872    29.5065 H       
 207 H207           5.8900   -24.1187    28.5526 H       
 208 H208           4.4502   -25.0426    29.0441 H       
 209 H209           3.2423   -22.8708    29.4136 H       
 210 H210           5.7211   -21.3326    29.2829 H       
 211 H211           3.6002   -24.2893    24.7475 H       
 212 H212           4.1755   -26.5634    22.1586 H       
 213 H213           5.6105   -27.1518    25.2556 H       
 214 H214           5.4561   -27.7438    23.6909 H       
 215 H215           3.1458   -23.9784    27.2235 H       
 216 H216           4.5856   -23.0545    26.7320 H       
 217 H217           4.3547   -26.0977    26.7814 H       
 218 H218           5.7945   -25.1738    26.2898 H       
 219 H219           4.2735   -23.6749    34.9087 H       
 220 H220           3.8523   -22.5665    33.5812 H       
 221 H221           5.8422   -24.0086    33.0591 H       
 222 H222           3.7997   -24.8541    31.1510 H       
 223 H223           1.9397   -23.7375    34.4037 H       
 224 H224           5.8400   -27.3744    36.8740 H       
 225 H225           6.0842   -29.0234    36.2497 H       
 226 H226           5.3892   -28.2713    33.9914 H       
 227 H227           3.5115   -29.0745    35.6066 H       
 228 H228           5.4422   -25.6090    35.1901 H       
 229 H229           8.5370   -27.8068    36.5335 H       
@<TRIPOS>BOND
   1    1    6 1
   2    1    2 1
   3    1  116 1
   4    1  117 1
   5    2    3 1
   6    2    4 1
   7    2  118 1
   8    3    5 2
   9    3  119 1
  10    4   12 1
  11    4  120 1
  12    6    7 2
  13    6    8 1
  14    8  121 1
  15    9   14 1
  16    9   10 1
  17    9  122 1
  18    9  123 1
  19   10   12 1
  20   10   11 1
  21   10  124 1
  22   11   13 2
  23   11   21 am
  24   12  125 1
  25   14   15 1
  26   14  126 1
  27   14  127 1
  28   15   16 2
  29   15   17 am
  30   17  128 1
  31   17  129 1
  32   18   23 1
  33   18   19 1
  34   18  130 1
  35   18  131 1
  36   19   21 1
  37   19   20 1
  38   19  132 1
  39   20   22 2
  40   20   30 am
  41   21  133 1
  42   23   24 1
  43   23  134 1
  44   23  135 1
  45   24   25 1
  46   24  136 1
  47   24  137 1
  48   25   26 1
  49   25  138 1
  50   25  139 1
  51   26  140 1
  52   26  141 1
  53   27   32 1
  54   27   28 1
  55   27  142 1
  56   27  143 1
  57   28   30 1
  58   28   29 1
  59   28  144 1
  60   29   31 2
  61   29   39 am
  62   30  145 1
  63   32   33 1
  64   32  146 1
  65   32  147 1
  66   33   34 2
  67   33   35 1
  68   35  148 1
  69   36   41 1
  70   36   37 1
  71   36  149 1
  72   36  150 1
  73   37   39 1
  74   37   38 1
  75   37  151 1
  76   38   40 2
  77   38   47 am
  78   39  152 1
  79   41   42 1
  80   41   43 1
  81   41  153 1
  82   42  154 1
  83   42  155 1
  84   42  156 1
  85   43  157 1
  86   43  158 1
  87   43  159 1
  88   44   49 1
  89   44   45 1
  90   44  160 1
  91   44  161 1
  92   45   47 1
  93   45   46 1
  94   45  162 1
  95   46   48 2
  96   46   53 am
  97   47  163 1
  98   49  164 1
  99   50   55 1
 100   50   51 1
 101   50  165 1
 102   50  166 1
 103   51   52 1
 104   51   53 1
 105   51  167 1
 106   52   54 2
 107   52   59 am
 108   53  168 1
 109   55  169 1
 110   56   57 1
 111   56   61 1
 112   56   63 1
 113   56  170 1
 114   57   58 1
 115   57   59 1
 116   57  171 1
 117   58   60 2
 118   58   67 am
 119   59  172 1
 120   61   62 1
 121   61  173 1
 122   61  174 1
 123   62  175 1
 124   62  176 1
 125   62  177 1
 126   63  178 1
 127   63  179 1
 128   63  180 1
 129   64   69 1
 130   64   65 1
 131   64  181 1
 132   64  182 1
 133   65   66 1
 134   65   67 1
 135   65  183 1
 136   66   68 2
 137   66   75 am
 138   67  184 1
 139   69   70 1
 140   69  185 1
 141   69  186 1
 142   70   71 1
 143   71  187 1
 144   71  188 1
 145   71  189 1
 146   72   77 1
 147   72   73 1
 148   72  190 1
 149   72  191 1
 150   73   74 1
 151   73   75 1
 152   73  192 1
 153   74   76 2
 154   74   87 am
 155   75  193 1
 156   77   78 ar
 157   77   82 ar
 158   78   79 ar
 159   78  194 1
 160   79   80 ar
 161   79  195 1
 162   80   81 ar
 163   80   83 1
 164   81   82 ar
 165   81  196 1
 166   82  197 1
 167   83  198 1
 168   84   89 1
 169   84   85 1
 170   84  199 1
 171   84  200 1
 172   85   87 1
 173   85   86 1
 174   85  201 1
 175   86   88 2
 176   86   96 am
 177   87  202 1
 178   89   90 1
 179   89  203 1
 180   89  204 1
 181   90   91 2
 182   90   92 am
 183   92  205 1
 184   92  206 1
 185   93  102 1
 186   93   94 1
 187   93  207 1
 188   93  208 1
 189   94   96 1
 190   94   95 1
 191   94  209 1
 192   95   97 2
 193   95  107 am
 194   96  210 1
 195   98  103 1
 196   98   99 1
 197   98  211 1
 198   99  100 2
 199   99  101 1
 200  100  212 1
 201  101  213 1
 202  101  214 1
 203  102  103 1
 204  102  215 1
 205  102  216 1
 206  103  217 1
 207  103  218 1
 208  104  109 1
 209  104  105 1
 210  104  219 1
 211  104  220 1
 212  105  107 1
 213  105  106 1
 214  105  221 1
 215  106  108 2
 216  106  113 am
 217  107  222 1
 218  109  223 1
 219  110  115 1
 220  110  111 1
 221  110  224 1
 222  110  225 1
 223  111  112 1
 224  111  113 1
 225  111  226 1
 226  112  114 2
 227  112  227 1
 228  113  228 1
 229  115  229 1

#	End of record

