#	Name: ASD01880395
#	Creating user name:	WinNT
#	Creation time:	15. 06. 2019 19:40

#	Modifying user name:	WinNT
#	Modification time:	15. 06. 2019 19:40

#	Program:	/corina/corina34_cracker 3.40 0067  02.08.2006

@<TRIPOS>MOLECULE
ASD01880395
  49   50    0    0    0
SMALL
NO_CHARGES


@<TRIPOS>ATOM
   1 C1            -0.8739     1.0138    -0.3639 C.ar    
   2 N2            -0.6820    -0.2986    -0.3188 N.ar    
   3 C3            -1.7028    -1.1410    -0.3541 C.ar    
   4 C4            -3.0211    -0.6235    -0.4416 C.ar    
   5 C5            -3.1714     0.7647    -0.4863 C.ar    
   6 N6            -2.0811     1.5414    -0.4400 N.ar    
   7 C7            -4.2989    -1.3103    -0.4954 C.2     
   8 C8            -5.3497    -0.5185    -0.5750 C.2     
   9 S9            -4.8783     1.1704    -0.5927 S.3     
  10 C10           -6.7751    -1.0030    -0.6428 C.3     
  11 C11           -7.3385    -1.1298     0.7740 C.3     
  12 C12           -8.7857    -1.6218     0.7052 C.3     
  13 N13           -1.4873    -2.5062    -0.3067 N.pl3   
  14 C14           -0.1218    -3.0295    -0.2169 C.3     
  15 C15           -0.1631    -4.5585    -0.1797 C.3     
  16 N16            0.2257     1.8553    -0.3242 N.pl3   
  17 C17            2.2892    -7.6213     3.0269 C.3     
  18 C18            0.9817    -6.8728     3.0595 C.2     
  19 C19            0.6687    -6.0390     2.0734 C.2     
  20 C20            1.5987    -5.8467     0.9498 C.2     
  21 C21            1.2415    -5.0968    -0.0873 C.2     
  22 C22            1.5754     1.2930    -0.2338 C.3     
  23 C23            0.0388     3.3075    -0.3727 C.3     
  24 H24           -4.3822    -2.3869    -0.4722 H       
  25 H25           -7.3744    -0.2907    -1.2098 H       
  26 H26           -6.8052    -1.9755    -1.1342 H       
  27 H27           -6.7392    -1.8422     1.3410 H       
  28 H28           -7.3084    -0.1574     1.2654 H       
  29 H29           -9.1871    -1.7122     1.7146 H       
  30 H30           -9.3850    -0.9095     0.1382 H       
  31 H31           -8.8158    -2.5943     0.2138 H       
  32 H32           -2.2401    -3.1173    -0.3330 H       
  33 H33            0.4504    -2.7025    -1.0851 H       
  34 H34            0.3512    -2.6566     0.6915 H       
  35 H35           -0.7353    -4.8855     0.6884 H       
  36 H36           -0.6361    -4.9315    -1.0882 H       
  37 H37            2.3691    -8.2517     3.9126 H       
  38 H38            2.3293    -8.2438     2.1331 H       
  39 H39            3.1149    -6.9099     3.0116 H       
  40 H40            0.2990    -7.0140     3.8844 H       
  41 H41           -0.2683    -5.5026     2.0968 H       
  42 H42            2.5717    -6.3150     0.9679 H       
  43 H43            1.9577    -4.8731    -0.8641 H       
  44 H44            1.9677     1.1268    -1.2370 H       
  45 H45            2.2238     1.9885     0.2992 H       
  46 H46            1.5391     0.3455     0.3038 H       
  47 H47           -1.0252     3.5350    -0.4383 H       
  48 H48            0.4515     3.7573     0.5304 H       
  49 H49            0.5512     3.7108    -1.2461 H       
@<TRIPOS>BOND
   1    1    2 ar
   2    1   16 1
   3    1    6 ar
   4    2    3 ar
   5    3    4 ar
   6    3   13 1
   7    4    5 ar
   8    4    7 1
   9    5    6 ar
  10    5    9 1
  11    7    8 2
  12    7   24 1
  13    8    9 1
  14    8   10 1
  15   10   11 1
  16   10   25 1
  17   10   26 1
  18   11   12 1
  19   11   27 1
  20   11   28 1
  21   12   29 1
  22   12   30 1
  23   12   31 1
  24   13   14 1
  25   13   32 1
  26   14   15 1
  27   14   33 1
  28   14   34 1
  29   15   21 1
  30   15   35 1
  31   15   36 1
  32   16   22 1
  33   16   23 1
  34   17   18 1
  35   17   37 1
  36   17   38 1
  37   17   39 1
  38   18   19 2
  39   18   40 1
  40   19   20 1
  41   19   41 1
  42   20   21 2
  43   20   42 1
  44   21   43 1
  45   22   44 1
  46   22   45 1
  47   22   46 1
  48   23   47 1
  49   23   48 1
  50   23   49 1

#	End of record

