#	Name: ASD01883938
#	Creating user name:	WinNT
#	Creation time:	15. 06. 2019 19:47

#	Modifying user name:	WinNT
#	Modification time:	15. 06. 2019 19:47

#	Program:	/corina/corina34_cracker 3.40 0067  02.08.2006

@<TRIPOS>MOLECULE
ASD01883938
  50   53    0    0    0
SMALL
NO_CHARGES


@<TRIPOS>ATOM
   1 C1            -0.0168     1.3858     0.0097 C.ar    
   2 C2             0.0021    -0.0041     0.0020 C.ar    
   3 C3             1.2143    -0.6857    -0.0133 C.ar    
   4 C4             2.4007     0.0150    -0.0204 C.ar    
   5 C5             2.3859     1.4102    -0.0128 C.ar    
   6 C6             1.1679     2.0927     0.0021 C.ar    
   7 N7            -1.1974    -0.7167     0.0102 N.pl3   
   8 C8            -1.1792    -2.1816     0.0021 C.3     
   9 C9            -2.4861    -2.7046    -0.5973 C.3     
  10 C10           -1.0328    -2.6977     1.4350 C.3     
  11 C11           -1.0138    -4.2275     1.4266 C.3     
  12 C12           -2.3207    -4.7506     0.8271 C.3     
  13 C13           -2.4670    -4.2345    -0.6057 C.3     
  14 O14           -2.3029    -6.1794     0.8193 O.3     
  15 Cl15           1.1443     3.8285     0.0111 Cl      
  16 C16            3.6597     2.1658    -0.0200 C.2     
  17 C17            4.0933     2.7945    -1.1736 C.2     
  18 C18            5.3075     3.5055    -1.1501 C.2     
  19 N19            6.0393     3.5651     0.0081 N.pl3   
  20 C20            5.6032     2.9410     1.1430 C.2     
  21 C21            4.4439     2.2575     1.1552 C.2     
  22 Cl22           3.1529     2.7069    -2.6302 Cl      
  23 N23            5.9570     4.1906    -2.0824 N.2     
  24 C24            7.0802     4.6865    -1.5588 C.2     
  25 C25            7.1546     4.3125    -0.2626 C.2     
  26 C26            8.2584     4.6544     0.7048 C.3     
  27 C27            7.9858     6.0259     1.3256 C.3     
  28 F28            6.7632     5.9957     2.0049 F       
  29 F29            9.0105     6.3433     2.2237 F       
  30 F30            7.9346     6.9930     0.3160 F       
  31 H31           -0.9595     1.9126     0.0170 H       
  32 H32            1.2258    -1.7657    -0.0192 H       
  33 H33            3.3415    -0.5154    -0.0316 H       
  34 H34           -2.0434    -0.2423     0.0211 H       
  35 H35           -0.3388    -2.5312    -0.5976 H       
  36 H36           -3.3264    -2.3550     0.0024 H       
  37 H37           -2.5904    -2.3369    -1.6181 H       
  38 H38           -0.1017    -2.3251     1.8620 H       
  39 H39           -1.8731    -2.3481     2.0347 H       
  40 H40           -0.1734    -4.5772     0.8269 H       
  41 H41           -0.9095    -4.5952     2.4474 H       
  42 H42           -3.1610    -4.4009     1.4269 H       
  43 H43           -3.3981    -4.6071    -1.0328 H       
  44 H44           -1.6267    -4.5841    -1.2055 H       
  45 H45           -3.1022    -6.5807     0.4518 H       
  46 H46            6.1953     3.0008     2.0443 H       
  47 H47            4.1152     1.7705     2.0614 H       
  48 H48            7.8087     5.2864    -2.0840 H       
  49 H49            8.2983     3.9009     1.4915 H       
  50 H50            9.2110     4.6779     0.1756 H       
@<TRIPOS>BOND
   1    1    2 ar
   2    1    6 ar
   3    1   31 1
   4    2    3 ar
   5    2    7 1
   6    3    4 ar
   7    3   32 1
   8    4    5 ar
   9    4   33 1
  10    5    6 ar
  11    5   16 1
  12    6   15 1
  13    7    8 1
  14    7   34 1
  15    8    9 1
  16    8   10 1
  17    8   35 1
  18    9   13 1
  19    9   36 1
  20    9   37 1
  21   10   11 1
  22   10   38 1
  23   10   39 1
  24   11   12 1
  25   11   40 1
  26   11   41 1
  27   12   13 1
  28   12   14 1
  29   12   42 1
  30   13   43 1
  31   13   44 1
  32   14   45 1
  33   16   17 2
  34   16   21 1
  35   17   18 1
  36   17   22 1
  37   18   19 1
  38   18   23 2
  39   19   20 1
  40   19   25 1
  41   20   21 2
  42   20   46 1
  43   21   47 1
  44   23   24 1
  45   24   25 2
  46   24   48 1
  47   25   26 1
  48   26   27 1
  49   26   49 1
  50   26   50 1
  51   27   28 1
  52   27   29 1
  53   27   30 1

#	End of record

