#	Name: ASD03090784
#	Creating user name:	WinNT
#	Creation time:	15. 06. 2019 20:29

#	Modifying user name:	WinNT
#	Modification time:	15. 06. 2019 20:29

#	Program:	/corina/corina34_cracker 3.40 0067  02.08.2006

@<TRIPOS>MOLECULE
ASD03090784
  22   20    0    0    0
SMALL
NO_CHARGES


@<TRIPOS>ATOM
   1 O1            -0.4229     1.3623     0.7129 O.3     
   2 C2            -0.3684    -0.0511     0.5095 C.3     
   3 C3            -1.7609    -0.5676     0.1420 C.3     
   4 N4            -2.1438    -0.0470    -1.1772 N.4     
   5 C5            -1.1149    -0.4055    -2.1626 C.3     
   6 C6            -3.4309    -0.6301    -1.5790 C.3     
   7 C7            -2.2685     1.4151    -1.1094 C.3     
   8 H8             0.4268     1.7587     0.9495 H       
   9 H9             0.3274    -0.2753    -0.2990 H       
  10 H10           -0.0306    -0.5371     1.4249 H       
  11 H11           -1.7484    -1.6571     0.1130 H       
  12 H12           -2.4814    -0.2322     0.8880 H       
  13 H13           -1.0224    -1.4904    -2.2129 H       
  14 H14           -1.3990    -0.0192    -3.1414 H       
  15 H15           -0.1599     0.0271    -1.8644 H       
  16 H16           -4.1943    -0.3641    -0.8479 H       
  17 H17           -3.7150    -0.2438    -2.5579 H       
  18 H18           -3.3383    -1.7150    -1.6294 H       
  19 H19           -1.2810     1.8584    -0.9811 H       
  20 H20           -2.7157     1.7848    -2.0320 H       
  21 H21           -2.9013     1.6870    -0.2645 H       
  22 Cl22           5.4268     6.8584     6.4249 Cl      
@<TRIPOS>BOND
   1    1    2 1
   2    1    8 1
   3    2    3 1
   4    2    9 1
   5    2   10 1
   6    3    4 1
   7    3   11 1
   8    3   12 1
   9    4    5 1
  10    4    6 1
  11    4    7 1
  12    5   13 1
  13    5   14 1
  14    5   15 1
  15    6   16 1
  16    6   17 1
  17    6   18 1
  18    7   19 1
  19    7   20 1
  20    7   21 1

#	End of record

