#	Name: ASD01560024
#	Creating user name:	WinNT
#	Creation time:	15. 06. 2019 19:22

#	Modifying user name:	WinNT
#	Modification time:	15. 06. 2019 19:22

#	Program:	/corina/corina34_cracker 3.40 0067  02.08.2006

@<TRIPOS>MOLECULE
ASD01560024
  28   30    0    0    0
SMALL
NO_CHARGES


@<TRIPOS>ATOM
   1 O1             0.0021    -0.0041     0.0020 O.2     
   2 C2            -0.0144     1.2117     0.0087 C.2     
   3 N3             1.1471     1.8906     0.0013 N.am    
   4 C4             1.1546     3.2600     0.0090 C.2     
   5 C5             2.4615     4.0103     0.0005 C.3     
   6 S6             3.2207     3.9182     1.6411 S.3     
   7 C7             4.6879     4.8501     1.3520 C.2     
   8 N8             4.9136     5.3610     0.1616 N.2     
   9 C9             6.0393     6.0795    -0.0694 C.2     
  10 C10            6.5323     6.7195    -1.1878 C.2     
  11 C11            7.7495     7.3034    -0.8374 C.2     
  12 N12            7.9979     7.0423     0.4216 N.2     
  13 N13            6.9479     6.2761     0.9394 N.am    
  14 C14            6.7136     5.7515     2.1582 C.2     
  15 O15            7.5116     5.9191     3.0598 O.2     
  16 N16            5.5862     5.0431     2.3731 N.am    
  17 C17           -0.0152     3.9348     0.0238 C.2     
  18 C18           -1.2304     3.2069     0.0310 C.2     
  19 O19           -2.2979     3.7930     0.0440 O.2     
  20 N20           -1.1944     1.8590     0.0179 N.am    
  21 Cl21          -0.0294     5.6707     0.0344 Cl      
  22 H22            1.9871     1.4056    -0.0094 H       
  23 H23            3.1313     3.5651    -0.7352 H       
  24 H24            2.2800     5.0535    -0.2577 H       
  25 H25            6.0612     6.7606    -2.1587 H       
  26 H26            8.3840     7.8768    -1.4970 H       
  27 H27            5.4128     4.6633     3.2487 H       
  28 H28           -2.0224     1.3537     0.0227 H       
@<TRIPOS>BOND
   1    1    2 2
   2    2    3 am
   3    2   20 am
   4    3    4 1
   5    3   22 1
   6    4    5 1
   7    4   17 2
   8    5    6 1
   9    5   23 1
  10    5   24 1
  11    6    7 1
  12    7    8 2
  13    7   16 1
  14    8    9 1
  15    9   10 2
  16    9   13 1
  17   10   11 1
  18   10   25 1
  19   11   12 2
  20   11   26 1
  21   12   13 1
  22   13   14 am
  23   14   15 2
  24   14   16 am
  25   16   27 1
  26   17   18 1
  27   17   21 1
  28   18   19 2
  29   18   20 am
  30   20   28 1

#	End of record

