#	Name: ASD01900555
#	Creating user name:	WinNT
#	Creation time:	15. 06. 2019 19:52

#	Modifying user name:	WinNT
#	Modification time:	15. 06. 2019 19:52

#	Program:	/corina/corina34_cracker 3.40 0067  02.08.2006

@<TRIPOS>MOLECULE
ASD01900555
  50   53    0    0    0
SMALL
NO_CHARGES


@<TRIPOS>ATOM
   1 C1             0.9850     3.1569     0.7507 C.ar    
   2 C2             2.0487     3.6068     1.5302 C.ar    
   3 C3             3.2477     2.9129     1.4977 C.ar    
   4 C4             3.3417     1.7926     0.6865 C.ar    
   5 C5             2.2432     1.4021    -0.0622 C.ar    
   6 N6             1.1166     2.0791    -0.0127 N.ar    
   7 C7            -0.3053     3.8839     0.7789 C.2     
   8 O8            -0.4328     4.8684     1.4799 O.2     
   9 N9            -1.3378     3.4535     0.0271 N.am    
  10 C10           -2.5849     4.0804     0.1267 C.ar    
  11 C11           -2.6583     5.4515     0.3376 C.ar    
  12 C12           -3.8894     6.0698     0.4354 C.ar    
  13 C13           -5.0541     5.3200     0.3227 C.ar    
  14 C14           -4.9801     3.9503     0.1121 C.ar    
  15 C15           -3.7494     3.3328     0.0090 C.ar    
  16 N16           -8.1498     6.7493     1.3923 N.am    
  17 C17           -6.9735     6.1167     1.5706 C.2     
  18 N18           -6.3054     5.9481     0.4225 N.am    
  19 C19           -6.9842     6.4577    -0.6266 C.2     
  20 C20           -8.2581     7.0245    -0.0445 C.3     
  21 C21           -9.4715     6.2744    -0.6305 C.3     
  22 C22          -10.6446     6.3849     0.2261 C.3     
  23 C23          -11.1144     7.8420     0.4007 C.3     
  24 C24          -10.2522     8.4962     1.4453 C.3     
  25 C25           -9.0630     9.2606     0.8312 C.3     
  26 C26           -8.3966     8.4929    -0.3308 C.3     
  27 O27           -6.6438     6.4601    -1.7903 O.2     
  28 O28           -6.5647     5.7417     2.6520 O.2     
  29 Cl29          -3.9820     7.7831     0.6994 Cl      
  30 H30            1.9403     4.4842     2.1506 H       
  31 H31            4.0900     3.2376     2.0905 H       
  32 H32            4.2622     1.2299     0.6384 H       
  33 H33            2.3129     0.5298    -0.6952 H       
  34 H34           -1.2164     2.7092    -0.5830 H       
  35 H35           -1.7530     6.0337     0.4254 H       
  36 H36           -5.8853     3.3679     0.0246 H       
  37 H37           -3.6923     2.2675    -0.1593 H       
  38 H38           -8.7983     6.9744     2.0777 H       
  39 H39           -9.7069     6.6910    -1.6098 H       
  40 H40           -9.2152     5.2214    -0.7469 H       
  41 H41          -11.4561     5.8029    -0.2108 H       
  42 H42          -10.4054     5.9719     1.2061 H       
  43 H43          -11.0148     8.3756    -0.5445 H       
  44 H44          -12.1556     7.8559     0.7228 H       
  45 H45          -10.8616     9.1940     2.0196 H       
  46 H46           -9.8690     7.7288     2.1179 H       
  47 H47           -9.4168    10.2225     0.4602 H       
  48 H48           -8.3194     9.4375     1.6082 H       
  49 H49           -7.4065     8.9124    -0.5088 H       
  50 H50           -8.9990     8.6216    -1.2300 H       
@<TRIPOS>BOND
   1    1    2 ar
   2    1    6 ar
   3    1    7 1
   4    2    3 ar
   5    2   30 1
   6    3    4 ar
   7    3   31 1
   8    4    5 ar
   9    4   32 1
  10    5    6 ar
  11    5   33 1
  12    7    8 2
  13    7    9 am
  14    9   10 1
  15    9   34 1
  16   10   11 ar
  17   10   15 ar
  18   11   12 ar
  19   11   35 1
  20   12   13 ar
  21   12   29 1
  22   13   14 ar
  23   13   18 1
  24   14   15 ar
  25   14   36 1
  26   15   37 1
  27   16   17 am
  28   16   20 1
  29   16   38 1
  30   17   18 am
  31   17   28 2
  32   18   19 am
  33   19   20 1
  34   19   27 2
  35   20   21 1
  36   20   26 1
  37   21   22 1
  38   21   39 1
  39   21   40 1
  40   22   23 1
  41   22   41 1
  42   22   42 1
  43   23   24 1
  44   23   43 1
  45   23   44 1
  46   24   25 1
  47   24   45 1
  48   24   46 1
  49   25   26 1
  50   25   47 1
  51   25   48 1
  52   26   49 1
  53   26   50 1

#	End of record

