#	Name: ASD01820155
#	Creating user name:	WinNT
#	Creation time:	15. 06. 2019 19:36

#	Modifying user name:	WinNT
#	Modification time:	15. 06. 2019 19:36

#	Program:	/corina/corina34_cracker 3.40 0067  02.08.2006

@<TRIPOS>MOLECULE
ASD01820155
 112  126    0    0    0
SMALL
NO_CHARGES


@<TRIPOS>ATOM
   1 N1             0.5707     1.4549     0.4336 N.3     
   2 C2             0.5002     0.0973     0.8226 C.3     
   3 C3             1.4975    -0.5008     1.8057 C.3     
   4 C4             2.7814     0.3242     1.9366 C.3     
   5 N5             3.6337     0.0170     0.7925 N.3     
   6 C6             3.3319     0.3379    -0.5482 C.3     
   7 C7             2.5755     1.6062    -0.9113 C.3     
   8 C8             1.8079     2.2143     0.2689 C.3     
   9 C9             3.6719    -0.2754     3.0605 C.3     
  10 C10            4.2903    -1.4543     2.4152 C.ar    
  11 C11            4.2394    -1.2107     1.0243 C.ar    
  12 C12            4.8448    -2.6091     2.9257 C.ar    
  13 C13            5.3565    -3.5346     2.0240 C.ar    
  14 C14            5.3093    -3.3050     0.6638 C.ar    
  15 C15            4.7541    -2.1492     0.1348 C.ar    
  16 C16            3.6090     2.6066    -1.4351 C.3     
  17 C17            2.9481     3.8793    -1.9492 C.3     
  18 C18            2.2062     4.5146    -0.8010 C.3     
  19 C19            1.1964     3.5719    -0.1691 C.3     
  20 C20            0.0241     3.1751    -0.9759 C.ar    
  21 C21           -0.3278     1.8805    -0.5347 C.ar    
  22 C22           -0.6893     3.8161    -1.9688 C.ar    
  23 C23           -1.7836     3.1517    -2.5088 C.ar    
  24 C24           -2.1448     1.8936    -2.0710 C.ar    
  25 C25           -1.4309     1.2314    -1.0830 C.ar    
  26 C26            0.8067     4.3996     1.0830 C.3     
  27 C27            4.4873     2.9598    -0.2521 C.2     
  28 N28            3.0617     4.9658     0.3044 N.4     
  29 C29            4.1759     4.0954     0.6486 C.3     
  30 C30            2.1825     4.9673     1.5214 C.3     
  31 H31            1.6663     5.3826    -1.1783 H       
  32 H32            2.4318     2.3870     1.1360 H       
  33 H33            1.8664     1.3878    -1.7211 H       
  34 H34            4.2048     2.1577    -2.2276 H       
  35 O35            4.5330     0.2337    -1.3462 O.3     
  36 C36            5.4787     2.1273    -0.0479 C.2     
  37 C37            5.6636     0.9268    -0.8801 C.3     
  38 H38            2.6927    -0.4987    -0.9066 H       
  39 H39            2.5938     1.3641     2.1815 H       
  40 O40           -0.8454    -0.1897     1.2751 O.3     
  41 C41            2.9348    -0.5087     4.3650 C.3     
  42 C42            0.8000    -0.5964     3.1637 C.3     
  43 C43            1.6736    -1.3164     4.1832 C.3     
  44 H44            1.7566    -1.5191     1.4816 H       
  45 C45            0.5791     0.8252     3.6360 C.2     
  46 C46            1.5066     1.4988     4.5748 C.3     
  47 N47            2.7355     0.8206     4.9514 N.4     
  48 C48            4.7061     0.7916     3.4971 C.3     
  49 C49            3.8637     1.6692     4.4577 C.3     
  50 H50            3.5990    -1.0651     5.0293 H       
  51 H51           -0.1524    -1.1146     3.0678 H       
  52 C52           -0.4855     1.4044     3.1404 C.2     
  53 C53           -1.3888     0.7269     2.1961 C.3     
  54 H54            0.6100    -0.4847    -0.1120 H       
  55 C55            3.5446     6.3265     0.0444 C.3     
  56 C56            2.8088     0.7228     6.4201 C.3     
  57 C57            4.2311     6.3682    -1.2965 C.ar    
  58 C58            3.5077     6.6801    -2.4345 C.ar    
  59 C59            4.1383     6.7187    -3.6681 C.ar    
  60 C60            5.4936     6.4454    -3.7618 C.ar    
  61 C61            6.2172     6.1337    -2.6219 C.ar    
  62 C62            5.5859     6.1002    -1.3885 C.ar    
  63 C63            2.4711     2.0589     7.0300 C.ar    
  64 C64            1.1646     2.3468     7.3849 C.ar    
  65 C65            0.8531     3.5753     7.9459 C.ar    
  66 C66            1.8502     4.5153     8.1518 C.ar    
  67 C67            3.1580     4.2261     7.7966 C.ar    
  68 C68            3.4685     2.9952     7.2402 C.ar    
  69 F69            6.2912     5.7963    -0.2770 F       
  70 F70            2.1864     6.9466    -2.3429 F       
  71 F71            3.4319     7.0223    -4.7789 F       
  72 F72            6.1090     6.4824    -4.9640 F       
  73 F73            7.5384     5.8667    -2.7123 F       
  74 F74            0.1926     1.4302     7.1841 F       
  75 F75            4.7435     2.7130     6.8938 F       
  76 F76            4.1309     5.1420     7.9965 F       
  77 F77            1.5474     5.7132     8.6981 F       
  78 F78           -0.4223     3.8565     8.2914 F       
  79 H79            4.8806    -2.7813     3.9914 H       
  80 H80            5.8023    -4.4455     2.3964 H       
  81 H81            5.7197    -4.0440    -0.0076 H       
  82 H82            4.7220    -1.9866    -0.9320 H       
  83 H83            3.7061     4.5644    -2.3291 H       
  84 H84            2.2464     3.6331    -2.7475 H       
  85 H85           -0.4039     4.8010    -2.3084 H       
  86 H86           -2.3645     3.6327    -3.2818 H       
  87 H87           -3.0080     1.4133    -2.5065 H       
  88 H88           -1.7222     0.2453    -0.7539 H       
  89 H89            0.1264     5.2052     0.8139 H       
  90 H90            0.3868     3.7598     1.8549 H       
  91 H91            4.0224     3.6931     1.6462 H       
  92 H92            5.0704     4.7236     0.6981 H       
  93 H93            2.0551     5.9931     1.8748 H       
  94 H94            2.6042     4.3560     2.3107 H       
  95 H95            6.1770     2.3164     0.7488 H       
  96 H96            6.2706     0.2246    -0.3095 H       
  97 H97            6.2513     1.2219    -1.7492 H       
  98 H98            1.9247    -2.3112     3.8144 H       
  99 H99            1.1451    -1.3999     5.1321 H       
 100 H100           1.7571     2.4695     4.1502 H       
 101 H101           0.9495     1.6970     5.4948 H       
 102 H102           5.5354     0.3266     4.0281 H       
 103 H103           5.0537     1.3691     2.6450 H       
 104 H104           3.4936     2.5447     3.9312 H       
 105 H105           4.4845     1.9830     5.3001 H       
 106 H106          -0.7112     2.4184     3.4269 H       
 107 H107          -1.9129     1.4957     1.6303 H       
 108 H108          -2.1390     0.1967     2.7843 H       
 109 H109           2.7013     7.0171     0.0425 H       
 110 H110           4.2500     6.6166     0.8230 H       
 111 H111           2.0987    -0.0263     6.7703 H       
 112 H112           3.8174     0.4333     6.7151 H       
@<TRIPOS>BOND
   1    1    2 1
   2    1    8 1
   3    1   21 1
   4    2    3 1
   5    2   40 1
   6    2   54 1
   7    3    4 1
   8    3   44 1
   9    3   42 1
  10    4    5 1
  11    4    9 1
  12    4   39 1
  13    5    6 1
  14    5   11 1
  15    6    7 1
  16    6   35 1
  17    6   38 1
  18    7    8 1
  19    7   33 1
  20    7   16 1
  21    8   19 1
  22    8   32 1
  23    9   10 1
  24    9   41 1
  25    9   48 1
  26   10   11 ar
  27   10   12 ar
  28   11   15 ar
  29   12   13 ar
  30   12   79 1
  31   13   14 ar
  32   13   80 1
  33   14   15 ar
  34   14   81 1
  35   15   82 1
  36   16   17 1
  37   16   27 1
  38   16   34 1
  39   17   18 1
  40   17   83 1
  41   17   84 1
  42   18   19 1
  43   18   28 1
  44   18   31 1
  45   19   20 1
  46   19   26 1
  47   20   21 ar
  48   20   22 ar
  49   21   25 ar
  50   22   23 ar
  51   22   85 1
  52   23   24 ar
  53   23   86 1
  54   24   25 ar
  55   24   87 1
  56   25   88 1
  57   26   30 1
  58   26   89 1
  59   26   90 1
  60   27   36 2
  61   27   29 1
  62   28   29 1
  63   28   55 1
  64   28   30 1
  65   29   91 1
  66   29   92 1
  67   30   93 1
  68   30   94 1
  69   35   37 1
  70   36   37 1
  71   36   95 1
  72   37   96 1
  73   37   97 1
  74   40   53 1
  75   41   47 1
  76   41   50 1
  77   41   43 1
  78   42   43 1
  79   42   45 1
  80   42   51 1
  81   43   98 1
  82   43   99 1
  83   45   46 1
  84   45   52 2
  85   46   47 1
  86   46  100 1
  87   46  101 1
  88   47   56 1
  89   47   49 1
  90   48   49 1
  91   48  102 1
  92   48  103 1
  93   49  104 1
  94   49  105 1
  95   52   53 1
  96   52  106 1
  97   53  107 1
  98   53  108 1
  99   55   57 1
 100   55  109 1
 101   55  110 1
 102   56   63 1
 103   56  111 1
 104   56  112 1
 105   57   58 ar
 106   57   62 ar
 107   58   59 ar
 108   58   70 1
 109   59   60 ar
 110   59   71 1
 111   60   61 ar
 112   60   72 1
 113   61   62 ar
 114   61   73 1
 115   62   69 1
 116   63   64 ar
 117   63   68 ar
 118   64   65 ar
 119   64   74 1
 120   65   66 ar
 121   65   78 1
 122   66   67 ar
 123   66   77 1
 124   67   68 ar
 125   67   76 1
 126   68   75 1

#	End of record

