#	Name: ASD00100067
#	Creating user name:	WinNT
#	Creation time:	15. 06. 2019 18:30

#	Modifying user name:	WinNT
#	Modification time:	15. 06. 2019 18:30

#	Program:	/corina/corina34_cracker 3.40 0067  02.08.2006

@<TRIPOS>MOLECULE
ASD00100067
  77   82    0    0    0
SMALL
NO_CHARGES


@<TRIPOS>ATOM
   1 C1            -0.0168     1.3903     0.0097 C.ar    
   2 C2             0.0021    -0.0041     0.0020 C.ar    
   3 N3             1.1280     2.0720     0.0024 N.ar    
   4 N4             1.1544    -0.6482    -0.0124 N.ar    
   5 C5             2.2949     0.0319    -0.0197 C.ar    
   6 C6             2.2755     1.4302    -0.0120 C.ar    
   7 C7            -1.3069     2.1120     0.0197 C.2     
   8 O8            -2.3513     1.4900     0.0213 O.2     
   9 N9            -1.3251     3.4596     0.0271 N.am    
  10 C10           -2.6036     4.1749     0.0370 C.3     
  11 C11           -2.4074     5.5615     0.6533 C.3     
  12 C12           -3.7426     6.3085     0.6637 C.3     
  13 C13           -4.2559     6.4556    -0.7702 C.3     
  14 C14           -4.4520     5.0690    -1.3864 C.3     
  15 C15           -3.1168     4.3220    -1.3968 C.3     
  16 C16           -5.5911     7.2026    -0.7598 C.3     
  17 C17           -6.0430     7.4594    -2.1988 C.3     
  18 N18           -7.3249     8.1766    -2.1888 N.3     
  19 C19           -7.6743     8.6487    -3.5348 C.3     
  20 C20           -8.9356     9.5124    -3.4624 C.3     
  21 C21          -10.0829     8.6838    -2.8780 C.3     
  22 C22           -9.6747     8.1640    -1.4968 C.3     
  23 C23           -8.3920     7.3393    -1.6261 C.3     
  24 O24          -12.6784    11.1649    -2.1505 O.3     
  25 C25          -11.4362    10.6663    -2.0237 C.2     
  26 C26          -11.3119     9.5462    -2.7485 C.2     
  27 C27          -12.6134     9.3284    -3.3915 C.ar    
  28 C28          -13.4255    10.3930    -2.9654 C.ar    
  29 C29          -13.1244     8.3594    -4.2532 C.ar    
  30 C30          -14.4296     8.4521    -4.6841 C.ar    
  31 C31          -15.2319     9.5028    -4.2639 C.ar    
  32 C32          -14.7386    10.4677    -3.4117 C.ar    
  33 N33            3.5031    -0.6432    -0.0344 N.3     
  34 C34            3.2934    -2.0983    -0.0398 C.3     
  35 C35            4.6501    -2.8037    -0.1163 C.3     
  36 O36            5.4654    -2.3782     0.9789 O.3     
  37 C37            5.6906    -0.9663     1.0145 C.3     
  38 C38            4.3445    -0.2423     1.1025 C.3     
  39 H39           -0.9257    -0.5569     0.0083 H       
  40 H40            3.2032     1.9831    -0.0179 H       
  41 H41           -0.4917     3.9559     0.0259 H       
  42 H42           -3.3289     3.6144     0.6269 H       
  43 H43           -2.0418     5.4567     1.6748 H       
  44 H44           -1.6821     6.1219     0.0635 H       
  45 H45           -4.4679     5.7480     1.2535 H       
  46 H46           -3.6029     7.2963     1.1027 H       
  47 H47           -3.5306     7.0160    -1.3600 H       
  48 H48           -5.1773     4.5085    -0.7966 H       
  49 H49           -4.8176     5.1738    -2.4079 H       
  50 H50           -2.3915     4.8824    -1.9866 H       
  51 H51           -3.2565     3.3341    -1.8358 H       
  52 H52           -6.3403     6.6005    -0.2457 H       
  53 H53           -5.4712     8.1539    -0.2413 H       
  54 H54           -5.2938     8.0615    -2.7129 H       
  55 H55           -6.1629     6.5081    -2.7172 H       
  56 H56           -6.8518     9.2400    -3.9372 H       
  57 H57           -7.8573     7.7923    -4.1838 H       
  58 H58           -8.7489    10.3763    -2.8245 H       
  59 H59           -9.2035     9.8497    -4.4637 H       
  60 H60          -10.2957     7.8412    -3.5360 H       
  61 H61           -9.4997     9.0067    -0.8280 H       
  62 H62          -10.4708     7.5379    -1.0937 H       
  63 H63           -8.5717     6.4891    -2.2841 H       
  64 H64           -8.0908     6.9796    -0.6423 H       
  65 H65          -10.6521    11.1051    -1.4244 H       
  66 H66          -12.5008     7.5411    -4.5815 H       
  67 H67          -14.8298     7.7038    -5.3522 H       
  68 H68          -16.2536     9.5659    -4.6082 H       
  69 H69          -15.3728    11.2810    -3.0912 H       
  70 H70            2.7798    -2.3954     0.8746 H       
  71 H71            2.6896    -2.3759    -0.9038 H       
  72 H72            4.5030    -3.8824    -0.0630 H       
  73 H73            5.1404    -2.5485    -1.0558 H       
  74 H74            6.2960    -0.7162     1.8857 H       
  75 H75            6.2112    -0.6578     0.1079 H       
  76 H76            4.5079     0.8349     1.0724 H       
  77 H77            3.8477    -0.5098     2.0352 H       
@<TRIPOS>BOND
   1    1    2 ar
   2    1    3 ar
   3    1    7 1
   4    2    4 ar
   5    2   39 1
   6    3    6 ar
   7    4    5 ar
   8    5    6 ar
   9    5   33 1
  10    6   40 1
  11    7    8 2
  12    7    9 am
  13    9   10 1
  14    9   41 1
  15   10   11 1
  16   10   15 1
  17   10   42 1
  18   11   12 1
  19   11   43 1
  20   11   44 1
  21   12   13 1
  22   12   45 1
  23   12   46 1
  24   13   14 1
  25   13   16 1
  26   13   47 1
  27   14   15 1
  28   14   48 1
  29   14   49 1
  30   15   50 1
  31   15   51 1
  32   16   17 1
  33   16   52 1
  34   16   53 1
  35   17   18 1
  36   17   54 1
  37   17   55 1
  38   18   19 1
  39   18   23 1
  40   19   20 1
  41   19   56 1
  42   19   57 1
  43   20   21 1
  44   20   58 1
  45   20   59 1
  46   21   22 1
  47   21   26 1
  48   21   60 1
  49   22   23 1
  50   22   61 1
  51   22   62 1
  52   23   63 1
  53   23   64 1
  54   24   25 1
  55   24   28 1
  56   25   26 2
  57   25   65 1
  58   26   27 1
  59   27   28 ar
  60   27   29 ar
  61   28   32 ar
  62   29   30 ar
  63   29   66 1
  64   30   31 ar
  65   30   67 1
  66   31   32 ar
  67   31   68 1
  68   32   69 1
  69   33   34 1
  70   33   38 1
  71   34   35 1
  72   34   70 1
  73   34   71 1
  74   35   36 1
  75   35   72 1
  76   35   73 1
  77   36   37 1
  78   37   38 1
  79   37   74 1
  80   37   75 1
  81   38   76 1
  82   38   77 1

#	End of record

