#	Name: ASD03331292
#	Creating user name:	WinNT
#	Creation time:	15. 06. 2019 20:38

#	Modifying user name:	WinNT
#	Modification time:	15. 06. 2019 20:38

#	Program:	/corina/corina34_cracker 3.40 0067  02.08.2006

@<TRIPOS>MOLECULE
ASD03331292
  46   48    0    0    0
SMALL
NO_CHARGES


@<TRIPOS>ATOM
   1 N1            -0.0459     1.4956     0.5698 N.am    
   2 C2             0.0019     0.1506     1.1631 C.3     
   3 C3             0.5966    -0.8151     0.1327 C.3     
   4 N4             1.8894    -0.2950    -0.3322 N.3     
   5 C5             1.7288     0.9911    -1.0237 C.3     
   6 C6             1.1805     2.0309    -0.0406 C.3     
   7 C7            -1.1849     2.2161     0.5803 C.2     
   8 O8            -2.2139     1.7207     0.9973 O.2     
   9 N9            -1.1831     3.4859     0.1284 N.am    
  10 C10           -2.3851     4.1963     0.0330 C.ar    
  11 C11           -2.4015     5.5681     0.2480 C.ar    
  12 C12            2.5723    -1.2723    -1.1903 C.3     
  13 C13            3.7830    -0.6116    -1.8524 C.3     
  14 C14            4.1190    -1.7427    -4.0599 C.ar    
  15 C15            4.4836    -1.6142    -2.7327 C.ar    
  16 C16           -3.5629     3.5318    -0.2826 C.ar    
  17 C17           -4.7474     4.2358    -0.3765 C.ar    
  18 C18           -4.7613     5.6010    -0.1566 C.ar    
  19 C19           -3.5893     6.2664     0.1527 C.ar    
  20 C20            4.7617    -2.6624    -4.8673 C.ar    
  21 C21            5.7690    -3.4537    -4.3476 C.ar    
  22 C22            6.1339    -3.3250    -3.0205 C.ar    
  23 C23            5.4912    -2.4052    -2.2131 C.ar    
  24 H24            0.6285     0.1659     2.0549 H       
  25 H25           -1.0063    -0.1697     1.4260 H       
  26 H26            0.7419    -1.7929     0.5920 H       
  27 H27           -0.0837    -0.9080    -0.7139 H       
  28 H28            2.6951     1.3233    -1.4030 H       
  29 H29            1.0327     0.8731    -1.8541 H       
  30 H30            0.9515     2.9537    -0.5736 H       
  31 H31            1.9203     2.2269     0.7355 H       
  32 H32           -0.3488     3.9073    -0.1307 H       
  33 H33           -1.4865     6.0883     0.4900 H       
  34 H34            2.9044    -2.1167    -0.5862 H       
  35 H35            1.8845    -1.6239    -1.9593 H       
  36 H36            3.4510     0.2328    -2.4565 H       
  37 H37            4.4709    -0.2600    -1.0834 H       
  38 H38            3.3290    -1.1276    -4.4648 H       
  39 H39           -3.5526     2.4657    -0.4549 H       
  40 H40           -5.6637     3.7197    -0.6223 H       
  41 H41           -5.6889     6.1493    -0.2306 H       
  42 H42           -3.6034     7.3327     0.3239 H       
  43 H43            4.4766    -2.7630    -5.9042 H       
  44 H44            6.2706    -4.1727    -4.9783 H       
  45 H45            6.9209    -3.9432    -2.6144 H       
  46 H46            5.7761    -2.3049    -1.1762 H       
@<TRIPOS>BOND
   1    1    2 1
   2    1    6 1
   3    1    7 am
   4    2    3 1
   5    2   24 1
   6    2   25 1
   7    3    4 1
   8    3   26 1
   9    3   27 1
  10    4    5 1
  11    4   12 1
  12    5    6 1
  13    5   28 1
  14    5   29 1
  15    6   30 1
  16    6   31 1
  17    7    8 2
  18    7    9 am
  19    9   10 1
  20    9   32 1
  21   10   11 ar
  22   10   16 ar
  23   11   19 ar
  24   11   33 1
  25   12   13 1
  26   12   34 1
  27   12   35 1
  28   13   15 1
  29   13   36 1
  30   13   37 1
  31   14   15 ar
  32   14   20 ar
  33   14   38 1
  34   15   23 ar
  35   16   17 ar
  36   16   39 1
  37   17   18 ar
  38   17   40 1
  39   18   19 ar
  40   18   41 1
  41   19   42 1
  42   20   21 ar
  43   20   43 1
  44   21   22 ar
  45   21   44 1
  46   22   23 ar
  47   22   45 1
  48   23   46 1

#	End of record

