#	Name: ASD01940601
#	Creating user name:	WinNT
#	Creation time:	15. 06. 2019 20:12

#	Modifying user name:	WinNT
#	Modification time:	15. 06. 2019 20:12

#	Program:	/corina/corina34_cracker 3.40 0067  02.08.2006

@<TRIPOS>MOLECULE
ASD01940601
  52   54    0    0    0
SMALL
NO_CHARGES


@<TRIPOS>ATOM
   1 C1             1.0217     0.7377     0.7668 C.ar    
   2 C2             0.5890    -0.5787     1.0008 C.ar    
   3 C3             1.5147    -1.5261     1.4132 C.ar    
   4 N4             2.7817    -1.2075     1.5861 N.ar    
   5 C5             3.2347     0.0112     1.3798 C.ar    
   6 C6             2.3836     1.0295     0.9645 C.ar    
   7 N7             2.8699     2.3129     0.7485 N.pl3   
   8 C8             4.0477     2.7296     1.3778 C.ar    
   9 C9             0.0784     1.7796     0.3218 C.2     
  10 O10           -0.5135     2.4545     1.1421 O.2     
  11 N11           -0.1280     1.9841    -0.9943 N.am    
  12 O12           -0.7130    -0.9175     0.8268 O.3     
  13 C13           -1.0611    -2.2202     0.9947 C.ar    
  14 C14            4.4741     2.1033     2.5414 C.ar    
  15 C15            5.6378     2.5165     3.1605 C.ar    
  16 C16            6.3789     3.5538     2.6234 C.ar    
  17 C17            5.9579     4.1813     1.4647 C.ar    
  18 C18            4.7973     3.7686     0.8363 C.ar    
  19 I19            8.1424     4.1763     3.5675 I       
  20 F20            4.3889     4.3776    -0.2984 F       
  21 C21           -1.2135    -2.7384     2.2716 C.ar    
  22 C22           -1.5696    -4.0693     2.4395 C.ar    
  23 C23           -1.7723    -4.8779     1.3275 C.ar    
  24 C24           -1.6191    -4.3579     0.0572 C.ar    
  25 C25           -1.2701    -3.0313    -0.1120 C.ar    
  26 N26           -1.7236    -4.5953     3.7241 N.am    
  27 S27           -3.0550    -4.2006     4.6263 S.o2    
  28 C28           -4.4458    -4.9443     3.7301 C.3     
  29 O29           -2.8480    -4.8647     5.8655 O.2     
  30 O30           -3.1178    -2.7827     4.5566 O.2     
  31 C31           -4.2186    -6.4514     3.5959 C.3     
  32 C32           -5.7431    -4.6907     4.5005 C.3     
  33 H33            1.1920    -2.5404     1.5956 H       
  34 H34            4.2822     0.2231     1.5353 H       
  35 H35            2.3928     2.9199     0.1614 H       
  36 H36            0.3441     1.4458    -1.6487 H       
  37 H37           -0.7487     2.6697    -1.2871 H       
  38 H38            3.8962     1.2938     2.9622 H       
  39 H39            5.9693     2.0292     4.0655 H       
  40 H40            6.5385     4.9911     1.0480 H       
  41 H41           -1.0549    -2.1078     3.1339 H       
  42 H42           -2.0495    -5.9137     1.4568 H       
  43 H43           -1.7768    -4.9880    -0.8057 H       
  44 H44           -1.1558    -2.6264    -1.1067 H       
  45 H45           -1.0507    -5.1918     4.0879 H       
  46 H46           -4.5191    -4.4982     2.7383 H       
  47 H47           -3.2944    -6.6321     3.0470 H       
  48 H48           -4.1453    -6.8975     4.5877 H       
  49 H49           -5.0543    -6.8983     3.0574 H       
  50 H50           -5.9049    -3.6170     4.5961 H       
  51 H51           -6.5788    -5.1376     3.9620 H       
  52 H52           -5.6698    -5.1368     5.4924 H       
@<TRIPOS>BOND
   1    1    2 ar
   2    1    6 ar
   3    1    9 1
   4    2    3 ar
   5    2   12 1
   6    3    4 ar
   7    3   33 1
   8    4    5 ar
   9    5    6 ar
  10    5   34 1
  11    6    7 1
  12    7    8 1
  13    7   35 1
  14    8   14 ar
  15    8   18 ar
  16    9   10 2
  17    9   11 am
  18   11   36 1
  19   11   37 1
  20   12   13 1
  21   13   21 ar
  22   13   25 ar
  23   14   15 ar
  24   14   38 1
  25   15   16 ar
  26   15   39 1
  27   16   17 ar
  28   16   19 1
  29   17   18 ar
  30   17   40 1
  31   18   20 1
  32   21   22 ar
  33   21   41 1
  34   22   23 ar
  35   22   26 1
  36   23   24 ar
  37   23   42 1
  38   24   25 ar
  39   24   43 1
  40   25   44 1
  41   26   27 am
  42   26   45 1
  43   27   28 1
  44   27   29 2
  45   27   30 2
  46   28   31 1
  47   28   32 1
  48   28   46 1
  49   31   47 1
  50   31   48 1
  51   31   49 1
  52   32   50 1
  53   32   51 1
  54   32   52 1

#	End of record

