#	Name: ASD03091801
#	Creating user name:	WinNT
#	Creation time:	15. 06. 2019 20:31

#	Modifying user name:	WinNT
#	Modification time:	15. 06. 2019 20:31

#	Program:	/corina/corina34_cracker 3.40 0067  02.08.2006

@<TRIPOS>MOLECULE
ASD03091801
  47   51    0    0    0
SMALL
NO_CHARGES


@<TRIPOS>ATOM
   1 C1            -0.1398     1.4099    -0.2230 C.3     
   2 C2            -0.1832    -0.1115    -0.0081 C.3     
   3 C3             1.0251    -0.5277     0.8356 C.3     
   4 C4             1.0617     0.2943     2.1271 C.3     
   5 C5             1.0208     1.7882     1.7675 C.3     
   6 C6             2.0604     2.0342     0.6500 C.3     
   7 C7             1.2936     1.7842    -0.6653 C.3     
   8 N8            -0.2886     2.0480     1.1120 N.3     
   9 C9            -0.5350     3.4903     0.9816 C.3     
  10 O10            0.9239    -1.9161     1.1585 O.3     
  11 C11            2.0788    -3.9475     1.6282 C.ar    
  12 C12            2.0838    -2.5758     1.4160 C.ar    
  13 C13            3.2905    -1.8835     1.4693 C.ar    
  14 C14            4.4473    -2.5943     1.7338 C.ar    
  15 C15            4.3665    -3.9704     1.9367 C.ar    
  16 N16            3.1979    -4.5957     1.8775 N.ar    
  17 O17            8.8664    -7.1052     3.0217 O.3     
  18 C18            8.3105    -8.3238     3.1369 C.2     
  19 C19            6.9863    -8.2475     2.9491 C.2     
  20 C20            6.6906    -6.8327     2.6902 C.ar    
  21 C21            7.9303    -6.1725     2.7525 C.ar    
  22 C22            5.5269    -6.1167     2.4245 C.ar    
  23 C23            5.5995    -4.7442     2.2211 C.ar    
  24 C24            6.8349    -4.0924     2.2842 C.ar    
  25 C25            7.9861    -4.7987     2.5468 C.ar    
  26 H26           -0.8922     1.7453    -0.9367 H       
  27 H27           -1.1022    -0.3805     0.5128 H       
  28 H28           -0.1467    -0.6177    -0.9727 H       
  29 H29            1.9400    -0.3538     0.2692 H       
  30 H30            0.1987     0.0435     2.7440 H       
  31 H31            1.9791     0.0753     2.6734 H       
  32 H32            1.1909     2.4244     2.6361 H       
  33 H33            2.4228     3.0615     0.6885 H       
  34 H34            2.8909     1.3344     0.7437 H       
  35 H35            1.7470     0.9616    -1.2183 H       
  36 H36            1.2788     2.6886    -1.2735 H       
  37 H37           -1.4505     3.6525     0.4127 H       
  38 H38           -0.6400     3.9321     1.9725 H       
  39 H39            0.3026     3.9565     0.4628 H       
  40 H40            1.1452    -4.4894     1.5925 H       
  41 H41            3.3227    -0.8162     1.3076 H       
  42 H42            5.4007    -2.0892     1.7822 H       
  43 H43            8.8532    -9.2330     3.3498 H       
  44 H44            6.2785    -9.0627     2.9815 H       
  45 H45            4.5748    -6.6242     2.3764 H       
  46 H46            6.8860    -3.0254     2.1250 H       
  47 H47            8.9349    -4.2849     2.5931 H       
@<TRIPOS>BOND
   1    1    2 1
   2    1    7 1
   3    1    8 1
   4    1   26 1
   5    2    3 1
   6    2   27 1
   7    2   28 1
   8    3    4 1
   9    3   10 1
  10    3   29 1
  11    4    5 1
  12    4   30 1
  13    4   31 1
  14    5    6 1
  15    5    8 1
  16    5   32 1
  17    6    7 1
  18    6   33 1
  19    6   34 1
  20    7   35 1
  21    7   36 1
  22    8    9 1
  23    9   37 1
  24    9   38 1
  25    9   39 1
  26   10   12 1
  27   11   12 ar
  28   11   16 ar
  29   11   40 1
  30   12   13 ar
  31   13   14 ar
  32   13   41 1
  33   14   15 ar
  34   14   42 1
  35   15   16 ar
  36   15   23 1
  37   17   18 1
  38   17   21 1
  39   18   19 2
  40   18   43 1
  41   19   20 1
  42   19   44 1
  43   20   21 ar
  44   20   22 ar
  45   21   25 ar
  46   22   23 ar
  47   22   45 1
  48   23   24 ar
  49   24   25 ar
  50   24   46 1
  51   25   47 1

#	End of record

