#	Name: ASD03331403
#	Creating user name:	WinNT
#	Creation time:	15. 06. 2019 20:39

#	Modifying user name:	WinNT
#	Modification time:	15. 06. 2019 20:39

#	Program:	/corina/corina34_cracker 3.40 0067  02.08.2006

@<TRIPOS>MOLECULE
ASD03331403
  74   78    0    0    0
SMALL
NO_CHARGES


@<TRIPOS>ATOM
   1 N1            -0.5849     1.8544    -1.1435 N.am    
   2 C2            -0.3488     0.4248    -1.3869 C.3     
   3 C3            -0.7946     0.0873    -2.8131 C.3     
   4 C4            -0.0851     1.0184    -3.7989 C.3     
   5 C5            -0.4724     2.4689    -3.5023 C.3     
   6 C6            -0.0229     2.8334    -2.0839 C.3     
   7 C7             1.4065     0.8578    -3.6564 C.2     
   8 O8             2.1051     1.8297    -3.4606 O.2     
   9 N9             1.9643    -0.3658    -3.7464 N.am    
  10 C10           -0.4954     0.6668    -5.2057 C.ar    
  11 C11           -0.0509     1.4327    -6.2672 C.ar    
  12 C12           -0.4273     1.1102    -7.5576 C.ar    
  13 C13           -1.2479     0.0215    -7.7866 C.ar    
  14 C14           -1.6917    -0.7449    -6.7252 C.ar    
  15 C15           -1.3117    -0.4250    -5.4352 C.ar    
  16 C16           -1.3080     2.2598    -0.0808 C.2     
  17 O17           -1.8521     1.4392     0.6333 O.2     
  18 N18           -2.2970     5.6697     0.7390 N.pl3   
  19 C19           -2.6010     4.3634     0.5416 C.2     
  20 C20           -1.4393     3.6965     0.2158 C.2     
  21 C21           -0.3938     4.6562     0.2204 C.2     
  22 C22           -0.9481     5.8526     0.5434 C.2     
  23 C23           -3.9712     3.7471     0.6581 C.3     
  24 C24           -4.6737     3.8052    -0.6998 C.3     
  25 C25           -6.0649     3.1795    -0.5815 C.3     
  26 C26           -6.7674     3.2376    -1.9395 C.3     
  27 O27           -8.0668     2.6533    -1.8290 O.3     
  28 C28           -0.2235     7.1360     0.6650 C.ar    
  29 C29            0.9382     7.2150     1.4364 C.ar    
  30 C30            1.6101     8.4159     1.5453 C.ar    
  31 C31            1.1343     9.5401     0.8918 C.ar    
  32 C32           -0.0170     9.4673     0.1262 C.ar    
  33 C33           -0.6943     8.2713     0.0049 C.ar    
  34 Cl34           1.9844    11.0470     1.0333 Cl      
  35 Cl35           1.5354     5.8064     2.2567 Cl      
  36 C36           -3.2121     6.6743     1.0817 C.ar    
  37 C37           -3.1581     7.2654     2.3369 C.ar    
  38 C38           -4.0607     8.2555     2.6721 C.ar    
  39 C39           -5.0183     8.6586     1.7581 C.ar    
  40 C40           -5.0745     8.0708     0.5065 C.ar    
  41 C41           -4.1705     7.0842     0.1645 C.ar    
  42 Cl42          -6.1515     9.9035     2.1824 Cl      
  43 H43            0.7130     0.2055    -1.2745 H       
  44 H44           -0.9237    -0.1670    -0.6747 H       
  45 H45           -0.5367    -0.9472    -3.0397 H       
  46 H46           -1.8731     0.2209    -2.8984 H       
  47 H47            0.0148     3.1295    -4.2194 H       
  48 H48           -1.5539     2.5801    -3.5811 H       
  49 H49           -0.3829     3.8309    -1.8315 H       
  50 H50            1.0654     2.8105    -2.0283 H       
  51 H51            1.4160    -1.1333    -3.9728 H       
  52 H52            2.9140    -0.4790    -3.5848 H       
  53 H53            0.5902     2.2832    -6.0883 H       
  54 H54           -0.0806     1.7090    -8.3869 H       
  55 H55           -1.5425    -0.2300    -8.7948 H       
  56 H56           -2.3330    -1.5952    -6.9041 H       
  57 H57           -1.6554    -1.0259    -4.6063 H       
  58 H58            0.6482     4.4697     0.0064 H       
  59 H59           -3.8767     2.7082     0.9741 H       
  60 H60           -4.5564     4.2988     1.3938 H       
  61 H61           -4.7683     4.8441    -1.0158 H       
  62 H62           -4.0886     3.2535    -1.4355 H       
  63 H63           -5.9704     2.1406    -0.2655 H       
  64 H64           -6.6501     3.7313     0.1542 H       
  65 H65           -6.8620     4.2765    -2.2555 H       
  66 H66           -6.1823     2.6859    -2.6752 H       
  67 H67           -8.5706     2.6557    -2.6543 H       
  68 H68            2.5084     8.4789     2.1417 H       
  69 H69           -0.3833    10.3477    -0.3808 H       
  70 H70           -1.5895     8.2152    -0.5966 H       
  71 H71           -2.4111     6.9508     3.0507 H       
  72 H72           -4.0193     8.7153     3.6484 H       
  73 H73           -5.8230     8.3868    -0.2050 H       
  74 H74           -4.2116     6.6291    -0.8140 H       
@<TRIPOS>BOND
   1    1    2 1
   2    1    6 1
   3    1   16 am
   4    2    3 1
   5    2   43 1
   6    2   44 1
   7    3    4 1
   8    3   45 1
   9    3   46 1
  10    4    5 1
  11    4    7 1
  12    4   10 1
  13    5    6 1
  14    5   47 1
  15    5   48 1
  16    6   49 1
  17    6   50 1
  18    7    8 2
  19    7    9 am
  20    9   51 1
  21    9   52 1
  22   10   11 ar
  23   10   15 ar
  24   11   12 ar
  25   11   53 1
  26   12   13 ar
  27   12   54 1
  28   13   14 ar
  29   13   55 1
  30   14   15 ar
  31   14   56 1
  32   15   57 1
  33   16   17 2
  34   16   20 1
  35   18   19 1
  36   18   22 1
  37   18   36 1
  38   19   20 2
  39   19   23 1
  40   20   21 1
  41   21   22 2
  42   21   58 1
  43   22   28 1
  44   23   24 1
  45   23   59 1
  46   23   60 1
  47   24   25 1
  48   24   61 1
  49   24   62 1
  50   25   26 1
  51   25   63 1
  52   25   64 1
  53   26   27 1
  54   26   65 1
  55   26   66 1
  56   27   67 1
  57   28   29 ar
  58   28   33 ar
  59   29   30 ar
  60   29   35 1
  61   30   31 ar
  62   30   68 1
  63   31   32 ar
  64   31   34 1
  65   32   33 ar
  66   32   69 1
  67   33   70 1
  68   36   37 ar
  69   36   41 ar
  70   37   38 ar
  71   37   71 1
  72   38   39 ar
  73   38   72 1
  74   39   40 ar
  75   39   42 1
  76   40   41 ar
  77   40   73 1
  78   41   74 1

#	End of record

