#	Name: ASD01202006
#	Creating user name:	WinNT
#	Creation time:	15. 06. 2019 19:09

#	Modifying user name:	WinNT
#	Modification time:	15. 06. 2019 19:09

#	Program:	/corina/corina34_cracker 3.40 0067  02.08.2006

@<TRIPOS>MOLECULE
ASD01202006
  32   34    0    0    0
SMALL
NO_CHARGES


@<TRIPOS>ATOM
   1 C1            -0.0179     1.4692     0.0101 C.2     
   2 C2             0.0021    -0.0041     0.0020 C.2     
   3 O3             1.0634    -0.5978    -0.0113 O.2     
   4 N4            -1.1558    -0.6938     0.0094 N.am    
   5 H5            -2.0023    -0.2203     0.0200 H       
   6 C6             1.0576     2.3087     0.0044 C.2     
   7 O7             0.6097     3.5679     0.0154 O.3     
   8 C8            -0.7320     3.5990     0.0284 C.2     
   9 C9            -1.2011     2.3420     0.0197 C.2     
  10 C10            2.5046     1.8877    -0.0110 C.3     
  11 C11           -1.5769     4.8468     0.0440 C.3     
  12 C12           -1.1370    -2.0827     0.0017 C.2     
  13 S13           -2.5233    -3.0793     0.0096 S.3     
  14 N14           -0.0701    -2.8066    -0.0180 N.2     
  15 C15           -1.5023    -4.5198    -0.0164 C.2     
  16 C16           -0.2221    -4.1350    -0.0280 C.2     
  17 C17            0.6841    -5.3631    -0.0483 C.3     
  18 C18           -0.2258    -6.5256    -0.4934 C.3     
  19 C19           -1.6129    -6.0332    -0.0303 C.3     
  20 H20           -2.2362     2.0341     0.0257 H       
  21 H21            2.8440     1.7912    -1.0423 H       
  22 H22            3.1068     2.6382     0.5010 H       
  23 H23            2.6095     0.9292     0.4972 H       
  24 H24           -0.9297     5.7239     0.0426 H       
  25 H25           -2.2149     4.8646    -0.8397 H       
  26 H26           -2.1973     4.8544     0.9402 H       
  27 H27            1.4957    -5.2229    -0.7622 H       
  28 H28            1.0838    -5.5550     0.9475 H       
  29 H29           -0.1975    -6.6509    -1.5758 H       
  30 H30            0.0484    -7.4515     0.0123 H       
  31 H31           -1.8338    -6.4068     0.9695 H       
  32 H32           -2.3826    -6.3509    -0.7337 H       
@<TRIPOS>BOND
   1    1    2 1
   2    1    6 2
   3    1    9 1
   4    2    3 2
   5    2    4 am
   6    4    5 1
   7    4   12 1
   8    6    7 1
   9    6   10 1
  10    7    8 1
  11    8    9 2
  12    8   11 1
  13    9   20 1
  14   10   21 1
  15   10   22 1
  16   10   23 1
  17   11   24 1
  18   11   25 1
  19   11   26 1
  20   12   13 1
  21   12   14 2
  22   13   15 1
  23   14   16 1
  24   15   16 2
  25   15   19 1
  26   16   17 1
  27   17   18 1
  28   17   27 1
  29   17   28 1
  30   18   19 1
  31   18   29 1
  32   18   30 1
  33   19   31 1
  34   19   32 1

#	End of record

