#	Name: ASD01914749
#	Creating user name:	WinNT
#	Creation time:	15. 06. 2019 20:04

#	Modifying user name:	WinNT
#	Modification time:	15. 06. 2019 20:04

#	Program:	/corina/corina34_cracker 3.40 0067  02.08.2006

@<TRIPOS>MOLECULE
ASD01914749
  59   64    0    0    0
SMALL
NO_CHARGES


@<TRIPOS>ATOM
   1 N1            -0.0158     1.3156     0.0093 N.ar    
   2 C2             0.0021    -0.0041     0.0020 C.ar    
   3 C3             1.2066    -0.7217    -0.0129 C.ar    
   4 C4             2.3981    -0.0530    -0.0206 C.ar    
   5 C5             2.3689     1.3524    -0.0133 C.ar    
   6 C6             3.5425     2.1223    -0.0208 C.ar    
   7 N7             3.4649     3.4327    -0.0139 N.ar    
   8 C8             2.3089     4.0813     0.0001 C.ar    
   9 C9             1.1150     3.4273     0.0088 C.ar    
  10 C10            1.1136     2.0183     0.0023 C.ar    
  11 C11           -1.2829    -0.7459     0.0103 C.2     
  12 O12           -1.2830    -1.9608     0.0038 O.2     
  13 N13           -2.4500    -0.0720     0.0250 N.am    
  14 C14           -3.7187    -0.8044     0.0332 C.3     
  15 C15           -4.8815     0.1898     0.0497 C.3     
  16 C16           -6.2065    -0.5751     0.0582 C.3     
  17 C17           -6.2757    -1.4614     1.3034 C.3     
  18 C18           -5.1130    -2.4557     1.2870 C.3     
  19 C19           -5.2060    -3.3286     0.0339 C.3     
  20 C20           -5.1368    -2.4423    -1.2114 C.3     
  21 C21           -3.8118    -1.6773    -1.2199 C.3     
  22 C22           -6.2996    -1.4480    -1.1949 C.3     
  23 C23           -3.7879    -1.6907     1.2784 C.3     
  24 N24           -7.3199     0.3769     0.0739 N.am    
  25 C25           -8.5906    -0.0723     0.0836 C.2     
  26 O26           -8.8127    -1.2670     0.0793 O.2     
  27 C27           -9.7165     0.8905     0.0996 C.ar    
  28 C28          -11.0319     0.4279     0.1096 C.ar    
  29 N29           -9.4755     2.1984     0.1098 N.ar    
  30 N30          -12.0324     1.2902     0.1243 N.ar    
  31 C31          -11.7874     2.5886     0.1294 C.ar    
  32 C32          -10.4797     3.0520     0.1244 C.ar    
  33 C33          -10.2069     4.5340     0.1366 C.3     
  34 H34            1.1926    -1.8016    -0.0178 H       
  35 H35            3.3357    -0.5889    -0.0317 H       
  36 H36            4.5075     1.6375    -0.0318 H       
  37 H37            2.3144     5.1613     0.0051 H       
  38 H38            0.1861     3.9782     0.0202 H       
  39 H39           -2.4499     0.8980     0.0303 H       
  40 H40           -4.8152     0.8117     0.9424 H       
  41 H41           -4.8322     0.8213    -0.8375 H       
  42 H42           -6.2095    -0.8396     2.1961 H       
  43 H43           -7.2197    -2.0064     1.3095 H       
  44 H44           -5.1623    -3.0871     2.1741 H       
  45 H45           -4.3776    -4.0369     0.0221 H       
  46 H46           -6.1500    -3.8735     0.0399 H       
  47 H47           -5.2031    -3.0641    -2.1041 H       
  48 H48           -3.7625    -1.0459    -2.1070 H       
  49 H49           -2.9834    -2.3857    -1.2316 H       
  50 H50           -7.2436    -1.9930    -1.1888 H       
  51 H51           -6.2503    -0.8166    -2.0820 H       
  52 H52           -2.9595    -2.3991     1.2667 H       
  53 H53           -3.7217    -1.0689     2.1712 H       
  54 H54           -7.1426     1.3306     0.0774 H       
  55 H55          -11.2324    -0.6333     0.1051 H       
  56 H56          -12.6075     3.2912     0.1413 H       
  57 H57          -10.1479     4.9010    -0.8881 H       
  58 H58          -11.0131     5.0475     0.6606 H       
  59 H59           -9.2626     4.7254     0.6461 H       
@<TRIPOS>BOND
   1    1    2 ar
   2    1   10 ar
   3    2    3 ar
   4    2   11 1
   5    3    4 ar
   6    3   34 1
   7    4    5 ar
   8    4   35 1
   9    5    6 ar
  10    5   10 ar
  11    6    7 ar
  12    6   36 1
  13    7    8 ar
  14    8    9 ar
  15    8   37 1
  16    9   10 ar
  17    9   38 1
  18   11   12 2
  19   11   13 am
  20   13   14 1
  21   13   39 1
  22   14   15 1
  23   14   21 1
  24   14   23 1
  25   15   16 1
  26   15   40 1
  27   15   41 1
  28   16   17 1
  29   16   22 1
  30   16   24 1
  31   17   18 1
  32   17   42 1
  33   17   43 1
  34   18   19 1
  35   18   23 1
  36   18   44 1
  37   19   20 1
  38   19   45 1
  39   19   46 1
  40   20   21 1
  41   20   22 1
  42   20   47 1
  43   21   48 1
  44   21   49 1
  45   22   50 1
  46   22   51 1
  47   23   52 1
  48   23   53 1
  49   24   25 am
  50   24   54 1
  51   25   26 2
  52   25   27 1
  53   27   28 ar
  54   27   29 ar
  55   28   30 ar
  56   28   55 1
  57   29   32 ar
  58   30   31 ar
  59   31   32 ar
  60   31   56 1
  61   32   33 1
  62   33   57 1
  63   33   58 1
  64   33   59 1

#	End of record

