#	Name: ASD01913010
#	Creating user name:	WinNT
#	Creation time:	15. 06. 2019 20:00

#	Modifying user name:	WinNT
#	Modification time:	15. 06. 2019 20:00

#	Program:	/corina/corina34_cracker 3.40 0067  02.08.2006

@<TRIPOS>MOLECULE
ASD01913010
  42   44    0    0    0
SMALL
NO_CHARGES


@<TRIPOS>ATOM
   1 C1            -0.0173     1.4278     0.0099 C.2     
   2 C2             0.0021    -0.0041     0.0020 C.1     
   3 C3             0.0180    -1.1779    -0.0044 C.1     
   4 C4             0.0374    -2.6098    -0.0123 C.ar    
   5 C5            -1.1612    -3.3283    -0.0047 C.ar    
   6 C6             1.2547    -3.2952    -0.0335 C.ar    
   7 C7             1.2656    -4.6745    -0.0414 C.ar    
   8 C8             0.0750    -5.3792    -0.0285 C.ar    
   9 C9            -1.1347    -4.7070    -0.0129 C.ar    
  10 C10            1.0857     2.2640     0.0039 C.2     
  11 N11            0.6542     3.5302     0.0211 N.pl3   
  12 C12           -0.7347     3.5315     0.0234 C.2     
  13 C13           -1.1683     2.2520     0.0191 C.2     
  14 C14            1.4223     4.7798     0.0491 C.3     
  15 C15            0.6190     5.8790    -0.6447 C.3     
  16 N16           -0.7698     5.9225    -0.2021 N.am    
  17 C17           -1.4878     4.7949     0.0113 C.2     
  18 C18           -1.4061     7.2236     0.0182 C.3     
  19 O19           -2.6920     4.8249     0.1835 O.2     
  20 C20            2.5775    -5.4157    -0.0647 C.3     
  21 C21           -2.6181     7.3616    -0.9053 C.3     
  22 C22           -1.8606     7.3288     1.4754 C.3     
  23 H23           -2.1060    -2.8051     0.0078 H       
  24 H24            2.1848    -2.7464    -0.0439 H       
  25 H25            0.0896    -6.4591    -0.0348 H       
  26 H26           -2.0602    -5.2636    -0.0029 H       
  27 H27            2.1183     1.9482    -0.0121 H       
  28 H28           -2.1963     1.9212     0.0281 H       
  29 H29            1.6140     5.0663     1.0832 H       
  30 H30            2.3692     4.6369    -0.4716 H       
  31 H31            1.0857     6.8417    -0.4357 H       
  32 H32            0.6407     5.7055    -1.7206 H       
  33 H33           -0.6922     8.0184    -0.1980 H       
  34 H34            2.9088    -5.6002     0.9572 H       
  35 H35            2.4486    -6.3664    -0.5821 H       
  36 H36            3.3241    -4.8167    -0.5861 H       
  37 H37           -3.0915     8.3296    -0.7413 H       
  38 H38           -2.2943     7.2866    -1.9434 H       
  39 H39           -3.3320     6.5668    -0.6890 H       
  40 H40           -0.9971     7.2305     2.1333 H       
  41 H41           -2.3340     8.2969     1.6393 H       
  42 H42           -2.5745     6.5340     1.6916 H       
@<TRIPOS>BOND
   1    1    2 1
   2    1   10 2
   3    1   13 1
   4    2    3 3
   5    3    4 1
   6    4    5 ar
   7    4    6 ar
   8    5    9 ar
   9    5   23 1
  10    6    7 ar
  11    6   24 1
  12    7    8 ar
  13    7   20 1
  14    8    9 ar
  15    8   25 1
  16    9   26 1
  17   10   11 1
  18   10   27 1
  19   11   12 1
  20   11   14 1
  21   12   13 2
  22   12   17 1
  23   13   28 1
  24   14   15 1
  25   14   29 1
  26   14   30 1
  27   15   16 1
  28   15   31 1
  29   15   32 1
  30   16   17 am
  31   16   18 1
  32   17   19 2
  33   18   21 1
  34   18   22 1
  35   18   33 1
  36   20   34 1
  37   20   35 1
  38   20   36 1
  39   21   37 1
  40   21   38 1
  41   21   39 1
  42   22   40 1
  43   22   41 1
  44   22   42 1

#	End of record

