#	Name: ASD02039488
#	Creating user name:	WinNT
#	Creation time:	15. 06. 2019 20:18

#	Modifying user name:	WinNT
#	Modification time:	15. 06. 2019 20:18

#	Program:	/corina/corina34_cracker 3.40 0067  02.08.2006

@<TRIPOS>MOLECULE
ASD02039488
  49   49    0    0    0
SMALL
NO_CHARGES


@<TRIPOS>ATOM
   1 C1             0.6726     1.6685    -0.0662 C.2     
   2 N2             0.5264     0.3754    -0.0959 N.2     
   3 C3             1.7486    -0.2070     0.0045 C.2     
   4 C4             2.6731     0.7917     0.0991 C.2     
   5 N5             1.9936     1.9617     0.0542 N.pl3   
   6 C6             2.0259    -1.6539     0.0103 C.2     
   7 O7             3.1744    -2.0531    -0.0213 O.2     
   8 N8             1.0071    -2.5352     0.0505 N.am    
   9 C9            -1.1686    -2.3251    -1.0466 C.3     
  10 C10           -0.3668    -2.0589     0.2290 C.3     
  11 C11           -1.0144    -2.7977     1.4019 C.3     
  12 C12            2.5779     3.3033     0.1231 C.3     
  13 C13            1.2734    -3.9695    -0.0842 C.3     
  14 C14            1.3418    -4.3326    -1.5452 C.ar    
  15 C15            2.5313    -4.1958    -2.2350 C.ar    
  16 C16            2.5948    -4.5304    -3.5798 C.ar    
  17 C17            1.4600    -5.0029    -4.2297 C.ar    
  18 C18            0.2727    -5.1374    -3.5334 C.ar    
  19 C19            0.2159    -4.8075    -2.1917 C.ar    
  20 C20            4.5988    -3.2930    -4.3089 C.2     
  21 N21            5.6292    -3.5452    -5.0694 N.2     
  22 C22            5.5316    -4.7934    -5.5503 C.2     
  23 C23            4.3979    -5.3407    -5.0720 C.2     
  24 N24            3.8013    -4.3920    -4.2827 N.pl3   
  25 F25            1.5171    -5.3296    -5.5394 F       
  26 H26           -0.1269     2.3917    -0.1315 H       
  27 H27            3.7424     0.6719     0.1924 H       
  28 H28           -1.2926    -3.3997    -1.1802 H       
  29 H29           -2.1481    -1.8537    -0.9651 H       
  30 H30           -0.6365    -1.9114    -1.9032 H       
  31 H31           -0.3564    -0.9886     0.4350 H       
  32 H32           -0.3921    -2.6860     2.2898 H       
  33 H33           -2.0017    -2.3781     1.5951 H       
  34 H34           -1.1108    -3.8553     1.1565 H       
  35 H35            2.6329     3.6227     1.1639 H       
  36 H36            3.5802     3.2855    -0.3049 H       
  37 H37            1.9555     4.0001    -0.4383 H       
  38 H38            2.2228    -4.2093     0.3946 H       
  39 H39            0.4727    -4.5342     0.3934 H       
  40 H40            3.4110    -3.8282    -1.7276 H       
  41 H41           -0.6096    -5.5039    -4.0369 H       
  42 H42           -0.7112    -4.9172    -1.6486 H       
  43 H43            4.4138    -2.3672    -3.7845 H       
  44 H44            6.2398    -5.2761    -6.2075 H       
  45 H45            4.0294    -6.3359    -5.2722 H       
  46 Cl46          11.2398     9.0001     7.2898 Cl      
  47 H47           11.2398    10.3701     7.2898 H       
  48 Cl48          16.2398    15.3701    12.2898 Cl      
  49 H49           16.2398    16.7401    12.2898 H       
@<TRIPOS>BOND
   1    1    2 2
   2    1    5 1
   3    1   26 1
   4    2    3 1
   5    3    4 2
   6    3    6 1
   7    4    5 1
   8    4   27 1
   9    5   12 1
  10    6    7 2
  11    6    8 am
  12    8   10 1
  13    8   13 1
  14    9   10 1
  15    9   28 1
  16    9   29 1
  17    9   30 1
  18   10   11 1
  19   10   31 1
  20   11   32 1
  21   11   33 1
  22   11   34 1
  23   12   35 1
  24   12   36 1
  25   12   37 1
  26   13   14 1
  27   13   38 1
  28   13   39 1
  29   14   15 ar
  30   14   19 ar
  31   15   16 ar
  32   15   40 1
  33   16   17 ar
  34   16   24 1
  35   17   18 ar
  36   17   25 1
  37   18   19 ar
  38   18   41 1
  39   19   42 1
  40   20   21 2
  41   20   24 1
  42   20   43 1
  43   21   22 1
  44   22   23 2
  45   22   44 1
  46   23   24 1
  47   23   45 1
  48   46   47 1
  49   48   49 1

#	End of record

