#	Name: ASD08070128
#	Creating user name:	WinNT
#	Creation time:	15. 06. 2019 21:14

#	Modifying user name:	WinNT
#	Modification time:	15. 06. 2019 21:14

#	Program:	/corina/corina34_cracker 3.40 0067  02.08.2006

@<TRIPOS>MOLECULE
ASD08070128
  45   45    0    0    0
SMALL
NO_CHARGES


@<TRIPOS>ATOM
   1 C1             0.8290     0.8945    -0.5086 C.ar    
   2 C2             0.6824    -0.4965    -0.4558 C.ar    
   3 C3             2.0852     1.4485    -0.6084 C.ar    
   4 C4             3.2071     0.6290    -0.6568 C.ar    
   5 C5             1.8153    -1.3172    -0.5048 C.ar    
   6 C6             3.0670    -0.7531    -0.6051 C.ar    
   7 O7             4.4436     1.1803    -0.7553 O.3     
   8 C8             5.5532     0.2809    -0.8003 C.3     
   9 C9            -0.6566    -1.0935    -0.3486 C.2     
  10 C10           -0.7953    -2.4352    -0.2979 C.2     
  11 C11           -2.1276    -3.0292    -0.1913 C.2     
  12 N12           -2.2661    -4.3688    -0.1406 N.am    
  13 C13           -3.6006    -4.9638    -0.0338 C.3     
  14 C14           -4.2020    -5.0985    -1.4090 C.2     
  15 O15           -3.5797    -4.7348    -2.3788 O.2     
  16 O16           -5.4289    -5.6225    -1.5566 O.3     
  17 C17           -3.4924    -6.3461     0.6132 C.3     
  18 C18           -2.9737    -6.1998     2.0451 C.3     
  19 O19           -3.1113    -2.3136    -0.1484 O.2     
  20 C20           -4.0080    -5.4512     2.8882 C.3     
  21 C21           -2.7342    -7.5867     2.6449 C.3     
  22 C22           -5.9449    -5.7217    -2.9102 C.3     
  23 H23           -0.0423     1.5318    -0.4756 H       
  24 H24            2.1993     2.5217    -0.6496 H       
  25 H25            1.7075    -2.3910    -0.4640 H       
  26 H26            3.9417    -1.3854    -0.6438 H       
  27 H27            5.5716    -0.3192     0.1094 H       
  28 H28            5.4549    -0.3743    -1.6659 H       
  29 H29            6.4794     0.8502    -0.8789 H       
  30 H30           -1.5295    -0.4586    -0.3106 H       
  31 H31            0.0775    -3.0701    -0.3359 H       
  32 H32           -1.4821    -4.9391    -0.1748 H       
  33 H33           -4.2355    -4.3243     0.5794 H       
  34 H34           -4.4750    -6.8177     0.6290 H       
  35 H35           -2.8024    -6.9634     0.0380 H       
  36 H36           -2.0380    -5.6408     2.0373 H       
  37 H37           -4.9437    -6.0102     2.8960 H       
  38 H38           -3.6385    -5.3470     3.9083 H       
  39 H39           -4.1787    -4.4631     2.4608 H       
  40 H40           -2.0643    -8.1520     1.9970 H       
  41 H41           -2.2832    -7.4828     3.6318 H       
  42 H42           -3.6844    -8.1135     2.7333 H       
  43 H43           -5.2840    -6.3515    -3.5057 H       
  44 H44           -6.9422    -6.1610    -2.8875 H       
  45 H45           -5.9959    -4.7272    -3.3534 H       
@<TRIPOS>BOND
   1    1    2 ar
   2    1    3 ar
   3    1   23 1
   4    2    9 1
   5    2    5 ar
   6    3    4 ar
   7    3   24 1
   8    4    6 ar
   9    4    7 1
  10    5    6 ar
  11    5   25 1
  12    6   26 1
  13    7    8 1
  14    8   27 1
  15    8   28 1
  16    8   29 1
  17    9   10 2
  18    9   30 1
  19   10   11 1
  20   10   31 1
  21   11   12 am
  22   11   19 2
  23   12   13 1
  24   12   32 1
  25   13   14 1
  26   13   17 1
  27   13   33 1
  28   14   15 2
  29   14   16 1
  30   16   22 1
  31   17   18 1
  32   17   34 1
  33   17   35 1
  34   18   20 1
  35   18   21 1
  36   18   36 1
  37   20   37 1
  38   20   38 1
  39   20   39 1
  40   21   40 1
  41   21   41 1
  42   21   42 1
  43   22   43 1
  44   22   44 1
  45   22   45 1

#	End of record

