#	Name: ASD02560095
#	Creating user name:	WinNT
#	Creation time:	15. 06. 2019 20:24

#	Modifying user name:	WinNT
#	Modification time:	15. 06. 2019 20:24

#	Program:	/corina/corina34_cracker 3.40 0067  02.08.2006

@<TRIPOS>MOLECULE
ASD02560095
  28   28    0    0    0
SMALL
NO_CHARGES


@<TRIPOS>ATOM
   1 C1            -0.0159     1.3220     0.0093 C.2     
   2 C2             0.0021    -0.0041     0.0020 C.2     
   3 C3             1.2913    -0.7252    -0.0142 C.ar    
   4 C4             1.3231    -2.1194    -0.0220 C.ar    
   5 C5             2.5662    -2.7499    -0.0372 C.ar    
   6 N6             3.6683    -2.0045    -0.0436 N.ar    
   7 C7             3.5970    -0.6883    -0.0359 C.ar    
   8 N8             2.4448    -0.0525    -0.0271 N.ar    
   9 S9             5.0895     0.2482    -0.0451 S.o2    
  10 O10            4.7347     1.4790     0.5702 O.2     
  11 O11            6.0494    -0.6166     0.5464 O.2     
  12 C12            5.4562     0.4982    -1.8039 C.3     
  13 N13            2.6529    -4.1331    -0.0450 N.pl3   
  14 C14            1.4363    -4.9427    -0.1478 C.3     
  15 C15            3.9611    -4.7856     0.0497 C.3     
  16 H16            0.9119     1.8747     0.0034 H       
  17 H17           -0.9584     1.8492     0.0166 H       
  18 H18           -0.9258    -0.5567     0.0079 H       
  19 H19            0.4093    -2.6950    -0.0160 H       
  20 H20            4.6339     1.0384    -2.2733 H       
  21 H21            6.3750     1.0758    -1.9050 H       
  22 H22            5.5799    -0.4693    -2.2904 H       
  23 H23            1.2140    -5.1328    -1.1979 H       
  24 H24            1.5858    -5.8906     0.3692 H       
  25 H25            0.6038    -4.4072     0.3086 H       
  26 H26            4.2061    -4.9582     1.0977 H       
  27 H27            3.9308    -5.7388    -0.4781 H       
  28 H28            4.7199    -4.1452    -0.4001 H       
@<TRIPOS>BOND
   1    1    2 2
   2    1   16 1
   3    1   17 1
   4    2    3 1
   5    2   18 1
   6    3    4 ar
   7    3    8 ar
   8    4    5 ar
   9    4   19 1
  10    5    6 ar
  11    5   13 1
  12    6    7 ar
  13    7    8 ar
  14    7    9 1
  15    9   10 2
  16    9   11 2
  17    9   12 1
  18   12   20 1
  19   12   21 1
  20   12   22 1
  21   13   14 1
  22   13   15 1
  23   14   23 1
  24   14   24 1
  25   14   25 1
  26   15   26 1
  27   15   27 1
  28   15   28 1

#	End of record

