#	Name: ASD01940005
#	Creating user name:	WinNT
#	Creation time:	15. 06. 2019 20:11

#	Modifying user name:	WinNT
#	Modification time:	15. 06. 2019 20:11

#	Program:	/corina/corina34_cracker 3.40 0067  02.08.2006

@<TRIPOS>MOLECULE
ASD01940005
  40   41    0    0    0
SMALL
NO_CHARGES


@<TRIPOS>ATOM
   1 C1             0.5151     2.0192    -1.3678 C.ar    
   2 C2             1.1392     1.4546    -2.4717 C.ar    
   3 C3             0.4907     1.4265    -3.6916 C.ar    
   4 C4            -0.7792     1.9600    -3.8146 C.ar    
   5 C5            -1.4055     2.5240    -2.7171 C.ar    
   6 C6            -0.7647     2.5508    -1.4925 C.ar    
   7 F7            -1.3760     3.1013    -0.4208 F       
   8 I8            -1.7568     1.9149    -5.6670 I       
   9 N9             1.1690     2.0486    -0.1316 N.pl3   
  10 C10            2.3899     1.4009     0.0248 C.ar    
  11 C11            3.5833     2.0512    -0.3262 C.ar    
  12 C12            4.8050     1.3903    -0.1640 C.ar    
  13 C13            4.8324     0.1082     0.3377 C.ar    
  14 C14            3.6504    -0.5348     0.6850 C.ar    
  15 C15            2.4346     0.1085     0.5350 C.ar    
  16 C16            3.5490     3.4226    -0.8630 C.2     
  17 F17            3.6890    -1.7927     1.1763 F       
  18 F18            1.2898    -0.5233     0.8749 F       
  19 Br19           6.4866    -0.7821     0.5548 Br      
  20 O20            2.4830     3.9837    -1.0301 O.2     
  21 N21            4.6989     4.0555    -1.1690 N.am    
  22 O22            4.6659     5.3737    -1.6850 O.3     
  23 C23            5.9561     5.9210    -1.9643 C.3     
  24 C24            5.7999     7.3403    -2.5139 C.3     
  25 O25            5.2422     8.1835    -1.5039 O.3     
  26 C26            7.1699     7.8800    -2.9295 C.3     
  27 O27            7.0106     9.1577    -3.5492 O.3     
  28 H28            2.1310     1.0378    -2.3773 H       
  29 H29            0.9765     0.9874    -4.5504 H       
  30 H30           -2.3971     2.9402    -2.8164 H       
  31 H31            0.7710     2.5207     0.6165 H       
  32 H32            5.7267     1.8851    -0.4326 H       
  33 H33            5.5491     3.6080    -1.0357 H       
  34 H34            6.5451     5.9491    -1.0476 H       
  35 H35            6.4624     5.2992    -2.7026 H       
  36 H36            5.1380     7.3239    -3.3798 H       
  37 H37            5.7795     8.2454    -0.7024 H       
  38 H38            7.8035     7.9801    -2.0482 H       
  39 H39            7.6339     7.1897    -3.6340 H       
  40 H40            7.8406     9.5606    -3.8389 H       
@<TRIPOS>BOND
   1    1    2 ar
   2    1    9 1
   3    1    6 ar
   4    2    3 ar
   5    2   28 1
   6    3    4 ar
   7    3   29 1
   8    4    5 ar
   9    4    8 1
  10    5    6 ar
  11    5   30 1
  12    6    7 1
  13    9   10 1
  14    9   31 1
  15   10   11 ar
  16   10   15 ar
  17   11   12 ar
  18   11   16 1
  19   12   13 ar
  20   12   32 1
  21   13   14 ar
  22   13   19 1
  23   14   15 ar
  24   14   17 1
  25   15   18 1
  26   16   20 2
  27   16   21 am
  28   21   22 1
  29   21   33 1
  30   22   23 1
  31   23   24 1
  32   23   34 1
  33   23   35 1
  34   24   25 1
  35   24   26 1
  36   24   36 1
  37   25   37 1
  38   26   27 1
  39   26   38 1
  40   26   39 1
  41   27   40 1

#	End of record

