#	Name: ASD03180067
#	Creating user name:	WinNT
#	Creation time:	15. 06. 2019 20:33

#	Modifying user name:	WinNT
#	Modification time:	15. 06. 2019 20:33

#	Program:	/corina/corina34_cracker 3.40 0067  02.08.2006

@<TRIPOS>MOLECULE
ASD03180067
  38   40    0    0    0
SMALL
NO_CHARGES


@<TRIPOS>ATOM
   1 C1             0.4095    -0.0564     1.6561 C.ar    
   2 C2             0.0230    -0.5152     0.4090 C.ar    
   3 C3             0.7934    -0.2310    -0.7050 C.ar    
   4 C4             1.9505     0.5115    -0.5748 C.ar    
   5 C5             2.3406     0.9736     0.6757 C.ar    
   6 C6             1.5654     0.6869     1.7922 C.ar    
   7 N7             3.5117     1.7255     0.8105 N.pl3   
   8 N8             4.4681     3.9074     0.8813 N.2     
   9 C9             4.2381     5.2092     0.7123 C.2     
  10 C10            3.4677     3.1052     0.6848 C.2     
  11 S11            2.0456     4.0399     0.2327 S.3     
  12 C12            2.9806     5.5283     0.3548 C.2     
  13 C13            5.2903     6.2308     0.9046 C.2     
  14 S14            5.0956     7.9712     0.7098 S.3     
  15 C15            6.7373     8.2111     1.1216 C.2     
  16 N16            7.3095     7.0803     1.3654 N.2     
  17 C17            6.5700     5.9967     1.2665 C.2     
  18 C18            7.4200     9.5529     1.1895 C.3     
  19 C19            7.1061     4.6131     1.5296 C.3     
  20 C20            2.7894     0.8197    -1.7882 C.3     
  21 Cl21          -1.4307    -1.4493     0.2417 Cl      
  22 C22            1.9854     1.1865     3.1505 C.3     
  23 H23           -0.1957    -0.2762     2.5232 H       
  24 H24            0.4896    -0.5906    -1.6770 H       
  25 H25            4.3548     1.2817     0.9920 H       
  26 H26            2.6083     6.5257     0.1734 H       
  27 H27            7.3240     9.9588     2.1965 H       
  28 H28            8.4755     9.4364     0.9438 H       
  29 H29            6.9541    10.2340     0.4773 H       
  30 H30            7.4995     4.1937     0.6036 H       
  31 H31            7.9030     4.6671     2.2713 H       
  32 H32            6.3036     3.9776     1.9041 H       
  33 H33            2.4107     1.7197    -2.2726 H       
  34 H34            3.8239     0.9787    -1.4838 H       
  35 H35            2.7404    -0.0165    -2.4857 H       
  36 H36            2.6984     0.4888     3.5898 H       
  37 H37            2.4515     2.1666     3.0490 H       
  38 H38            1.1100     1.2654     3.7952 H       
@<TRIPOS>BOND
   1    1    2 ar
   2    1    6 ar
   3    1   23 1
   4    2    3 ar
   5    2   21 1
   6    3    4 ar
   7    3   24 1
   8    4    5 ar
   9    4   20 1
  10    5    6 ar
  11    5    7 1
  12    6   22 1
  13    7   10 1
  14    7   25 1
  15    8   10 2
  16    8    9 1
  17    9   12 2
  18    9   13 1
  19   10   11 1
  20   11   12 1
  21   12   26 1
  22   13   14 1
  23   13   17 2
  24   14   15 1
  25   15   16 2
  26   15   18 1
  27   16   17 1
  28   17   19 1
  29   18   27 1
  30   18   28 1
  31   18   29 1
  32   19   30 1
  33   19   31 1
  34   19   32 1
  35   20   33 1
  36   20   34 1
  37   20   35 1
  38   22   36 1
  39   22   37 1
  40   22   38 1

#	End of record

