#	Name: ASD03090017
#	Creating user name:	WinNT
#	Creation time:	15. 06. 2019 20:28

#	Modifying user name:	WinNT
#	Modification time:	15. 06. 2019 20:28

#	Program:	/corina/corina34_cracker 3.40 0067  02.08.2006

@<TRIPOS>MOLECULE
ASD03090017
  36   38    0    0    0
SMALL
NO_CHARGES


@<TRIPOS>ATOM
   1 C1            -0.0136     1.4214     0.2452 C.ar    
   2 C2            -0.0681     0.4361     1.2223 C.ar    
   3 C3            -1.2523    -0.2337     1.4610 C.ar    
   4 C4            -2.3845     0.0767     0.7270 C.ar    
   5 C5            -2.3325     1.0590    -0.2479 C.ar    
   6 C6            -1.1522     1.7348    -0.4864 C.ar    
   7 N7             1.1844     2.1014     0.0020 N.pl3   
   8 C8             2.3932     1.4292     0.0915 C.2     
   9 N9             3.5642     1.9792     0.0019 N.2     
  10 C10            4.6186     1.1722     0.1131 C.2     
  11 C11            4.3292    -0.1271     0.3067 C.2     
  12 S12            2.5766    -0.3025     0.3520 S.3     
  13 C13           -3.5665     1.3945    -1.0452 C.3     
  14 F14           -3.2683     2.4089    -1.9613 F       
  15 F15           -4.0003     0.2568    -1.7341 F       
  16 F16           -4.5766     1.8294    -0.1804 F       
  17 F17           -3.5416    -0.5800     0.9619 F       
  18 C18            6.0115     1.6707     0.0290 C.ar    
  19 C19            5.3321    -1.2409     0.4635 C.3     
  20 O20            5.6589    -1.3966     1.8459 O.3     
  21 C21            6.3464     2.7269    -0.8250 C.ar    
  22 C22            7.6549     3.1594    -0.8722 C.ar    
  23 N23            8.5837     2.5912    -0.1265 N.ar    
  24 C24            8.3101     1.5927     0.6920 C.ar    
  25 C25            7.0265     1.1019     0.8055 C.ar    
  26 H26            0.8149     0.1935     1.7948 H       
  27 H27           -1.2950    -1.0003     2.2205 H       
  28 H28           -1.1122     2.5010    -1.2465 H       
  29 H29            1.1692     3.0433    -0.2292 H       
  30 H30            4.9060    -2.1697     0.0840 H       
  31 H31            6.2344    -0.9991    -0.0982 H       
  32 H32            6.3010    -2.0979     2.0217 H       
  33 H33            5.5915     3.1962    -1.4383 H       
  34 H34            7.9233     3.9740    -1.5287 H       
  35 H35            9.1013     1.1571     1.2841 H       
  36 H36            6.8097     0.2845     1.4773 H       
@<TRIPOS>BOND
   1    1    2 ar
   2    1    7 1
   3    1    6 ar
   4    2    3 ar
   5    2   26 1
   6    3    4 ar
   7    3   27 1
   8    4    5 ar
   9    4   17 1
  10    5    6 ar
  11    5   13 1
  12    6   28 1
  13    7    8 1
  14    7   29 1
  15    8    9 2
  16    8   12 1
  17    9   10 1
  18   10   11 2
  19   10   18 1
  20   11   12 1
  21   11   19 1
  22   13   14 1
  23   13   15 1
  24   13   16 1
  25   18   21 ar
  26   18   25 ar
  27   19   20 1
  28   19   30 1
  29   19   31 1
  30   20   32 1
  31   21   22 ar
  32   21   33 1
  33   22   23 ar
  34   22   34 1
  35   23   24 ar
  36   24   25 ar
  37   24   35 1
  38   25   36 1

#	End of record

