#	Name: ASD01903278
#	Creating user name:	WinNT
#	Creation time:	15. 06. 2019 19:54

#	Modifying user name:	WinNT
#	Modification time:	15. 06. 2019 19:54

#	Program:	/corina/corina34_cracker 3.40 0067  02.08.2006

@<TRIPOS>MOLECULE
ASD01903278
  43   46    0    0    0
SMALL
NO_CHARGES


@<TRIPOS>ATOM
   1 C1            -0.0090     1.3701     0.0427 C.ar    
   2 C2            -0.0812     0.1159    -0.5416 C.ar    
   3 C3             1.0385    -0.4064    -1.1704 C.ar    
   4 C4             2.1985     0.3514    -1.1917 C.ar    
   5 C5             2.1991     1.6051    -0.5837 C.ar    
   6 N6             1.1050     2.0684     0.0079 N.ar    
   7 C7             3.4309     2.4276    -0.5977 C.2     
   8 O8             4.4355     2.0082    -1.1380 O.2     
   9 N9             3.4376     3.6411    -0.0113 N.am    
  10 C10            4.6293     4.3707     0.0738 C.ar    
  11 C11            4.6024     5.7515    -0.0277 C.ar    
  12 C12            5.7920     6.4777     0.0579 C.ar    
  13 C13            7.0061     5.8015     0.2463 C.ar    
  14 C14            7.0172     4.4177     0.3463 C.ar    
  15 C15            5.8368     3.7073     0.2660 C.ar    
  16 N16            8.2028     6.5196     0.3275 N.am    
  17 C17            8.9760     6.8321    -0.7281 C.2     
  18 C18           10.1483     7.5914    -0.2448 C.ar    
  19 C19            9.9936     7.6913     1.1529 C.ar    
  20 C20            8.7297     6.9940     1.4707 C.2     
  21 O21            8.7489     6.5390    -1.8846 O.2     
  22 O22            8.2509     6.8645     2.5792 O.2     
  23 C23           12.1983     8.8243    -0.0921 C.ar    
  24 C24           12.0466     8.9223     1.2783 C.ar    
  25 C25           10.9468     8.3580     1.9058 C.ar    
  26 C26           11.2528     8.1604    -0.8582 C.ar    
  27 C27           11.4258     8.0574    -2.3517 C.3     
  28 C28            5.7724     7.9057    -0.0466 C.1     
  29 N29            5.7568     9.0386    -0.1296 N.1     
  30 H30           -0.8807     1.7819     0.5294 H       
  31 H31           -1.0007    -0.4496    -0.5071 H       
  32 H32            1.0076    -1.3819    -1.6328 H       
  33 H33            3.0896    -0.0245    -1.6724 H       
  34 H34            2.6168     4.0089     0.3517 H       
  35 H35            3.6637     6.2655    -0.1731 H       
  36 H36            7.9515     3.8955     0.4910 H       
  37 H37            5.8516     2.6302     0.3444 H       
  38 H38           13.0597     9.2677    -0.5693 H       
  39 H39           12.7901     9.4421     1.8643 H       
  40 H40           10.8333     8.4381     2.9768 H       
  41 H41           10.9479     8.9111    -2.8324 H       
  42 H42           12.4883     8.0513    -2.5948 H       
  43 H43           10.9662     7.1355    -2.7080 H       
@<TRIPOS>BOND
   1    1    2 ar
   2    1    6 ar
   3    1   30 1
   4    2    3 ar
   5    2   31 1
   6    3    4 ar
   7    3   32 1
   8    4    5 ar
   9    4   33 1
  10    5    6 ar
  11    5    7 1
  12    7    8 2
  13    7    9 am
  14    9   10 1
  15    9   34 1
  16   10   11 ar
  17   10   15 ar
  18   11   12 ar
  19   11   35 1
  20   12   28 1
  21   12   13 ar
  22   13   14 ar
  23   13   16 1
  24   14   15 ar
  25   14   36 1
  26   15   37 1
  27   16   17 am
  28   16   20 am
  29   17   18 1
  30   17   21 2
  31   18   19 ar
  32   18   26 ar
  33   19   20 1
  34   19   25 ar
  35   20   22 2
  36   23   24 ar
  37   23   26 ar
  38   23   38 1
  39   24   25 ar
  40   24   39 1
  41   25   40 1
  42   26   27 1
  43   27   41 1
  44   27   42 1
  45   27   43 1
  46   28   29 3

#	End of record

