#	Name: ASD01000151
#	Creating user name:	WinNT
#	Creation time:	15. 06. 2019 18:54

#	Modifying user name:	WinNT
#	Modification time:	15. 06. 2019 18:54

#	Program:	/corina/corina34_cracker 3.40 0067  02.08.2006

@<TRIPOS>MOLECULE
ASD01000151
  54   57    0    0    0
SMALL
NO_CHARGES


@<TRIPOS>ATOM
   1 C1             0.0696     1.4204    -0.3184 C.ar    
   2 C2            -2.4839    -0.4060    -0.3016 C.ar    
   3 C3            -0.0114    -0.0212     0.0020 C.3     
   4 C4             0.6740     4.0389    -1.0239 C.ar    
   5 C5            -0.6177     3.5879    -0.9481 C.ar    
   6 C6            -0.9286     2.2649    -0.5551 C.ar    
   7 C7             1.4032     1.8803    -0.3702 C.ar    
   8 C8             1.7071     3.1734    -0.7125 C.ar    
   9 C9            -3.5694    -1.2851    -0.0705 C.ar    
  10 C10           -3.3888    -2.5477     0.4294 C.ar    
  11 C11           -2.1074    -2.9810     0.7184 C.ar    
  12 C12           -1.0597    -2.1180     0.5165 C.ar    
  13 C13           -1.2628    -0.8108     0.0258 C.ar    
  14 C14            0.9129    -0.7214    -0.9605 C.ar    
  15 C15            1.9694    -1.4731    -0.4812 C.ar    
  16 C16            2.8173    -2.1153    -1.3641 C.ar    
  17 C17            2.6084    -2.0063    -2.7262 C.ar    
  18 C18            1.5513    -1.2554    -3.2054 C.ar    
  19 C19            0.7009    -0.6166    -2.3224 C.ar    
  20 S20            0.7482    -0.2232     1.6370 S.3     
  21 C21           -0.3799     0.6885     2.7264 C.3     
  22 C22            0.0484     0.4935     4.1822 C.3     
  23 C23           -0.8888     1.2508     5.0873 C.2     
  24 N24            0.0049    -0.9360     4.5181 N.3     
  25 O25           -0.7368     2.5739     5.2550 O.3     
  26 O26           -1.7769     0.6671     5.6621 O.2     
  27 C27           -2.4296     2.1252    -0.4119 C.3     
  28 C28           -2.9958     0.8545    -0.9632 C.3     
  29 C29            3.5333    -2.7057    -3.6888 C.3     
  30 H30            0.8824     5.0556    -1.3224 H       
  31 H31           -1.4232     4.2632    -1.1961 H       
  32 H32            2.2049     1.1964    -0.1338 H       
  33 H33            2.7332     3.5094    -0.7380 H       
  34 H34           -4.5711    -0.9497    -0.2950 H       
  35 H35           -4.2361    -3.1963     0.5960 H       
  36 H36           -1.9349    -3.9782     1.0956 H       
  37 H37           -0.0554    -2.4471     0.7389 H       
  38 H38            2.1326    -1.5583     0.5830 H       
  39 H39            3.6431    -2.7020    -0.9897 H       
  40 H40            1.3883    -1.1699    -4.2696 H       
  41 H41           -0.1271    -0.0330    -2.6967 H       
  42 H42           -0.3477     1.7491     2.4772 H       
  43 H43           -1.3951     0.3146     2.5931 H       
  44 H44            1.0635     0.8673     4.3155 H       
  45 H45            0.3449    -1.0979     5.4542 H       
  46 H46           -0.9264    -1.3065     4.4025 H       
  47 H47           -1.3621     3.0163     5.8452 H       
  48 H48           -2.6816     2.1839     0.6469 H       
  49 H49           -2.9039     2.9636    -0.9220 H       
  50 H50           -2.7609     0.8054    -2.0265 H       
  51 H51           -4.0799     0.8847    -0.8548 H       
  52 H52            3.1539    -3.7065    -3.8950 H       
  53 H53            3.5868    -2.1387    -4.6181 H       
  54 H54            4.5282    -2.7777    -3.2493 H       
@<TRIPOS>BOND
   1    1    3 1
   2    1    7 ar
   3    1    6 ar
   4    2    9 ar
   5    2   13 ar
   6    2   28 1
   7    3   14 1
   8    3   20 1
   9    3   13 1
  10    4    5 ar
  11    4    8 ar
  12    4   30 1
  13    5    6 ar
  14    5   31 1
  15    6   27 1
  16    7    8 ar
  17    7   32 1
  18    8   33 1
  19    9   10 ar
  20    9   34 1
  21   10   11 ar
  22   10   35 1
  23   11   12 ar
  24   11   36 1
  25   12   13 ar
  26   12   37 1
  27   14   15 ar
  28   14   19 ar
  29   15   16 ar
  30   15   38 1
  31   16   17 ar
  32   16   39 1
  33   17   18 ar
  34   17   29 1
  35   18   19 ar
  36   18   40 1
  37   19   41 1
  38   20   21 1
  39   21   22 1
  40   21   42 1
  41   21   43 1
  42   22   23 1
  43   22   24 1
  44   22   44 1
  45   23   25 1
  46   23   26 2
  47   24   45 1
  48   24   46 1
  49   25   47 1
  50   27   28 1
  51   27   48 1
  52   27   49 1
  53   28   50 1
  54   28   51 1
  55   29   52 1
  56   29   53 1
  57   29   54 1

#	End of record

