#	Name: ASD01900410
#	Creating user name:	WinNT
#	Creation time:	15. 06. 2019 19:51

#	Modifying user name:	WinNT
#	Modification time:	15. 06. 2019 19:51

#	Program:	/corina/corina34_cracker 3.40 0067  02.08.2006

@<TRIPOS>MOLECULE
ASD01900410
  26   28    0    0    0
SMALL
NO_CHARGES


@<TRIPOS>ATOM
   1 C1            -0.0263     1.3949     0.1275 C.ar    
   2 C2             0.0063     0.0001    -0.0616 C.ar    
   3 C3             1.2232    -0.6706     0.0550 C.ar    
   4 C4             2.3508     0.0688     0.3531 C.ar    
   5 C5             2.2452     1.4426     0.5267 C.ar    
   6 N6             1.0909     2.0594     0.4134 N.ar    
   7 N7            -2.1144     0.7219    -0.3265 N.2     
   8 N8            -1.2753    -0.3971    -0.3380 N.pl3   
   9 C9            -1.4236     1.7964    -0.0518 C.2     
  10 N10           -1.9266     3.0975     0.0457 N.pl3   
  11 C11           -3.3038     3.3227    -0.0398 C.ar    
  12 C12           -4.1958     2.3413     0.3728 C.ar    
  13 C13           -5.5571     2.5658     0.2875 C.ar    
  14 C14           -6.0318     3.7689    -0.2093 C.ar    
  15 C15           -5.1435     4.7489    -0.6218 C.ar    
  16 C16           -3.7816     4.5304    -0.5322 C.ar    
  17 F17           -7.3626     3.9866    -0.2920 F       
  18 Cl18          -5.7413     6.2550    -1.2448 Cl      
  19 Cl19          -6.6725     1.3393     0.8025 Cl      
  20 H20            1.2823    -1.7401    -0.0837 H       
  21 H21            3.3096    -0.4187     0.4511 H       
  22 H22            3.1304     2.0158     0.7597 H       
  23 H23           -1.5560    -1.3088    -0.5137 H       
  24 H24           -1.3201     3.8437     0.1727 H       
  25 H25           -3.8261     1.4032     0.7597 H       
  26 H26           -3.0894     5.2966    -0.8490 H       
@<TRIPOS>BOND
   1    1    2 ar
   2    1    6 ar
   3    1    9 1
   4    2    3 ar
   5    2    8 1
   6    3    4 ar
   7    3   20 1
   8    4    5 ar
   9    4   21 1
  10    5    6 ar
  11    5   22 1
  12    7    8 1
  13    7    9 2
  14    8   23 1
  15    9   10 1
  16   10   11 1
  17   10   24 1
  18   11   12 ar
  19   11   16 ar
  20   12   13 ar
  21   12   25 1
  22   13   14 ar
  23   13   19 1
  24   14   15 ar
  25   14   17 1
  26   15   16 ar
  27   15   18 1
  28   16   26 1

#	End of record

