#	Name: ASD01913357
#	Creating user name:	WinNT
#	Creation time:	15. 06. 2019 20:01

#	Modifying user name:	WinNT
#	Modification time:	15. 06. 2019 20:01

#	Program:	/corina/corina34_cracker 3.40 0067  02.08.2006

@<TRIPOS>MOLECULE
ASD01913357
  37   39    0    0    0
SMALL
NO_CHARGES


@<TRIPOS>ATOM
   1 C1            -0.0166     1.3765     0.0096 C.2     
   2 C2             0.0021    -0.0041     0.0020 C.2     
   3 C3             1.2499    -0.6727    -0.0135 C.2     
   4 N4             2.3635     0.0159    -0.0204 N.2     
   5 C5             2.3514     1.3566    -0.0131 C.2     
   6 N6             1.1685     2.0507     0.0019 N.pl3   
   7 C7             3.3711     2.2994    -0.0170 C.2     
   8 C8             2.7831     3.5557    -0.0042 C.2     
   9 N9             1.4768     3.4160     0.0071 N.2     
  10 C10            3.5231     4.8685    -0.0033 C.3     
  11 C11           -1.2215    -0.7480     0.0102 C.1     
  12 C12           -2.2246    -1.3579     0.0169 C.1     
  13 C13           -3.4482    -2.1018     0.0250 C.ar    
  14 C14           -3.4303    -3.4988     0.0173 C.ar    
  15 N15           -4.5551    -4.1834     0.0244 N.ar    
  16 C16           -5.8374    -2.2077     0.0537 C.ar    
  17 C17           -4.6837    -1.4410     0.0467 C.ar    
  18 C18           -5.7328    -3.5897     0.0392 C.ar    
  19 C19            4.0858     5.1377    -1.4004 C.3     
  20 C20            2.5632     5.9947     0.3855 C.3     
  21 C21            4.6715     4.8060     1.0057 C.3     
  22 F22           -7.0512    -1.6148     0.0750 F       
  23 H23           -0.9539     1.9131     0.0170 H       
  24 H24            1.2833    -1.7522    -0.0192 H       
  25 H25            4.4310     2.0919    -0.0281 H       
  26 H26           -2.4855    -4.0218     0.0052 H       
  27 H27           -4.7351    -0.3623     0.0576 H       
  28 H28           -6.6304    -4.1904     0.0441 H       
  29 H29            3.2677     5.1822    -2.1193 H       
  30 H30            4.6210     6.0872    -1.3998 H       
  31 H31            4.7697     4.3353    -1.6775 H       
  32 H32            2.1623     5.8030     1.3808 H       
  33 H33            3.0985     6.9443     0.3862 H       
  34 H34            1.7451     6.0393    -0.3333 H       
  35 H35            5.3553     4.0037     0.7287 H       
  36 H36            5.2067     5.7555     1.0063 H       
  37 H37            4.2706     4.6142     2.0010 H       
@<TRIPOS>BOND
   1    1    2 2
   2    1    6 1
   3    1   23 1
   4    2    3 1
   5    2   11 1
   6    3    4 2
   7    3   24 1
   8    4    5 1
   9    5    6 1
  10    5    7 2
  11    6    9 1
  12    7    8 1
  13    7   25 1
  14    8    9 2
  15    8   10 1
  16   10   19 1
  17   10   20 1
  18   10   21 1
  19   11   12 3
  20   12   13 1
  21   13   14 ar
  22   13   17 ar
  23   14   15 ar
  24   14   26 1
  25   15   18 ar
  26   16   17 ar
  27   16   22 1
  28   16   18 ar
  29   17   27 1
  30   18   28 1
  31   19   29 1
  32   19   30 1
  33   19   31 1
  34   20   32 1
  35   20   33 1
  36   20   34 1
  37   21   35 1
  38   21   36 1
  39   21   37 1

#	End of record

