#	Name: ASD03730774
#	Creating user name:	WinNT
#	Creation time:	15. 06. 2019 20:44

#	Modifying user name:	WinNT
#	Modification time:	15. 06. 2019 20:44

#	Program:	/corina/corina34_cracker 3.40 0067  02.08.2006

@<TRIPOS>MOLECULE
ASD03730774
  50   54    0    0    0
SMALL
NO_CHARGES


@<TRIPOS>ATOM
   1 C1            -0.0162     1.3433     0.0094 C.2     
   2 N2             0.0021    -0.0041     0.0020 N.am    
   3 C3             1.2590    -0.7466     0.0500 C.3     
   4 C4             2.3445    -0.0406    -0.7528 C.3     
   5 C5             2.4283     1.4113    -0.3719 C.ar    
   6 C6             3.6316     2.0791    -0.3873 C.ar    
   7 C7             3.6870     3.4217    -0.0355 C.ar    
   8 C8             2.5238     4.0983     0.3354 C.ar    
   9 C9             1.3128     3.4326     0.3548 C.ar    
  10 C10            1.2602     2.0852     0.0012 C.ar    
  11 O11            2.8473     5.3920     0.6280 O.3     
  12 C12            4.1444     5.6053     0.0404 C.3     
  13 O13            4.7347     4.2923     0.0273 O.3     
  14 N14            4.1147    -1.1607    -1.7158 N.am    
  15 C15            3.6826    -0.7115    -0.5193 C.2     
  16 C16            2.1099    -0.1896    -2.2240 C.ar    
  17 C17            1.0654     0.2153    -3.0269 C.ar    
  18 C18            1.1598    -0.0823    -4.3822 C.ar    
  19 C19            2.2508    -0.7532    -4.8962 C.ar    
  20 C20            3.3038    -1.1653    -4.0945 C.ar    
  21 C21            3.2213    -0.8726    -2.7321 C.ar    
  22 O22            4.2574    -0.8231     0.5429 O.2     
  23 O23           -1.0741     1.9425     0.0177 O.2     
  24 C24            5.3809    -1.8701    -1.9154 C.3     
  25 C25            5.1534    -3.3746    -1.7546 C.3     
  26 C26            6.4757    -4.1155    -1.9631 C.3     
  27 C27            6.2482    -5.6199    -1.8024 C.3     
  28 C28            7.5706    -6.3608    -2.0108 C.3     
  29 H29           -0.8362    -0.4906    -0.0356 H       
  30 H30            1.5822    -0.8358     1.0872 H       
  31 H31            1.1013    -1.7436    -0.3614 H       
  32 H32            4.5338     1.5586    -0.6728 H       
  33 H33            0.4118     3.9534     0.6435 H       
  34 H34            4.0463     5.9911    -0.9743 H       
  35 H35            4.7357     6.2849     0.6540 H       
  36 H36            0.2124     0.7395    -2.6220 H       
  37 H37            0.3626     0.2176    -5.0462 H       
  38 H38            2.2850    -0.9638    -5.9549 H       
  39 H39            4.1527    -1.6904    -4.5067 H       
  40 H40            5.7584    -1.6647    -2.9170 H       
  41 H41            6.1074    -1.5316    -1.1767 H       
  42 H42            4.7758    -3.5800    -0.7530 H       
  43 H43            4.4269    -3.7131    -2.4933 H       
  44 H44            6.8533    -3.9101    -2.9648 H       
  45 H45            7.2022    -3.7769    -1.2244 H       
  46 H46            5.8707    -5.8253    -0.8007 H       
  47 H47            5.5217    -5.9585    -2.5410 H       
  48 H48            7.9481    -6.1554    -3.0125 H       
  49 H49            8.2971    -6.0222    -1.2721 H       
  50 H50            7.4085    -7.4325    -1.8963 H       
@<TRIPOS>BOND
   1    1    2 am
   2    1   10 1
   3    1   23 2
   4    2    3 1
   5    2   29 1
   6    3    4 1
   7    3   30 1
   8    3   31 1
   9    4    5 1
  10    4   15 1
  11    4   16 1
  12    5    6 ar
  13    5   10 ar
  14    6    7 ar
  15    6   32 1
  16    7    8 ar
  17    7   13 1
  18    8    9 ar
  19    8   11 1
  20    9   10 ar
  21    9   33 1
  22   11   12 1
  23   12   13 1
  24   12   34 1
  25   12   35 1
  26   14   15 am
  27   14   21 1
  28   14   24 1
  29   15   22 2
  30   16   17 ar
  31   16   21 ar
  32   17   18 ar
  33   17   36 1
  34   18   19 ar
  35   18   37 1
  36   19   20 ar
  37   19   38 1
  38   20   21 ar
  39   20   39 1
  40   24   25 1
  41   24   40 1
  42   24   41 1
  43   25   26 1
  44   25   42 1
  45   25   43 1
  46   26   27 1
  47   26   44 1
  48   26   45 1
  49   27   28 1
  50   27   46 1
  51   27   47 1
  52   28   48 1
  53   28   49 1
  54   28   50 1

#	End of record

