#	Name: ASD02500870
#	Creating user name:	WinNT
#	Creation time:	15. 06. 2019 20:23

#	Modifying user name:	WinNT
#	Modification time:	15. 06. 2019 20:23

#	Program:	/corina/corina34_cracker 3.40 0067  02.08.2006

@<TRIPOS>MOLECULE
ASD02500870
  41   43    0    0    0
SMALL
NO_CHARGES


@<TRIPOS>ATOM
   1 C1            -0.0163     1.3519     0.0095 C.2     
   2 C2            -1.0990     1.8079     0.6868 C.2     
   3 C3            -1.1926     2.9944     1.5487 C.2     
   4 N4            -2.3835     3.1997     2.0863 N.am    
   5 C5            -3.3821     2.3499     1.8214 C.2     
   6 S6            -2.7319     1.1136     0.7307 S.3     
   7 O7            -0.2463     3.7317     1.7526 O.2     
   8 C8            -2.6073     4.3495     2.9661 C.3     
   9 C9            -3.0553     5.5309     2.1447 C.2     
  10 O10           -3.3210     6.7025     2.7434 O.3     
  11 O11           -3.1753     5.4234     0.9473 O.2     
  12 S12           -4.9845     2.4427     2.4169 S.2     
  13 C13            1.2077     2.1638    -0.0523 C.ar    
  14 C14            2.4623     1.5529     0.0506 C.ar    
  15 C15            1.1236     3.5499    -0.2201 C.ar    
  16 C16            2.2807     4.3062    -0.2776 C.ar    
  17 C17            3.5210     3.6900    -0.1691 C.ar    
  18 C18            3.6076     2.3190    -0.0084 C.ar    
  19 O19            2.2039     5.6532    -0.4410 O.3     
  20 C20            3.4379     6.3720    -0.4919 C.3     
  21 C21            3.1564     7.8410    -0.6757 C.ar    
  22 C22            4.2035     8.7416    -0.7536 C.ar    
  23 C23            3.9443    10.0902    -0.9228 C.ar    
  24 C24            2.6396    10.5367    -1.0139 C.ar    
  25 C25            1.5935     9.6361    -0.9359 C.ar    
  26 C26            1.8520     8.2882    -0.7721 C.ar    
  27 Cl27           5.8422     8.1801    -0.6386 Cl      
  28 H28           -0.0517     0.3903    -0.4808 H       
  29 H29           -3.3767     4.1029     3.6977 H       
  30 H30           -1.6803     4.5972     3.4833 H       
  31 H31           -3.6052     7.4314     2.1751 H       
  32 H32            2.5338     0.4827     0.1765 H       
  33 H33            0.1589     4.0281    -0.3048 H       
  34 H34            4.4220     4.2838    -0.2145 H       
  35 H35            4.5755     1.8472     0.0753 H       
  36 H36            3.9852     6.2205     0.4385 H       
  37 H37            4.0355     6.0092    -1.3281 H       
  38 H38            4.7614    10.7939    -0.9834 H       
  39 H39            2.4372    11.5893    -1.1456 H       
  40 H40            0.5740     9.9855    -1.0067 H       
  41 H41            1.0344     7.5851    -0.7116 H       
@<TRIPOS>BOND
   1    1    2 2
   2    1   13 1
   3    1   28 1
   4    2    3 1
   5    2    6 1
   6    3    4 am
   7    3    7 2
   8    4    5 am
   9    4    8 1
  10    5    6 1
  11    5   12 2
  12    8    9 1
  13    8   29 1
  14    8   30 1
  15    9   10 1
  16    9   11 2
  17   10   31 1
  18   13   14 ar
  19   13   15 ar
  20   14   18 ar
  21   14   32 1
  22   15   16 ar
  23   15   33 1
  24   16   17 ar
  25   16   19 1
  26   17   18 ar
  27   17   34 1
  28   18   35 1
  29   19   20 1
  30   20   21 1
  31   20   36 1
  32   20   37 1
  33   21   22 ar
  34   21   26 ar
  35   22   23 ar
  36   22   27 1
  37   23   24 ar
  38   23   38 1
  39   24   25 ar
  40   24   39 1
  41   25   26 ar
  42   25   40 1
  43   26   41 1

#	End of record

