#	Name: ASD05060115
#	Creating user name:	WinNT
#	Creation time:	15. 06. 2019 20:56

#	Modifying user name:	WinNT
#	Modification time:	15. 06. 2019 20:56

#	Program:	/corina/corina34_cracker 3.40 0067  02.08.2006

@<TRIPOS>MOLECULE
ASD05060115
  50   52    0    0    0
SMALL
NO_CHARGES


@<TRIPOS>ATOM
   1 C1            -0.0167     1.3783     0.0096 C.ar    
   2 C2             0.0021    -0.0041     0.0020 C.ar    
   3 C3             1.2082    -0.6788    -0.0132 C.ar    
   4 C4             2.3960     0.0288    -0.0212 C.ar    
   5 C5             2.3773     1.4107    -0.0145 C.ar    
   6 C6             1.1708     2.0856     0.0021 C.ar    
   7 C7             1.1503     3.5925     0.0104 C.3     
   8 N8             1.1569     4.0733     1.3943 N.pl3   
   9 C9             2.4288     4.3310     2.0741 C.3     
  10 C10           -0.0519     4.2865     2.0668 C.ar    
  11 C11            2.8422     5.7613     1.8411 C.ar    
  12 C12            2.4379     6.7496     2.7193 C.ar    
  13 C13            2.8170     8.0614     2.5056 C.ar    
  14 C14            3.6009     8.3853     1.4137 C.ar    
  15 C15            4.0058     7.3972     0.5363 C.ar    
  16 C16            3.6302     6.0843     0.7525 C.ar    
  17 C17           -1.2588     4.0412     1.4196 C.ar    
  18 C18           -2.4557     4.2490     2.0745 C.ar    
  19 C19           -2.4635     4.7044     3.3844 C.ar    
  20 C20           -1.2521     4.9533     4.0434 C.ar    
  21 C21           -0.0437     4.7353     3.3758 C.ar    
  22 O22           -3.6418     4.9089     4.0265 O.3     
  23 C23           -1.2522     5.4375     5.4357 C.2     
  24 O24           -2.3044     5.6217     6.0148 O.2     
  25 O25           -0.0854     5.6758     6.0663 O.3     
  26 C26           -1.2926    -0.7753     0.0108 C.3     
  27 C27            4.8599     7.7503    -0.6541 C.3     
  28 H28           -0.9592     1.9056     0.0170 H       
  29 H29            1.2229    -1.7586    -0.0184 H       
  30 H30            3.3386    -0.4985    -0.0324 H       
  31 H31            3.3052     1.9634    -0.0201 H       
  32 H32            2.0303     3.9707    -0.5098 H       
  33 H33            0.2506     3.9464    -0.4929 H       
  34 H34            2.3109     4.1565     3.1436 H       
  35 H35            3.1939     3.6627     1.6791 H       
  36 H36            1.8256     6.4966     3.5722 H       
  37 H37            2.5006     8.8335     3.1912 H       
  38 H38            3.8966     9.4104     1.2463 H       
  39 H39            3.9497     5.3116     0.0689 H       
  40 H40           -1.2591     3.6868     0.3994 H       
  41 H41           -3.3886     4.0568     1.5655 H       
  42 H42            0.8939     4.9207     3.8787 H       
  43 H43           -3.9700     4.1339     4.5026 H       
  44 H44           -0.1360     5.9923     6.9786 H       
  45 H45           -1.6150    -0.9557    -1.0147 H       
  46 H46           -1.1443    -1.7285     0.5181 H       
  47 H47           -2.0550    -0.1993     0.5353 H       
  48 H48            5.9124     7.6830    -0.3789 H       
  49 H49            4.6523     7.0565    -1.4688 H       
  50 H50            4.6326     8.7667    -0.9756 H       
@<TRIPOS>BOND
   1    1    2 ar
   2    1    6 ar
   3    1   28 1
   4    2    3 ar
   5    2   26 1
   6    3    4 ar
   7    3   29 1
   8    4    5 ar
   9    4   30 1
  10    5    6 ar
  11    5   31 1
  12    6    7 1
  13    7    8 1
  14    7   32 1
  15    7   33 1
  16    8    9 1
  17    8   10 1
  18    9   11 1
  19    9   34 1
  20    9   35 1
  21   10   17 ar
  22   10   21 ar
  23   11   12 ar
  24   11   16 ar
  25   12   13 ar
  26   12   36 1
  27   13   14 ar
  28   13   37 1
  29   14   15 ar
  30   14   38 1
  31   15   16 ar
  32   15   27 1
  33   16   39 1
  34   17   18 ar
  35   17   40 1
  36   18   19 ar
  37   18   41 1
  38   19   20 ar
  39   19   22 1
  40   20   21 ar
  41   20   23 1
  42   21   42 1
  43   22   43 1
  44   23   24 2
  45   23   25 1
  46   25   44 1
  47   26   45 1
  48   26   46 1
  49   26   47 1
  50   27   48 1
  51   27   49 1
  52   27   50 1

#	End of record

