#	Name: ASD01883746
#	Creating user name:	WinNT
#	Creation time:	15. 06. 2019 19:47

#	Modifying user name:	WinNT
#	Modification time:	15. 06. 2019 19:47

#	Program:	/corina/corina34_cracker 3.40 0067  02.08.2006

@<TRIPOS>MOLECULE
ASD01883746
  50   54    0    0    0
SMALL
NO_CHARGES


@<TRIPOS>ATOM
   1 C1            -0.0169     1.3978     0.0097 C.2     
   2 C2             0.0021    -0.0041     0.0020 C.2     
   3 C3            -1.2218    -0.7047     0.0104 C.2     
   4 C4            -2.3968    -0.0477     0.0252 C.2     
   5 N5            -2.4615     1.3153     0.0327 N.pl3   
   6 C6            -1.3172     2.0713     0.0319 C.2     
   7 C7            -3.5156     2.1914     0.0465 C.2     
   8 C8            -2.9977     3.4378     0.0477 C.2     
   9 N9            -1.6638     3.3458     0.0397 N.2     
  10 C10           -4.9787     1.8305     0.0578 C.3     
  11 C11            1.2864    -0.7371    -0.0152 C.ar    
  12 C12            1.6484    -1.5294     1.0687 C.ar    
  13 C13            2.8617    -2.2154     1.0404 C.ar    
  14 C14            3.7081    -2.1027    -0.0787 C.ar    
  15 C15            3.3254    -1.3032    -1.1548 C.ar    
  16 C16            2.1345    -0.6371    -1.1262 C.ar    
  17 C17           -5.5168     1.8376    -1.3744 C.3     
  18 F18           -4.8121     0.9041    -2.1420 F       
  19 F19           -6.8750     1.5025    -1.3639 F       
  20 F20           -5.3552     3.1127    -1.9269 F       
  21 C21            1.2014     2.1503     0.0021 C.1     
  22 C22            5.9512    -3.0443    -0.7396 C.3     
  23 C23            7.2337    -2.5618    -0.0549 C.3     
  24 C24            8.4241    -2.8116    -0.9846 C.3     
  25 O25            8.4912    -4.2021    -1.3073 O.3     
  26 C26            7.3390    -4.6985    -1.9914 C.3     
  27 C27            6.1049    -4.5246    -1.1023 C.3     
  28 Cl28           4.3641    -1.1594    -2.5383 Cl      
  29 C29            3.5444    -3.1133     1.9760 C.2     
  30 C30            4.7021    -3.4724     1.3996 C.2     
  31 N31            4.8167    -2.8785     0.1724 N.pl3   
  32 N32            2.1679     2.7472    -0.0039 N.1     
  33 H33           -1.2164    -1.7847     0.0046 H       
  34 H34           -3.3152    -0.6160     0.0310 H       
  35 H35           -3.5659     4.3562     0.0573 H       
  36 H36           -5.1045     0.8370     0.4883 H       
  37 H37           -5.5277     2.5578     0.6558 H       
  38 H38            0.9956    -1.6123     1.9251 H       
  39 H39            1.8468    -0.0201    -1.9646 H       
  40 H40            5.7805    -2.4627    -1.6455 H       
  41 H41            7.1545    -1.4956     0.1570 H       
  42 H42            7.3776    -3.1095     0.8764 H       
  43 H43            8.2991    -2.2318    -1.8991 H       
  44 H44            9.3448    -2.5095    -0.4854 H       
  45 H45            7.1998    -4.1434    -2.9191 H       
  46 H46            7.4779    -5.7557    -2.2176 H       
  47 H47            6.2261    -5.1119    -0.1921 H       
  48 H48            5.2185    -4.8620    -1.6393 H       
  49 H49            3.1847    -3.4261     2.9451 H       
  50 H50            5.4349    -4.1326     1.8396 H       
@<TRIPOS>BOND
   1    1    2 2
   2    1   21 1
   3    1    6 1
   4    2    3 1
   5    2   11 1
   6    3    4 2
   7    3   33 1
   8    4    5 1
   9    4   34 1
  10    5    6 1
  11    5    7 1
  12    6    9 2
  13    7    8 2
  14    7   10 1
  15    8    9 1
  16    8   35 1
  17   10   17 1
  18   10   36 1
  19   10   37 1
  20   11   12 ar
  21   11   16 ar
  22   12   13 ar
  23   12   38 1
  24   13   14 ar
  25   13   29 1
  26   14   15 ar
  27   14   31 1
  28   15   16 ar
  29   15   28 1
  30   16   39 1
  31   17   18 1
  32   17   19 1
  33   17   20 1
  34   21   32 3
  35   22   23 1
  36   22   27 1
  37   22   31 1
  38   22   40 1
  39   23   24 1
  40   23   41 1
  41   23   42 1
  42   24   25 1
  43   24   43 1
  44   24   44 1
  45   25   26 1
  46   26   27 1
  47   26   45 1
  48   26   46 1
  49   27   47 1
  50   27   48 1
  51   29   30 2
  52   29   49 1
  53   30   31 1
  54   30   50 1

#	End of record

