#	Name: ASD05723005
#	Creating user name:	WinNT
#	Creation time:	15. 06. 2019 21:02

#	Modifying user name:	WinNT
#	Modification time:	15. 06. 2019 21:02

#	Program:	/corina/corina34_cracker 3.40 0067  02.08.2006

@<TRIPOS>MOLECULE
ASD05723005
  59   64    0    0    0
SMALL
NO_CHARGES


@<TRIPOS>ATOM
   1 C1             0.0262     0.1137     0.6625 C.3     
   2 C2            -0.9015    -0.0333    -0.5453 C.3     
   3 C3            -2.0028    -1.0451    -0.2223 C.3     
   4 C4            -1.5093     1.2702    -0.8587 C.1     
   5 N5            -1.9784     2.2762    -1.1005 N.1     
   6 C6            -0.1083    -0.5160    -1.7322 C.ar    
   7 C7            -0.7389    -0.7235    -2.9453 C.ar    
   8 C8            -0.0146    -1.1659    -4.0349 C.ar    
   9 C9             1.3481    -1.4019    -3.9115 C.ar    
  10 C10            1.9785    -1.1922    -2.6922 C.ar    
  11 C11            1.2497    -0.7452    -1.6075 C.ar    
  12 N12            2.0855    -1.8511    -5.0148 N.am    
  13 C13            2.7533    -1.0491    -5.9215 C.ar    
  14 C14            2.9288     0.3425    -6.0708 C.ar    
  15 C15            2.3569     1.2527    -5.1739 C.ar    
  16 C16            2.5557     2.6094    -5.3603 C.ar    
  17 C17            3.3245     3.0726    -6.4394 C.ar    
  18 C18            3.8863     2.2038    -7.3193 C.ar    
  19 C19            3.7040     0.8184    -7.1584 C.ar    
  20 N20            4.2530    -0.0468    -8.0188 N.ar    
  21 C21            4.0996    -1.3441    -7.8938 C.ar    
  22 C22            3.3517    -1.8918    -6.8526 C.ar    
  23 N23            3.0268    -3.1939    -6.4808 N.am    
  24 C24            2.2687    -3.1380    -5.3686 C.2     
  25 O25            1.8168    -4.1006    -4.7769 O.2     
  26 C26            3.4422    -4.4146    -7.1763 C.3     
  27 C27            1.9525     3.5796    -4.4145 C.ar    
  28 C28            2.0531     4.9423    -4.6529 C.ar    
  29 C29            1.4636     5.8195    -3.7258 C.ar    
  30 C30            1.5246     7.2122    -3.8996 C.ar    
  31 C31            0.9425     8.0313    -2.9807 C.ar    
  32 C32            0.2867     7.5060    -1.8696 C.ar    
  33 C33            0.2090     6.1616    -1.6698 C.ar    
  34 C34            0.7966     5.2828    -2.5957 C.ar    
  35 N35            0.7333     3.9583    -2.4198 N.ar    
  36 C36            1.2704     3.1252    -3.2741 C.ar    
  37 H37            0.4763    -0.8515     0.8945 H       
  38 H38            0.8108     0.8345     0.4323 H       
  39 H39           -0.5475     0.4629     1.5209 H       
  40 H40           -2.5766    -0.6959     0.6362 H       
  41 H41           -2.6637    -1.1498    -1.0827 H       
  42 H42           -1.5527    -2.0103     0.0098 H       
  43 H43           -1.7988    -0.5397    -3.0407 H       
  44 H44           -0.5078    -1.3284    -4.9819 H       
  45 H45            3.0383    -1.3753    -2.5930 H       
  46 H46            1.7401    -0.5783    -0.6599 H       
  47 H47            1.7646     0.8987    -4.3431 H       
  48 H48            3.4710     4.1344    -6.5720 H       
  49 H49            4.4743     2.5776    -8.1445 H       
  50 H50            4.5624    -2.0022    -8.6144 H       
  51 H51            4.3904    -4.7617    -6.7659 H       
  52 H52            2.6838    -5.1857    -7.0413 H       
  53 H53            3.5615    -4.2044    -8.2391 H       
  54 H54            2.5689     5.3182    -5.5242 H       
  55 H55            2.0306     7.6308    -4.7570 H       
  56 H56            0.9901     9.1019    -3.1149 H       
  57 H57           -0.1672     8.1763    -1.1547 H       
  58 H58           -0.3028     5.7717    -0.8024 H       
  59 H59            1.1912     2.0630    -3.0956 H       
@<TRIPOS>BOND
   1    1    2 1
   2    1   37 1
   3    1   38 1
   4    1   39 1
   5    2    3 1
   6    2    4 1
   7    2    6 1
   8    3   40 1
   9    3   41 1
  10    3   42 1
  11    4    5 3
  12    6    7 ar
  13    6   11 ar
  14    7    8 ar
  15    7   43 1
  16    8    9 ar
  17    8   44 1
  18    9   10 ar
  19    9   12 1
  20   10   11 ar
  21   10   45 1
  22   11   46 1
  23   12   13 1
  24   12   24 am
  25   13   14 ar
  26   13   22 ar
  27   14   15 ar
  28   14   19 ar
  29   15   16 ar
  30   15   47 1
  31   16   17 ar
  32   16   27 1
  33   17   18 ar
  34   17   48 1
  35   18   19 ar
  36   18   49 1
  37   19   20 ar
  38   20   21 ar
  39   21   22 ar
  40   21   50 1
  41   22   23 1
  42   23   24 am
  43   23   26 1
  44   24   25 2
  45   26   51 1
  46   26   52 1
  47   26   53 1
  48   27   28 ar
  49   27   36 ar
  50   28   29 ar
  51   28   54 1
  52   29   30 ar
  53   29   34 ar
  54   30   31 ar
  55   30   55 1
  56   31   32 ar
  57   31   56 1
  58   32   33 ar
  59   32   57 1
  60   33   34 ar
  61   33   58 1
  62   34   35 ar
  63   35   36 ar
  64   36   59 1

#	End of record

