#	Name: ASD00180025
#	Creating user name:	WinNT
#	Creation time:	15. 06. 2019 18:33

#	Modifying user name:	WinNT
#	Modification time:	15. 06. 2019 18:33

#	Program:	/corina/corina34_cracker 3.40 0067  02.08.2006

@<TRIPOS>MOLECULE
ASD00180025
  45   46    0    0    0
SMALL
NO_CHARGES


@<TRIPOS>ATOM
   1 N1             0.0167     1.1142    -0.1658 N.ar    
   2 C2             0.1779    -0.1863    -0.2826 C.ar    
   3 C3             1.4627    -0.7408    -0.2645 C.ar    
   4 N4             2.5243     0.0433    -0.1293 N.ar    
   5 C5             2.3671     1.3561    -0.0110 C.ar    
   6 C6             1.0772     1.9087    -0.0296 C.ar    
   7 C7             0.8959     3.3687     0.1010 C.2     
   8 N8            -0.3242     3.9078    -0.0369 N.2     
   9 O9             1.8550     4.0833     0.3342 O.2     
  10 C10           -0.5167     4.8995    -0.8923 C.2     
  11 N11            3.4719     2.1773     0.1306 N.pl3   
  12 N12            0.4968     5.2984    -1.7135 N.pl3   
  13 N13           -1.7287     5.5226    -0.9526 N.pl3   
  14 Cl14          -1.2074    -1.2177    -0.4593 Cl      
  15 N15            1.6263    -2.1105    -0.3875 N.pl3   
  16 C16            2.9707    -2.6923    -0.3687 C.3     
  17 C17            2.8711    -4.2115    -0.5207 C.3     
  18 S18            4.5358    -4.9318    -0.4974 S.o2    
  19 C19            4.1813    -6.7007    -0.6877 C.3     
  20 C20            5.4744    -7.4747    -0.6903 C.ar    
  21 C21            7.1872    -8.6544     0.4959 C.ar    
  22 C22            7.8463    -8.8951    -0.6951 C.ar    
  23 C23            7.3227    -8.4200    -1.8830 C.ar    
  24 C24            6.1366    -7.7101    -1.8806 C.ar    
  25 C25            6.0011    -7.9444     0.4983 C.ar    
  26 O26            5.2388    -4.4846    -1.6485 O.2     
  27 O27            5.1030    -4.7195     0.7880 O.2     
  28 H28            4.3554     1.7891     0.2290 H       
  29 H29            3.3629     3.1412     0.1316 H       
  30 H30            1.3336     4.8079    -1.7245 H       
  31 H31            0.3808     6.0725    -2.2864 H       
  32 H32           -2.4494     5.2390    -0.3687 H       
  33 H33           -1.8698     6.2493    -1.5794 H       
  34 H34            0.8507    -2.6846    -0.4861 H       
  35 H35            3.5555    -2.2823    -1.1920 H       
  36 H36            3.4570    -2.4529     0.5770 H       
  37 H37            2.2863    -4.6215     0.3027 H       
  38 H38            2.3848    -4.4509    -1.4664 H       
  39 H39            3.5579    -7.0375     0.1406 H       
  40 H40            3.6565    -6.8669    -1.6285 H       
  41 H41            7.5962    -9.0256     1.4240 H       
  42 H42            8.7729    -9.4498    -0.6970 H       
  43 H43            7.8377    -8.6081    -2.8136 H       
  44 H44            5.7272    -7.3396    -2.8088 H       
  45 H45            5.4862    -7.7563     1.4288 H       
@<TRIPOS>BOND
   1    1    2 ar
   2    1    6 ar
   3    2    3 ar
   4    2   14 1
   5    3    4 ar
   6    3   15 1
   7    4    5 ar
   8    5    6 ar
   9    5   11 1
  10    6    7 1
  11    7    8 1
  12    7    9 2
  13    8   10 2
  14   10   12 1
  15   10   13 1
  16   11   28 1
  17   11   29 1
  18   12   30 1
  19   12   31 1
  20   13   32 1
  21   13   33 1
  22   15   16 1
  23   15   34 1
  24   16   17 1
  25   16   35 1
  26   16   36 1
  27   17   18 1
  28   17   37 1
  29   17   38 1
  30   18   19 1
  31   18   26 2
  32   18   27 2
  33   19   20 1
  34   19   39 1
  35   19   40 1
  36   20   25 ar
  37   20   24 ar
  38   21   22 ar
  39   21   25 ar
  40   21   41 1
  41   22   23 ar
  42   22   42 1
  43   23   24 ar
  44   23   43 1
  45   24   44 1
  46   25   45 1

#	End of record

