#	Name: ASD00069409
#	Creating user name:	WinNT
#	Creation time:	15. 06. 2019 18:29

#	Modifying user name:	WinNT
#	Modification time:	15. 06. 2019 18:29

#	Program:	/corina/corina34_cracker 3.40 0067  02.08.2006

@<TRIPOS>MOLECULE
ASD00069409
  87   90    0    0    0
SMALL
NO_CHARGES


@<TRIPOS>ATOM
   1 C1             0.0250     1.2651     0.9011 C.2     
   2 C2             0.0322    -0.0374     0.5226 C.2     
   3 C3             2.0921     0.6037     0.5903 C.2     
   4 N4             1.2959    -0.4145     0.3405 N.2     
   5 Br5           -1.4930    -1.1315     0.2932 Br      
   6 C6             3.5628     0.5908     0.5014 C.2     
   7 O7             4.1964     1.5973     0.7567 O.2     
   8 N8             4.2061    -0.5361     0.1370 N.am    
   9 C9             5.5926    -0.5185    -0.0596 C.ar    
  10 C10            6.3144    -1.7109    -0.0531 C.ar    
  11 C11            6.2506     0.6855    -0.2672 C.ar    
  12 C12            7.6187     0.7016    -0.4610 C.ar    
  13 C13            8.3374    -0.4802    -0.4492 C.ar    
  14 C14            7.6893    -1.6863    -0.2487 C.ar    
  15 N15            5.6554    -2.9301     0.1506 N.3     
  16 C16            6.0979    -3.5654     1.3983 C.3     
  17 C17            5.2558    -4.8160     1.6617 C.3     
  18 C18            5.4112    -5.7858     0.4879 C.3     
  19 C19            4.9906    -5.0850    -0.8059 C.3     
  20 C20            5.8403    -3.8264    -0.9977 C.3     
  21 F21            8.3943    -2.8387    -0.2373 F       
  22 C22            6.8745    -6.2236     0.3786 C.3     
  23 C23            6.3862    -8.1552     1.9352 C.3     
  24 C24            4.9283    -7.6942     2.0282 C.3     
  25 C25            4.5280    -7.0132     0.7172 C.3     
  26 N26            1.3212     1.6748     0.9455 N.pl3   
  27 Si27           0.2476     7.7264     2.7628 Si      
  28 C28           -0.2210     5.9876     2.2855 C.3     
  29 C29            1.0446     5.1842     1.9794 C.3     
  30 O30            0.6851     3.8504     1.6133 O.3     
  31 C31            1.1682     8.5297     1.3563 C.3     
  32 C32           -1.2933     8.7048     3.1355 C.3     
  33 C33            1.3367     7.6836     4.2737 C.3     
  34 C34            1.8003     3.0116     1.3056 C.3     
  35 N35            7.2247    -7.0044     1.5732 N.am    
  36 O36            8.6038    -7.3959     3.4140 O.3     
  37 C37            9.7697    -6.9797     4.1728 C.3     
  38 C38            9.5683    -5.5479     4.6728 C.3     
  39 C39            9.9607    -7.9153     5.3683 C.3     
  40 C40           11.0086    -7.0375     3.2769 C.3     
  41 C41            8.2947    -6.6715     2.3220 C.2     
  42 O42            8.9804    -5.7176     2.0116 O.2     
  43 H43           -0.8457     1.8649     1.1210 H       
  44 H44            3.7088    -1.3593     0.0110 H       
  45 H45            5.6931     1.6104    -0.2775 H       
  46 H46            8.1285     1.6399    -0.6227 H       
  47 H47            9.4064    -0.4620    -0.6016 H       
  48 H48            7.1475    -3.8461     1.3106 H       
  49 H49            5.9771    -2.8654     2.2250 H       
  50 H50            5.5957    -5.2972     2.5788 H       
  51 H51            4.2079    -4.5342     1.7647 H       
  52 H52            5.1415    -5.7580    -1.6500 H       
  53 H53            3.9383    -4.8078    -0.7442 H       
  54 H54            5.5324    -3.3160    -1.9102 H       
  55 H55            6.8910    -4.1059    -1.0748 H       
  56 H56            7.0064    -6.8386    -0.5116 H       
  57 H57            7.5154    -5.3442     0.3160 H       
  58 H58            6.7062    -8.5516     2.8988 H       
  59 H59            6.4770    -8.9279     1.1718 H       
  60 H60            4.2844    -8.5565     2.2016 H       
  61 H61            4.8217    -6.9885     2.8521 H       
  62 H62            3.4842    -6.7043     0.7725 H       
  63 H63            4.6563    -7.7124    -0.1091 H       
  64 H64           -0.7596     5.5177     3.1084 H       
  65 H65           -0.8581     6.0127     1.4015 H       
  66 H66            1.5832     5.6542     1.1565 H       
  67 H67            1.6817     5.1591     2.8634 H       
  68 H68            0.5310     8.5548     0.4723 H       
  69 H69            1.4424     9.5471     1.6356 H       
  70 H70            2.0698     7.9573     1.1382 H       
  71 H71           -1.8320     8.2348     3.9584 H       
  72 H72           -1.0192     9.7221     3.4147 H       
  73 H73           -1.9305     8.7299     2.2515 H       
  74 H74            2.2383     7.1112     4.0556 H       
  75 H75            1.6109     8.7009     4.5529 H       
  76 H76            0.7981     7.2136     5.0966 H       
  77 H77            2.4532     2.9414     2.1756 H       
  78 H78            2.3546     3.4365     0.4687 H       
  79 H79            8.6856    -5.5067     5.3111 H       
  80 H80           10.4435    -5.2354     5.2425 H       
  81 H81            9.4322    -4.8814     3.8212 H       
  82 H82           10.1042    -8.9354     5.0120 H       
  83 H83           10.8359    -7.6029     5.9379 H       
  84 H84            9.0781    -7.8741     6.0065 H       
  85 H85           10.8725    -6.3710     2.4252 H       
  86 H86           11.8838    -6.7251     3.8465 H       
  87 H87           11.1521    -8.0576     2.9206 H       
@<TRIPOS>BOND
   1    1    2 2
   2    1   26 1
   3    1   43 1
   4    2    5 1
   5    2    4 1
   6    3    4 2
   7    3    6 1
   8    3   26 1
   9    6    7 2
  10    6    8 am
  11    8    9 1
  12    8   44 1
  13    9   10 ar
  14    9   11 ar
  15   10   15 1
  16   10   14 ar
  17   11   12 ar
  18   11   45 1
  19   12   13 ar
  20   12   46 1
  21   13   14 ar
  22   13   47 1
  23   14   21 1
  24   15   16 1
  25   15   20 1
  26   16   17 1
  27   16   48 1
  28   16   49 1
  29   17   18 1
  30   17   50 1
  31   17   51 1
  32   18   19 1
  33   18   22 1
  34   18   25 1
  35   19   20 1
  36   19   52 1
  37   19   53 1
  38   20   54 1
  39   20   55 1
  40   22   35 1
  41   22   56 1
  42   22   57 1
  43   23   24 1
  44   23   35 1
  45   23   58 1
  46   23   59 1
  47   24   25 1
  48   24   60 1
  49   24   61 1
  50   25   62 1
  51   25   63 1
  52   26   34 1
  53   27   28 1
  54   27   31 1
  55   27   32 1
  56   27   33 1
  57   28   29 1
  58   28   64 1
  59   28   65 1
  60   29   30 1
  61   29   66 1
  62   29   67 1
  63   30   34 1
  64   31   68 1
  65   31   69 1
  66   31   70 1
  67   32   71 1
  68   32   72 1
  69   32   73 1
  70   33   74 1
  71   33   75 1
  72   33   76 1
  73   34   77 1
  74   34   78 1
  75   35   41 am
  76   36   37 1
  77   36   41 1
  78   37   38 1
  79   37   39 1
  80   37   40 1
  81   38   79 1
  82   38   80 1
  83   38   81 1
  84   39   82 1
  85   39   83 1
  86   39   84 1
  87   40   85 1
  88   40   86 1
  89   40   87 1
  90   41   42 2

#	End of record

