#	Name: ASD01870392
#	Creating user name:	WinNT
#	Creation time:	15. 06. 2019 19:39

#	Modifying user name:	WinNT
#	Modification time:	15. 06. 2019 19:39

#	Program:	/corina/corina34_cracker 3.40 0067  02.08.2006

@<TRIPOS>MOLECULE
ASD01870392
  54   58    0    0    0
SMALL
NO_CHARGES


@<TRIPOS>ATOM
   1 N1            -0.0179     1.4666     0.0101 N.am    
   2 C2             0.0021    -0.0041     0.0020 C.3     
   3 C3            -0.8912    -0.5093     1.1400 C.3     
   4 N4            -2.2247     0.0945     1.0165 N.3     
   5 C5            -2.1640     1.5549     1.1632 C.3     
   6 C6            -1.3228     2.1447     0.0324 C.3     
   7 C7            -3.1112    -0.4624     1.9332 C.ar    
   8 C8            -4.4384    -0.0378     1.9940 C.ar    
   9 C9             1.1293     2.1740     0.0030 C.2     
  10 C10            1.0857     3.6803     0.0115 C.3     
  11 O11            2.1967     1.5983    -0.0103 O.2     
  12 C12            2.4763     4.3407     0.0017 C.3     
  13 N13            1.9076     5.2908    -0.9739 N.am    
  14 C14            0.8907     4.3026    -1.3830 C.3     
  15 S15            2.2664     6.8425    -1.4275 S.o2    
  16 C16            3.4250     6.7442    -2.7514 C.ar    
  17 C17            4.7806     6.7216    -2.4826 C.ar    
  18 O18            1.0740     7.3858    -1.9773 O.2     
  19 O19            2.9563     7.4310    -0.3334 O.2     
  20 C20           -5.2849    -0.6150     2.9168 C.ar    
  21 N21           -4.8532    -1.5565     3.7351 N.ar    
  22 C22           -3.6052    -1.9854     3.7087 C.ar    
  23 C23           -2.6973    -1.4639     2.8113 C.ar    
  24 C24            2.9771     6.6840    -4.0589 C.ar    
  25 C25            3.8851     6.6066    -5.0942 C.ar    
  26 C26            5.2450     6.5891    -4.8249 C.ar    
  27 C27            5.6914     6.6444    -3.5210 C.ar    
  28 C28            3.7241     6.5284    -6.5944 C.3     
  29 O29            5.0025     6.8890    -7.1490 O.3     
  30 C30            5.9637     6.4995    -6.1508 C.3     
  31 H31           -0.3778    -0.3702    -0.9518 H       
  32 H32            1.0222    -0.3573     0.1529 H       
  33 H33           -0.9764    -1.5943     1.0812 H       
  34 H34           -0.4527    -0.2298     2.0980 H       
  35 H35           -3.1723     1.9669     1.1212 H       
  36 H36           -1.7078     1.8056     2.1209 H       
  37 H37           -1.1798     3.2121     0.2008 H       
  38 H38           -1.8275     1.9859    -0.9206 H       
  39 H39           -4.7979     0.7326     1.3279 H       
  40 H40            0.4145     4.0817     0.7708 H       
  41 H41            2.7518     4.7987     0.9517 H       
  42 H42            3.2612     3.7060    -0.4094 H       
  43 H43            1.2098     3.6567    -2.2009 H       
  44 H44           -0.0998     4.7302    -1.5387 H       
  45 H45            5.1290     6.7646    -1.4613 H       
  46 H46           -6.3142    -0.2925     2.9710 H       
  47 H47           -3.2923    -2.7578     4.3957 H       
  48 H48           -1.6776    -1.8195     2.7948 H       
  49 H49            1.9178     6.6972    -4.2687 H       
  50 H50            6.7507     6.6308    -3.3112 H       
  51 H51            3.4587     5.5137    -6.8912 H       
  52 H52            2.9590     7.2298    -6.9271 H       
  53 H53            6.8149     7.1802    -6.1633 H       
  54 H54            6.2969     5.4772    -6.3290 H       
@<TRIPOS>BOND
   1    1    2 1
   2    1    9 am
   3    1    6 1
   4    2    3 1
   5    2   31 1
   6    2   32 1
   7    3    4 1
   8    3   33 1
   9    3   34 1
  10    4    5 1
  11    4    7 1
  12    5    6 1
  13    5   35 1
  14    5   36 1
  15    6   37 1
  16    6   38 1
  17    7    8 ar
  18    7   23 ar
  19    8   20 ar
  20    8   39 1
  21    9   10 1
  22    9   11 2
  23   10   12 1
  24   10   14 1
  25   10   40 1
  26   12   13 1
  27   12   41 1
  28   12   42 1
  29   13   14 1
  30   13   15 am
  31   14   43 1
  32   14   44 1
  33   15   16 1
  34   15   18 2
  35   15   19 2
  36   16   24 ar
  37   16   17 ar
  38   17   27 ar
  39   17   45 1
  40   20   21 ar
  41   20   46 1
  42   21   22 ar
  43   22   23 ar
  44   22   47 1
  45   23   48 1
  46   24   25 ar
  47   24   49 1
  48   25   26 ar
  49   25   28 1
  50   26   27 ar
  51   26   30 1
  52   27   50 1
  53   28   29 1
  54   28   51 1
  55   28   52 1
  56   29   30 1
  57   30   53 1
  58   30   54 1

#	End of record

