#	Name: ASD01913990
#	Creating user name:	WinNT
#	Creation time:	15. 06. 2019 20:02

#	Modifying user name:	WinNT
#	Modification time:	15. 06. 2019 20:02

#	Program:	/corina/corina34_cracker 3.40 0067  02.08.2006

@<TRIPOS>MOLECULE
ASD01913990
  37   40    0    0    0
SMALL
NO_CHARGES


@<TRIPOS>ATOM
   1 N1            -0.0767     1.2763    -0.0484 N.pl3   
   2 N2            -0.0362    -0.0144     0.0024 N.2     
   3 C3             1.1985    -0.4486    -0.2005 C.2     
   4 C4             2.0051     0.6773    -0.3937 C.2     
   5 C5             3.4806     0.8141    -0.6263 C.3     
   6 C6             3.7851     2.0562    -1.4667 C.3     
   7 C7             2.9556     3.2368    -1.0224 C.2     
   8 C8             1.6968     3.1234    -0.4923 C.2     
   9 C9             1.1484     1.7540    -0.3064 C.2     
  10 C10            1.1029     4.3414    -0.1870 C.2     
  11 C11            1.8508     5.4144    -0.4266 C.2     
  12 S12            3.4060     4.9305    -1.0876 S.3     
  13 C13            1.6408    -1.8578    -0.2188 C.2     
  14 O14            2.8101    -2.1255    -0.4168 O.2     
  15 N15            0.7480    -2.8469    -0.0161 N.am    
  16 C16           -1.2788     2.0919     0.1409 C.3     
  17 C17            1.1465    -4.1827    -0.1298 C.ar    
  18 C18            2.4173    -4.5668     0.2783 C.ar    
  19 C19            2.8076    -5.8877     0.1650 C.ar    
  20 C20            1.9332    -6.8267    -0.3545 C.ar    
  21 C21            0.6681    -6.4464    -0.7618 C.ar    
  22 C22            0.2703    -5.1286    -0.6456 C.ar    
  23 Cl23           4.3958    -6.3696     0.6741 Cl      
  24 H24            3.9889     0.8975     0.3343 H       
  25 H25            3.8449    -0.0706    -1.1485 H       
  26 H26            4.8417     2.3045    -1.3665 H       
  27 H27            3.5680     1.8411    -2.5130 H       
  28 H28            0.1035     4.4120     0.2163 H       
  29 H29            1.5469     6.4342    -0.2424 H       
  30 H30           -0.1709    -2.6324     0.2086 H       
  31 H31           -1.3869     2.3401     1.1967 H       
  32 H32           -1.1907     3.0094    -0.4409 H       
  33 H33           -2.1533     1.5329    -0.1923 H       
  34 H34            3.0996    -3.8342     0.6833 H       
  35 H35            2.2401    -7.8585    -0.4423 H       
  36 H36           -0.0117    -7.1812    -1.1670 H       
  37 H37           -0.7200    -4.8334    -0.9596 H       
@<TRIPOS>BOND
   1    1    2 1
   2    1    9 1
   3    1   16 1
   4    2    3 2
   5    3    4 1
   6    3   13 1
   7    4    5 1
   8    4    9 2
   9    5    6 1
  10    5   24 1
  11    5   25 1
  12    6    7 1
  13    6   26 1
  14    6   27 1
  15    7    8 2
  16    7   12 1
  17    8    9 1
  18    8   10 1
  19   10   11 2
  20   10   28 1
  21   11   12 1
  22   11   29 1
  23   13   14 2
  24   13   15 am
  25   15   17 1
  26   15   30 1
  27   16   31 1
  28   16   32 1
  29   16   33 1
  30   17   18 ar
  31   17   22 ar
  32   18   19 ar
  33   18   34 1
  34   19   20 ar
  35   19   23 1
  36   20   21 ar
  37   20   35 1
  38   21   22 ar
  39   21   36 1
  40   22   37 1

#	End of record

