#	Name: ASD03092109
#	Creating user name:	WinNT
#	Creation time:	15. 06. 2019 20:32

#	Modifying user name:	WinNT
#	Modification time:	15. 06. 2019 20:32

#	Program:	/corina/corina34_cracker 3.40 0067  02.08.2006

@<TRIPOS>MOLECULE
ASD03092109
  46   48    0    0    0
SMALL
NO_CHARGES


@<TRIPOS>ATOM
   1 N1             0.1400     1.5190     0.0343 N.am    
   2 C2             0.1275     0.1504    -0.0408 C.2     
   3 C3            -1.1771    -0.2425    -0.0877 C.2     
   4 C4            -1.9755     0.9116    -0.0401 C.2     
   5 N5            -1.1896     1.9594     0.0381 N.2     
   6 N6            -3.3724     0.9393    -0.0658 N.pl3   
   7 C7            -4.0506     2.1526     0.0865 C.ar    
   8 C8            -3.5043     3.3230    -0.4237 C.ar    
   9 C9            -4.1763     4.5227    -0.2722 C.ar    
  10 C10           -5.3945     4.5569     0.3885 C.ar    
  11 C11           -5.2739     2.1874     0.7432 C.ar    
  12 C12            1.3107    -0.7363    -0.0666 C.ar    
  13 C13            1.2359     2.3010     0.0989 C.2     
  14 C14            1.3024    -1.9665     0.6010 C.ar    
  15 C15            2.4280    -2.7621     0.5506 C.ar    
  16 N16            3.5008    -2.3770    -0.1141 N.ar    
  17 C17            3.5506    -1.2258    -0.7568 C.ar    
  18 C18            2.4680    -0.3712    -0.7642 C.ar    
  19 C19            4.8053    -0.8422    -1.4982 C.3     
  20 C20           -5.9409     3.3894     0.8983 C.ar    
  21 F21           -3.6450     5.6615    -0.7680 F       
  22 N22            1.1102     3.6422     0.0556 N.am    
  23 O23            2.3372     1.7967     0.1961 O.2     
  24 C24            2.3014     4.4921     0.1257 C.3     
  25 C25            2.4327    -4.0890     1.2649 C.3     
  26 C26            1.8837     5.9623     0.0567 C.3     
  27 F27           -6.0495     5.7292     0.5361 F       
  28 F28           -7.1282     3.4245     1.5419 F       
  29 H29           -1.5331    -1.2602    -0.1508 H       
  30 H30           -3.8716     0.1168    -0.1894 H       
  31 H31           -2.5551     3.2968    -0.9382 H       
  32 H32           -5.7020     1.2772     1.1366 H       
  33 H33            0.4281    -2.2877     1.1476 H       
  34 H34            2.5158     0.5696    -1.2924 H       
  35 H35            4.7472    -1.2068    -2.5237 H       
  36 H36            4.9067     0.2431    -1.5036 H       
  37 H37            5.6695    -1.2853    -1.0034 H       
  38 H38            0.2311     4.0447    -0.0220 H       
  39 H39            2.8252     4.3068     1.0635 H       
  40 H40            2.9615     4.2623    -0.7107 H       
  41 H41            2.0729    -4.8660     0.5904 H       
  42 H42            3.4476    -4.3263     1.5840 H       
  43 H43            1.7811    -4.0346     2.1370 H       
  44 H44            1.3598     6.1476    -0.8810 H       
  45 H45            1.2236     6.1921     0.8932 H       
  46 H46            2.7699     6.5947     0.1089 H       
@<TRIPOS>BOND
   1    1    2 1
   2    1   13 am
   3    1    5 1
   4    2    3 2
   5    2   12 1
   6    3    4 1
   7    3   29 1
   8    4    5 2
   9    4    6 1
  10    6    7 1
  11    6   30 1
  12    7    8 ar
  13    7   11 ar
  14    8    9 ar
  15    8   31 1
  16    9   10 ar
  17    9   21 1
  18   10   20 ar
  19   10   27 1
  20   11   20 ar
  21   11   32 1
  22   12   14 ar
  23   12   18 ar
  24   13   22 am
  25   13   23 2
  26   14   15 ar
  27   14   33 1
  28   15   16 ar
  29   15   25 1
  30   16   17 ar
  31   17   18 ar
  32   17   19 1
  33   18   34 1
  34   19   35 1
  35   19   36 1
  36   19   37 1
  37   20   28 1
  38   22   24 1
  39   22   38 1
  40   24   26 1
  41   24   39 1
  42   24   40 1
  43   25   41 1
  44   25   42 1
  45   25   43 1
  46   26   44 1
  47   26   45 1
  48   26   46 1

#	End of record

