#	Name: ASD03332080
#	Creating user name:	WinNT
#	Creation time:	15. 06. 2019 20:40

#	Modifying user name:	WinNT
#	Modification time:	15. 06. 2019 20:40

#	Program:	/corina/corina34_cracker 3.40 0067  02.08.2006

@<TRIPOS>MOLECULE
ASD03332080
  76   79    0    0    0
SMALL
NO_CHARGES


@<TRIPOS>ATOM
   1 C1            -0.0165     1.3542     0.0393 C.2     
   2 N2             0.0051    -0.0056     0.0510 N.pl3   
   3 C3             1.3182    -0.3801    -0.0659 C.2     
   4 N4             2.0652     0.6964    -0.1007 N.2     
   5 C5             1.2708     1.7865    -0.0304 C.2     
   6 C6             1.7183     3.1905    -0.0295 C.2     
   7 O7             0.9015     4.0891     0.0378 O.2     
   8 N8             3.0328     3.4789    -0.1033 N.am    
   9 C9             3.4777     4.8747    -0.1024 C.3     
  10 C10            3.4263     5.4273    -1.5282 C.3     
  11 C11            4.3450     4.5998    -2.4293 C.3     
  12 C12            4.8909     4.9512     0.4154 C.2     
  13 C13            1.9915     5.3497    -2.0538 C.3     
  14 C14            3.8909     6.8850    -1.5272 C.3     
  15 N15            5.3576     5.8121     1.2874 N.2     
  16 C16           -1.1232    -0.9321     0.1994 C.3     
  17 C17           -2.4071    -0.3153    -0.3563 C.3     
  18 C18           -3.0721     0.5631     0.7144 C.3     
  19 N19           -2.1687     1.6424     1.0799 N.am    
  20 C20           -1.2666     2.1921     0.0600 C.3     
  21 C21            1.8121    -1.7723    -0.1406 C.ar    
  22 C22           -2.1595     2.1309     2.3360 C.2     
  23 C23            1.3531    -2.7281     0.7657 C.ar    
  24 C24            1.8176    -4.0253     0.6909 C.ar    
  25 C25            2.7369    -4.3803    -0.2801 C.ar    
  26 C26            3.1977    -3.4391    -1.1825 C.ar    
  27 C27            2.7364    -2.1375    -1.1232 C.ar    
  28 O28           -1.3190     3.1304     2.6635 O.3     
  29 O29           -2.9099     1.6693     3.1729 O.2     
  30 C30           -1.3636     3.6067     4.0344 C.3     
  31 C31           -1.0251     2.4567     4.9851 C.3     
  32 C32           -0.3459     4.7347     4.2158 C.3     
  33 C33           -2.7667     4.1306     4.3469 C.3     
  34 C34            6.6568     5.5012     1.4435 C.2     
  35 N35            6.9092     4.4858     0.6728 N.2     
  36 O36            5.9066     4.1508     0.0779 O.3     
  37 C37            7.6394     6.2018     2.3460 C.3     
  38 C38            3.2388    -5.7993    -0.3545 C.3     
  39 F39            3.1863    -1.2183    -2.0052 F       
  40 H40            3.6843     2.7622    -0.1569 H       
  41 H41            2.8232     5.4642     0.5396 H       
  42 H42            4.0140     3.5612    -2.4299 H       
  43 H43            4.3084     4.9934    -3.4450 H       
  44 H44            5.3672     4.6551    -2.0548 H       
  45 H45            1.3370     5.9392    -1.4118 H       
  46 H46            1.9549     5.7433    -3.0696 H       
  47 H47            1.6605     4.3111    -2.0545 H       
  48 H48            4.9131     6.9403    -1.1528 H       
  49 H49            3.8543     7.2787    -2.5430 H       
  50 H50            3.2364     7.4746    -0.8853 H       
  51 H51           -0.9046    -1.8533    -0.3407 H       
  52 H52           -1.2631    -1.1609     1.2559 H       
  53 H53           -2.1680     0.2945    -1.2275 H       
  54 H54           -3.0929    -1.1101    -0.6497 H       
  55 H55           -3.9975     0.9815     0.3184 H       
  56 H56           -3.2927    -0.0406     1.5947 H       
  57 H57           -1.0145     3.2230     0.3089 H       
  58 H58           -1.7498     2.1563    -0.9164 H       
  59 H59            0.6358    -2.4533     1.5248 H       
  60 H60            1.4627    -4.7655     1.3927 H       
  61 H61            3.9156    -3.7227    -1.9379 H       
  62 H62           -0.0255     2.0835     4.7625 H       
  63 H63           -1.0586     2.8143     6.0143 H       
  64 H64           -1.7501     1.6531     4.8559 H       
  65 H65           -0.5871     5.5540     3.5385 H       
  66 H66           -0.3794     5.0922     5.2449 H       
  67 H67            0.6537     4.3615     3.9932 H       
  68 H68           -3.4917     3.3270     4.2177 H       
  69 H69           -2.8002     4.4881     5.3760 H       
  70 H70           -3.0079     4.9498     3.6696 H       
  71 H71            7.6309     5.7297     3.3284 H       
  72 H72            8.6394     6.1322     1.9180 H       
  73 H73            7.3585     7.2504     2.4444 H       
  74 H74            2.5919    -6.3796    -1.0124 H       
  75 H75            4.2556    -5.8050    -0.7474 H       
  76 H76            3.2321    -6.2399     0.6425 H       
@<TRIPOS>BOND
   1    1    2 1
   2    1    5 2
   3    1   20 1
   4    2    3 1
   5    2   16 1
   6    3    4 2
   7    3   21 1
   8    4    5 1
   9    5    6 1
  10    6    7 2
  11    6    8 am
  12    8    9 1
  13    8   40 1
  14    9   10 1
  15    9   12 1
  16    9   41 1
  17   10   11 1
  18   10   13 1
  19   10   14 1
  20   11   42 1
  21   11   43 1
  22   11   44 1
  23   12   15 2
  24   12   36 1
  25   13   45 1
  26   13   46 1
  27   13   47 1
  28   14   48 1
  29   14   49 1
  30   14   50 1
  31   15   34 1
  32   16   17 1
  33   16   51 1
  34   16   52 1
  35   17   18 1
  36   17   53 1
  37   17   54 1
  38   18   19 1
  39   18   55 1
  40   18   56 1
  41   19   20 1
  42   19   22 am
  43   20   57 1
  44   20   58 1
  45   21   23 ar
  46   21   27 ar
  47   22   28 1
  48   22   29 2
  49   23   24 ar
  50   23   59 1
  51   24   25 ar
  52   24   60 1
  53   25   26 ar
  54   25   38 1
  55   26   27 ar
  56   26   61 1
  57   27   39 1
  58   28   30 1
  59   30   31 1
  60   30   32 1
  61   30   33 1
  62   31   62 1
  63   31   63 1
  64   31   64 1
  65   32   65 1
  66   32   66 1
  67   32   67 1
  68   33   68 1
  69   33   69 1
  70   33   70 1
  71   34   35 2
  72   34   37 1
  73   35   36 1
  74   37   71 1
  75   37   72 1
  76   37   73 1
  77   38   74 1
  78   38   75 1
  79   38   76 1

#	End of record

