#	Name: ASD04882466
#	Creating user name:	WinNT
#	Creation time:	15. 06. 2019 20:54

#	Modifying user name:	WinNT
#	Modification time:	15. 06. 2019 20:54

#	Program:	/corina/corina34_cracker 3.40 0067  02.08.2006

@<TRIPOS>MOLECULE
ASD04882466
  82   87    0    0    0
SMALL
NO_CHARGES


@<TRIPOS>ATOM
   1 C1            -0.0215     1.4012    -0.0093 C.ar    
   2 C2            -0.0116     0.0036    -0.0052 C.ar    
   3 C3            -1.2094    -0.7019    -0.0164 C.ar    
   4 C4            -2.4097    -0.0268    -0.0315 C.ar    
   5 C5            -2.4267     1.3708    -0.0352 C.ar    
   6 C6            -1.2239     2.0825    -0.0187 C.ar    
   7 N7             1.1997    -0.6830     0.0096 N.3     
   8 C8             1.3070    -1.5362     1.2013 C.3     
   9 C9             1.3722    -1.4732    -1.2174 C.3     
  10 C10            2.7461    -2.1474    -1.1979 C.3     
  11 N11            2.8533    -3.0006    -0.0062 N.3     
  12 C12            2.6808    -2.2104     1.2208 C.3     
  13 C13           -3.7126     2.0938    -0.0514 C.2     
  14 O14           -3.7265     3.3096    -0.0546 O.2     
  15 N15           -4.8720     1.4066    -0.0627 N.am    
  16 N16            1.1866     2.1110     0.0021 N.am    
  17 C17            4.0683    -3.6893     0.0087 C.ar    
  18 C18            5.2665    -2.9870     0.0194 C.ar    
  19 C19            6.4662    -3.6713     0.0346 C.ar    
  20 C20            6.4753    -5.0539     0.0386 C.ar    
  21 C21            5.2840    -5.7564     0.0279 C.ar    
  22 C22            4.0810    -5.0786     0.0185 C.ar    
  23 C23            1.2296     3.3599     0.5068 C.2     
  24 C24            2.5162     4.0732     0.6000 C.2     
  25 O25            0.2069     3.8985     0.8853 O.2     
  26 C26            2.7107     5.3300     1.0850 C.2     
  27 O27            4.0247     5.5881     0.9873 O.3     
  28 C28            4.6245     4.5143     0.4543 C.2     
  29 N29            3.7337     3.5970     0.2228 N.2     
  30 C30            6.0997     4.3885     0.1735 C.3     
  31 C31            6.7234     5.3973    -0.7931 C.3     
  32 C32            7.0167     5.4917     0.7056 C.3     
  33 C33           -6.1489     2.1245    -0.0788 C.3     
  34 C34           -7.3003     1.1170    -0.0893 C.3     
  35 C35           -8.6339     1.8668    -0.1061 C.3     
  36 N36           -9.7394     0.8995    -0.1161 N.3     
  37 C37          -11.0323     1.5723     0.1067 C.3     
  38 C38           -9.8003     0.1778    -1.4050 C.3     
  39 C39          -11.3092    -0.0784    -1.6441 C.3     
  40 C40          -11.9400     1.2273    -1.0926 C.3     
  41 C41            2.7834    -5.8449     0.0074 C.3     
  42 O42          -13.2824     0.9966    -0.6604 O.3     
  43 H43           -1.1986    -1.7818    -0.0136 H       
  44 H44           -3.3385    -0.5777    -0.0409 H       
  45 H45           -1.2340     3.1625    -0.0211 H       
  46 H46            1.1884    -0.9264     2.0970 H       
  47 H47            0.5282    -2.2983     1.1742 H       
  48 H48            0.5942    -2.2346    -1.2720 H       
  49 H49            1.3013    -0.8174    -2.0852 H       
  50 H50            2.8646    -2.7572    -2.0936 H       
  51 H51            3.5249    -1.3853    -1.1708 H       
  52 H52            3.4588    -1.4490     1.2754 H       
  53 H53            2.7518    -2.8662     2.0886 H       
  54 H54           -4.8609     0.4366    -0.0602 H       
  55 H55            1.9919     1.7035    -0.3533 H       
  56 H56            5.2601    -1.9070     0.0156 H       
  57 H57            7.3983    -3.1257     0.0430 H       
  58 H58            7.4148    -5.5864     0.0497 H       
  59 H59            5.2946    -6.8363     0.0307 H       
  60 H60            1.9525     5.9933     1.4742 H       
  61 H61            6.4908     3.3711     0.1608 H       
  62 H62            7.5250     5.0436    -1.4415 H       
  63 H63            6.0666     6.1519    -1.2259 H       
  64 H64            6.5529     6.3084     1.2587 H       
  65 H65            8.0113     5.2002     1.0431 H       
  66 H66           -6.2238     2.7526     0.8088 H       
  67 H67           -6.2038     2.7482    -0.9710 H       
  68 H68           -7.2255     0.4888    -0.9769 H       
  69 H69           -7.2454     0.4932     0.8029 H       
  70 H70           -8.7088     2.4949     0.7815 H       
  71 H71           -8.6888     2.4905    -0.9983 H       
  72 H72          -11.4844     1.2103     1.0301 H       
  73 H73          -10.8844     2.6508     0.1617 H       
  74 H74           -9.3887     0.7937    -2.2046 H       
  75 H75           -9.2611    -0.7671    -1.3368 H       
  76 H76          -11.5218    -0.1963    -2.7066 H       
  77 H77          -11.6521    -0.9460    -1.0803 H       
  78 H78          -11.9058     2.0182    -1.8419 H       
  79 H79            2.4622    -6.0303     1.0323 H       
  80 H80            2.0222    -5.2630    -0.5123 H       
  81 H81            2.9273    -6.7956    -0.5059 H       
  82 H82          -13.8771     0.7025    -1.3640 H       
@<TRIPOS>BOND
   1    1    2 ar
   2    1   16 1
   3    1    6 ar
   4    2    3 ar
   5    2    7 1
   6    3    4 ar
   7    3   43 1
   8    4    5 ar
   9    4   44 1
  10    5    6 ar
  11    5   13 1
  12    6   45 1
  13    7    8 1
  14    7    9 1
  15    8   12 1
  16    8   46 1
  17    8   47 1
  18    9   10 1
  19    9   48 1
  20    9   49 1
  21   10   11 1
  22   10   50 1
  23   10   51 1
  24   11   12 1
  25   11   17 1
  26   12   52 1
  27   12   53 1
  28   13   14 2
  29   13   15 am
  30   15   33 1
  31   15   54 1
  32   16   23 am
  33   16   55 1
  34   17   18 ar
  35   17   22 ar
  36   18   19 ar
  37   18   56 1
  38   19   20 ar
  39   19   57 1
  40   20   21 ar
  41   20   58 1
  42   21   22 ar
  43   21   59 1
  44   22   41 1
  45   23   24 1
  46   23   25 2
  47   24   26 2
  48   24   29 1
  49   26   27 1
  50   26   60 1
  51   27   28 1
  52   28   29 2
  53   28   30 1
  54   30   31 1
  55   30   32 1
  56   30   61 1
  57   31   32 1
  58   31   62 1
  59   31   63 1
  60   32   64 1
  61   32   65 1
  62   33   34 1
  63   33   66 1
  64   33   67 1
  65   34   35 1
  66   34   68 1
  67   34   69 1
  68   35   36 1
  69   35   70 1
  70   35   71 1
  71   36   37 1
  72   36   38 1
  73   37   40 1
  74   37   72 1
  75   37   73 1
  76   38   39 1
  77   38   74 1
  78   38   75 1
  79   39   40 1
  80   39   76 1
  81   39   77 1
  82   40   42 1
  83   40   78 1
  84   41   79 1
  85   41   80 1
  86   41   81 1
  87   42   82 1

#	End of record

