#	Name: ASD01915809
#	Creating user name:	WinNT
#	Creation time:	15. 06. 2019 20:06

#	Modifying user name:	WinNT
#	Modification time:	15. 06. 2019 20:06

#	Program:	/corina/corina34_cracker 3.40 0067  02.08.2006

@<TRIPOS>MOLECULE
ASD01915809
  48   51    0    0    0
SMALL
NO_CHARGES


@<TRIPOS>ATOM
   1 C1            -0.0042     1.4683     0.2343 C.2     
   2 N2             0.0660     0.1188    -0.0301 N.pl3   
   3 C3            -1.1432    -0.6640    -0.3123 C.3     
   4 C4            -2.3281    -0.0486     0.4302 C.3     
   5 N5            -2.4044     1.3988     0.2638 N.am    
   6 C6            -1.2934     2.1741     0.2857 C.2     
   7 C7             1.2764     1.9056     0.4249 C.2     
   8 C8             2.0758     0.7646     0.2730 C.2     
   9 N9             1.2863    -0.2507     0.0107 N.2     
  10 C10            3.5773     0.7126     0.3901 C.3     
  11 O11            4.0778     2.0184     0.6838 O.3     
  12 C12            5.4213     2.1464     0.8222 C.ar    
  13 O13           -1.3588     3.3874     0.3446 O.2     
  14 C14            5.9665     3.3903     1.1078 C.ar    
  15 N15            6.1972     1.0829     0.6888 N.ar    
  16 C16            7.5134     1.1644     0.8166 C.ar    
  17 C17            8.1241     2.3808     1.0977 C.ar    
  18 C18            7.3398     3.5124     1.2480 C.ar    
  19 C19           -3.6541     2.0003     0.0771 C.ar    
  20 C20           -3.9668     2.5905    -1.1404 C.ar    
  21 C21           -4.5855     2.0028     1.1072 C.ar    
  22 C22           -5.8183     2.5965     0.9207 C.ar    
  23 C23           -6.1261     3.1891    -0.2924 C.ar    
  24 C24           -5.2009     3.1832    -1.3227 C.ar    
  25 N25            8.2912     0.0220     0.6686 N.pl3   
  26 C26            9.7339     0.0810     0.9159 C.3     
  27 C27            7.6681    -1.2411     0.2653 C.3     
  28 F28           -7.3328     3.7694    -0.4728 F       
  29 H29           -1.3408    -0.6545    -1.3842 H       
  30 H30           -0.9980    -1.6912     0.0223 H       
  31 H31           -3.2490    -0.4952     0.0554 H       
  32 H32           -2.2352    -0.2765     1.4920 H       
  33 H33            1.6017     2.9118     0.6443 H       
  34 H34            3.8557     0.0281     1.1914 H       
  35 H35            4.0032     0.3633    -0.5505 H       
  36 H36            5.3275     4.2539     1.2191 H       
  37 H37            9.1974     2.4422     1.2013 H       
  38 H38            7.7891     4.4700     1.4663 H       
  39 H39           -3.2454     2.5864    -1.9441 H       
  40 H40           -4.3459     1.5404     2.0534 H       
  41 H41           -6.5431     2.5984     1.7215 H       
  42 H42           -5.4429     3.6459    -2.2680 H       
  43 H43            9.9322    -0.1409     1.9645 H       
  44 H44           10.2405    -0.6515     0.2874 H       
  45 H45           10.1025     1.0792     0.6798 H       
  46 H46            6.5973    -1.0906     0.1283 H       
  47 H47            8.1100    -1.5814    -0.6712 H       
  48 H48            7.8336    -1.9911     1.0388 H       
@<TRIPOS>BOND
   1    1    2 1
   2    1    7 2
   3    1    6 1
   4    2    3 1
   5    2    9 1
   6    3    4 1
   7    3   29 1
   8    3   30 1
   9    4    5 1
  10    4   31 1
  11    4   32 1
  12    5    6 am
  13    5   19 1
  14    6   13 2
  15    7    8 1
  16    7   33 1
  17    8    9 2
  18    8   10 1
  19   10   11 1
  20   10   34 1
  21   10   35 1
  22   11   12 1
  23   12   14 ar
  24   12   15 ar
  25   14   18 ar
  26   14   36 1
  27   15   16 ar
  28   16   17 ar
  29   16   25 1
  30   17   18 ar
  31   17   37 1
  32   18   38 1
  33   19   21 ar
  34   19   20 ar
  35   20   24 ar
  36   20   39 1
  37   21   22 ar
  38   21   40 1
  39   22   23 ar
  40   22   41 1
  41   23   24 ar
  42   23   28 1
  43   24   42 1
  44   25   26 1
  45   25   27 1
  46   26   43 1
  47   26   44 1
  48   26   45 1
  49   27   46 1
  50   27   47 1
  51   27   48 1

#	End of record

