#	Name: ASD01814658
#	Creating user name:	WinNT
#	Creation time:	15. 06. 2019 19:32

#	Modifying user name:	WinNT
#	Modification time:	15. 06. 2019 19:32

#	Program:	/corina/corina34_cracker 3.40 0067  02.08.2006

@<TRIPOS>MOLECULE
ASD01814658
  52   56    0    0    0
SMALL
NO_CHARGES


@<TRIPOS>ATOM
   1 C1            -0.0446     1.3538    -0.5602 C.2     
   2 N2            -1.3566     1.7107    -0.7357 N.pl3   
   3 N3            -2.1218     0.5403    -0.7067 N.2     
   4 C4            -1.3200    -0.4891    -0.5221 C.2     
   5 C5            -0.0174    -0.0292    -0.4254 C.2     
   6 C6            -1.3146    -1.9912    -0.3783 C.3     
   7 N7             0.0755    -2.4165    -0.1879 N.am    
   8 C8             0.9018    -1.2054    -0.2187 C.3     
   9 C9            -1.6863     3.0264    -0.8971 C.2     
  10 C10           -0.7025     3.9596    -0.8803 C.2     
  11 C11            0.6288     3.5549    -0.6981 C.2     
  12 N12            0.9194     2.2839    -0.5498 N.2     
  13 C13            0.5115    -3.6807    -0.0199 C.2     
  14 C14           -0.4576    -4.7861     0.0898 C.ar    
  15 O15            1.7043    -3.9094     0.0411 O.2     
  16 C16           -0.3173    -5.7487     1.1001 C.ar    
  17 C17           -1.2336    -6.7835     1.1952 C.ar    
  18 C18           -2.2821    -6.8658     0.2957 C.ar    
  19 C19           -2.4234    -5.9145    -0.7052 C.ar    
  20 C20           -1.5239    -4.8769    -0.8088 C.ar    
  21 O21            0.7116    -5.6670     1.9804 O.3     
  22 C22            0.7903    -6.6829     2.9824 C.3     
  23 Cl23          -1.0867     5.6404    -1.0830 Cl      
  24 C24            1.7299     4.5837    -0.6783 C.3     
  25 C25           -3.1237     3.4353    -1.0916 C.3     
  26 C26            2.0058    -6.4255     3.8752 C.3     
  27 N27            2.0865    -7.4670     4.9024 N.pl3   
  28 C28            3.1506    -8.2600     5.1470 C.2     
  29 C29            2.8244    -9.0841     6.1696 C.2     
  30 C30            1.5162    -8.7843     6.5634 C.2     
  31 N31            1.0748    -7.8114     5.8081 N.2     
  32 F32           -3.1724    -7.8773     0.3921 F       
  33 H33           -1.9115    -2.2816     0.4862 H       
  34 H34           -1.7210    -2.4499    -1.2797 H       
  35 H35            1.6157    -1.2654    -1.0402 H       
  36 H36            1.4334    -1.0973     0.7268 H       
  37 H37           -1.1293    -7.5268     1.9717 H       
  38 H38           -3.2446    -5.9861    -1.4030 H       
  39 H39           -1.6399    -4.1366    -1.5866 H       
  40 H40           -0.1156    -6.6665     3.5883 H       
  41 H41            0.8902    -7.6575     2.5046 H       
  42 H42            1.8858     4.9294     0.3436 H       
  43 H43            2.6503     4.1381    -1.0556 H       
  44 H44            1.4498     5.4277    -1.3087 H       
  45 H45           -3.5802     3.6310    -0.1214 H       
  46 H46           -3.1653     4.3377    -1.7015 H       
  47 H47           -3.6651     2.6328    -1.5926 H       
  48 H48            2.9117    -6.4419     3.2693 H       
  49 H49            1.9058    -5.4510     4.3530 H       
  50 H50            4.0935    -8.2408     4.6207 H       
  51 H51            3.4616    -9.8397     6.6048 H       
  52 H52            0.9669    -9.2692     7.3568 H       
@<TRIPOS>BOND
   1    1    5 2
   2    1   12 1
   3    1    2 1
   4    2    3 1
   5    2    9 1
   6    3    4 2
   7    4    6 1
   8    4    5 1
   9    5    8 1
  10    6    7 1
  11    6   33 1
  12    6   34 1
  13    7    8 1
  14    7   13 am
  15    8   35 1
  16    8   36 1
  17    9   10 2
  18    9   25 1
  19   10   11 1
  20   10   23 1
  21   11   12 2
  22   11   24 1
  23   13   14 1
  24   13   15 2
  25   14   16 ar
  26   14   20 ar
  27   16   17 ar
  28   16   21 1
  29   17   18 ar
  30   17   37 1
  31   18   19 ar
  32   18   32 1
  33   19   20 ar
  34   19   38 1
  35   20   39 1
  36   21   22 1
  37   22   26 1
  38   22   40 1
  39   22   41 1
  40   24   42 1
  41   24   43 1
  42   24   44 1
  43   25   45 1
  44   25   46 1
  45   25   47 1
  46   26   27 1
  47   26   48 1
  48   26   49 1
  49   27   28 1
  50   27   31 1
  51   28   29 2
  52   28   50 1
  53   29   30 1
  54   29   51 1
  55   30   31 2
  56   30   52 1

#	End of record

