#	Name: ASD06888001
#	Creating user name:	WinNT
#	Creation time:	15. 06. 2019 21:08

#	Modifying user name:	WinNT
#	Modification time:	15. 06. 2019 21:08

#	Program:	/corina/corina34_cracker 3.40 0067  02.08.2006

@<TRIPOS>MOLECULE
ASD06888001
  56   59    0    0    0
SMALL
NO_CHARGES


@<TRIPOS>ATOM
   1 C1            -0.0224     1.7069     0.0709 C.2     
   2 C2            -0.0073     0.1946     0.0139 C.3     
   3 C3             0.8977    -0.2683     1.1592 C.3     
   4 C4             1.2667     2.4053     0.0827 C.2     
   5 C5             2.3450     1.7960     0.5769 C.2     
   6 C6             3.6712     2.5216     0.5668 C.3     
   7 C7             4.2377     2.4489     1.9870 C.3     
   8 C8             4.3233     0.9876     2.4357 C.3     
   9 C9             5.0617     0.9000     3.7754 C.3     
  10 C10            4.3325     1.6701     4.8873 C.3     
  11 C11            5.0198     1.1351     6.1510 C.3     
  12 C12            5.4996    -0.2787     5.8057 C.3     
  13 C13            6.9977    -0.3657     5.9443 C.2     
  14 C14            7.6413    -1.6610     6.3675 C.3     
  15 C15            5.0900    -0.5263     4.3498 C.3     
  16 C16            6.0797    -1.4293     3.6110 C.3     
  17 C17            3.6711    -1.0995     4.3872 C.3     
  18 C18            3.0415    -1.0684     2.9940 C.3     
  19 C19            2.9201     0.3840     2.5301 C.3     
  20 C20            2.2711     0.4023     1.1409 C.3     
  21 C21            3.1641    -0.4676     0.2539 C.3     
  22 O22           -1.0679     2.3218     0.1008 O.2     
  23 O23            7.6825     0.6025     5.7164 O.2     
  24 O24            9.0590    -1.4917     6.4260 O.3     
  25 O25            4.8710    -1.2339     6.6627 O.3     
  26 O26            1.7437    -1.6647     3.0425 O.3     
  27 H27            6.0746     1.2869     3.6632 H       
  28 H28            2.3144     0.9530     3.2354 H       
  29 H29            4.8946     0.4327     1.6914 H       
  30 H30           -1.0156    -0.1956     0.1520 H       
  31 H31            0.3967    -0.1402    -0.9415 H       
  32 H32            0.4088    -0.0414     2.1067 H       
  33 H33            1.0327    -1.3474     1.0859 H       
  34 H34            1.3426     3.4094    -0.3077 H       
  35 H35            4.3543     2.0367    -0.1306 H       
  36 H36            3.5227     3.5624     0.2793 H       
  37 H37            5.2337     2.8915     2.0028 H       
  38 H38            3.5855     2.9985     2.6657 H       
  39 H39            4.4892     2.7439     4.7841 H       
  40 H40            3.2688     1.4319     4.8924 H       
  41 H41            5.8693     1.7663     6.4119 H       
  42 H42            4.3100     1.0989     6.9774 H       
  43 H43            7.2687    -1.9476     7.3509 H       
  44 H44            7.3979    -2.4405     5.6454 H       
  45 H45            7.0667    -0.9669     3.6157 H       
  46 H46            6.1297    -2.3976     4.1092 H       
  47 H47            5.7478    -1.5669     2.5820 H       
  48 H48            3.7089    -2.1296     4.7415 H       
  49 H49            3.0621    -0.5070     5.0700 H       
  50 H50            3.6706    -1.6223     2.2972 H       
  51 H51            2.7409    -0.5183    -0.7493 H       
  52 H52            4.1623    -0.0325     0.2055 H       
  53 H53            3.2254    -1.4717     0.6736 H       
  54 H54            9.5395    -2.2875     6.6923 H       
  55 H55            5.0710    -1.1121     7.6009 H       
  56 H56            1.7452    -2.5868     3.3338 H       
@<TRIPOS>BOND
   1    1    2 1
   2    1    4 1
   3    1   22 2
   4    2    3 1
   5    2   30 1
   6    2   31 1
   7    3   20 1
   8    3   32 1
   9    3   33 1
  10    4    5 2
  11    4   34 1
  12    5    6 1
  13    5   20 1
  14    6    7 1
  15    6   35 1
  16    6   36 1
  17    7    8 1
  18    7   37 1
  19    7   38 1
  20    8    9 1
  21    8   29 1
  22    8   19 1
  23    9   10 1
  24    9   15 1
  25    9   27 1
  26   10   11 1
  27   10   39 1
  28   10   40 1
  29   11   12 1
  30   11   41 1
  31   11   42 1
  32   12   13 1
  33   12   15 1
  34   12   25 1
  35   13   14 1
  36   13   23 2
  37   14   24 1
  38   14   43 1
  39   14   44 1
  40   15   16 1
  41   15   17 1
  42   16   45 1
  43   16   46 1
  44   16   47 1
  45   17   18 1
  46   17   48 1
  47   17   49 1
  48   18   19 1
  49   18   26 1
  50   18   50 1
  51   19   28 1
  52   19   20 1
  53   20   21 1
  54   21   51 1
  55   21   52 1
  56   21   53 1
  57   24   54 1
  58   25   55 1
  59   26   56 1

#	End of record

