#	Name: ASD02038091
#	Creating user name:	WinNT
#	Creation time:	15. 06. 2019 20:16

#	Modifying user name:	WinNT
#	Modification time:	15. 06. 2019 20:16

#	Program:	/corina/corina34_cracker 3.40 0067  02.08.2006

@<TRIPOS>MOLECULE
ASD02038091
  55   57    0    0    0
SMALL
NO_CHARGES


@<TRIPOS>ATOM
   1 C1            -0.4541     1.2197     1.9523 C.ar    
   2 C2             0.5890     1.4522     2.8313 C.ar    
   3 C3            -0.3608     0.2031     1.0167 C.ar    
   4 C4             0.7754    -0.5823     0.9593 C.ar    
   5 C5             1.8231    -0.3504     1.8406 C.ar    
   6 C6             1.7265     0.6710     2.7774 C.ar    
   7 N7             2.9728    -1.1426     1.7850 N.3     
   8 C8             3.9489    -0.7264     2.8016 C.3     
   9 Cl9           -1.8852     2.1995     2.0274 Cl      
  10 Cl10          -1.6715    -0.0856    -0.0844 Cl      
  11 C11            5.1563    -1.6661     2.7608 C.3     
  12 N12            5.7528    -1.6350     1.4182 N.3     
  13 C13            4.7768    -2.0512     0.4015 C.3     
  14 C14            3.5694    -1.1115     0.4423 C.3     
  15 C15            6.9615    -2.4678     1.3597 C.3     
  16 C16            8.0452    -1.8572     2.2505 C.3     
  17 C17            9.2670    -2.7780     2.2714 C.3     
  18 O18            8.4212    -0.5786     1.7348 O.3     
  19 O19           10.2324    -2.2676     3.1930 O.3     
  20 C20           11.3864    -2.9736     3.3325 C.ar    
  21 C21           12.3661    -2.5340     4.2104 C.ar    
  22 C22           13.5381    -3.2506     4.3529 C.ar    
  23 C23           13.7355    -4.4115     3.6170 C.ar    
  24 C24           12.7542    -4.8509     2.7383 C.ar    
  25 C25           11.5806    -4.1359     2.6009 C.ar    
  26 N26           14.9229    -5.1380     3.7605 N.am    
  27 S27           16.0826    -5.0706     2.5802 S.o2    
  28 O28           17.1185    -5.9179     3.0580 O.2     
  29 O29           15.3814    -5.3747     1.3823 O.2     
  30 C30           16.6261    -3.3400     2.5779 C.3     
  31 H31            0.5136     2.2457     3.5600 H       
  32 H32            0.8479    -1.3756     0.2301 H       
  33 H33            2.5403     0.8534     3.4636 H       
  34 H34            4.2748     0.2934     2.5969 H       
  35 H35            3.4874    -0.7698     3.7882 H       
  36 H36            5.8944    -1.3419     3.4944 H       
  37 H37            4.8347    -2.6815     2.9924 H       
  38 H38            5.2382    -2.0078    -0.5850 H       
  39 H39            4.4509    -3.0710     0.6063 H       
  40 H40            2.8313    -1.4357    -0.2912 H       
  41 H41            3.8910    -0.0960     0.2108 H       
  42 H42            6.7273    -3.4732     1.7098 H       
  43 H43            7.3205    -2.5155     0.3316 H       
  44 H44            7.6602    -1.7414     3.2636 H       
  45 H45            8.9629    -3.7781     2.5804 H       
  46 H46            9.7049    -2.8232     1.2743 H       
  47 H47            8.7735    -0.6057     0.8346 H       
  48 H48           12.2126    -1.6309     4.7824 H       
  49 H49           14.3010    -2.9080     5.0363 H       
  50 H50           12.9069    -5.7536     2.1655 H       
  51 H51           10.8170    -4.4776     1.9178 H       
  52 H52           15.0668    -5.6810     4.5513 H       
  53 H53           17.1066    -3.1087     3.5285 H       
  54 H54           17.3348    -3.1828     1.7648 H       
  55 H55           15.7634    -2.6884     2.4389 H       
@<TRIPOS>BOND
   1    1    2 ar
   2    1    3 ar
   3    1    9 1
   4    2    6 ar
   5    2   31 1
   6    3    4 ar
   7    3   10 1
   8    4    5 ar
   9    4   32 1
  10    5    6 ar
  11    5    7 1
  12    6   33 1
  13    7    8 1
  14    7   14 1
  15    8   11 1
  16    8   34 1
  17    8   35 1
  18   11   12 1
  19   11   36 1
  20   11   37 1
  21   12   13 1
  22   12   15 1
  23   13   14 1
  24   13   38 1
  25   13   39 1
  26   14   40 1
  27   14   41 1
  28   15   16 1
  29   15   42 1
  30   15   43 1
  31   16   18 1
  32   16   17 1
  33   16   44 1
  34   17   19 1
  35   17   45 1
  36   17   46 1
  37   18   47 1
  38   19   20 1
  39   20   21 ar
  40   20   25 ar
  41   21   22 ar
  42   21   48 1
  43   22   23 ar
  44   22   49 1
  45   23   24 ar
  46   23   26 1
  47   24   25 ar
  48   24   50 1
  49   25   51 1
  50   26   27 am
  51   26   52 1
  52   27   28 2
  53   27   29 2
  54   27   30 1
  55   30   53 1
  56   30   54 1
  57   30   55 1

#	End of record

