#	Name: ASD01940677
#	Creating user name:	WinNT
#	Creation time:	15. 06. 2019 20:13

#	Modifying user name:	WinNT
#	Modification time:	15. 06. 2019 20:13

#	Program:	/corina/corina34_cracker 3.40 0067  02.08.2006

@<TRIPOS>MOLECULE
ASD01940677
  48   50    0    0    0
SMALL
NO_CHARGES


@<TRIPOS>ATOM
   1 C1             0.6153     0.4209    -1.4279 C.ar    
   2 C2            -0.0615    -0.1018    -0.3414 C.ar    
   3 C3             0.4735     0.0084     0.9307 C.ar    
   4 C4             1.6902     0.6438     1.1208 C.ar    
   5 C5             2.3744     1.1707     0.0334 C.ar    
   6 C6             1.8337     1.0580    -1.2464 C.ar    
   7 N7             2.5200     1.5874    -2.3474 N.am    
   8 S8             1.6812     2.0770    -3.6887 S.o2    
   9 C9             0.7541     3.5348    -3.1355 C.3     
  10 O10            2.6907     2.4506    -4.6164 O.2     
  11 O11            0.7975     0.9985    -3.9624 O.2     
  12 F12           -0.1920    -0.5041     1.9888 F       
  13 F13            2.2101     0.7511     2.3632 F       
  14 N14            3.6052     1.8145     0.2223 N.pl3   
  15 C15            4.7971     1.1094     0.0412 C.ar    
  16 C16            6.0127     1.7032     0.3588 C.ar    
  17 C17            4.7699    -0.1892    -0.4516 C.ar    
  18 C18            5.9505    -0.8836    -0.6290 C.ar    
  19 C19            7.1585    -0.2878    -0.3168 C.ar    
  20 C20            7.1890     1.0031     0.1789 C.ar    
  21 C21            6.0469     3.1098     0.8986 C.3     
  22 C22           -0.2266     4.1660    -4.1258 C.3     
  23 C23           -0.7531     3.3759    -2.9260 C.3     
  24 Cl24          -0.4103     5.9592    -4.0872 Cl      
  25 C25            8.4446    -1.0489    -0.5113 C.3     
  26 C26            8.9770    -0.7982    -1.9236 C.3     
  27 C27           10.2827    -1.5709    -2.1211 C.3     
  28 H28            0.1969     0.3291    -2.4194 H       
  29 H29           -1.0104    -0.5971    -0.4854 H       
  30 H30            3.4865     1.6670    -2.3240 H       
  31 H31            1.2886     4.2037    -2.4609 H       
  32 H32            3.6291     2.7496     0.4788 H       
  33 H33            3.8266    -0.6553    -0.6953 H       
  34 H34            5.9300    -1.8933    -1.0117 H       
  35 H35            8.1344     1.4654     0.4217 H       
  36 H36            5.9836     3.0832     1.9864 H       
  37 H37            6.9786     3.5908     0.6006 H       
  38 H38            5.2034     3.6729     0.4992 H       
  39 H39           -0.3148     3.7053    -5.1097 H       
  40 H40           -1.1877     2.3954    -3.1206 H       
  41 H41           -1.2106     3.9402    -2.1133 H       
  42 H42            9.1801    -0.7124     0.2194 H       
  43 H43            8.2600    -2.1147    -0.3766 H       
  44 H44            8.2416    -1.1348    -2.6543 H       
  45 H45            9.1617     0.2676    -2.0584 H       
  46 H46           10.6620    -1.3923    -3.1272 H       
  47 H47           11.0182    -1.2343    -1.3904 H       
  48 H48           10.0981    -2.6367    -1.9863 H       
@<TRIPOS>BOND
   1    1    2 ar
   2    1    6 ar
   3    1   28 1
   4    2    3 ar
   5    2   29 1
   6    3    4 ar
   7    3   12 1
   8    4    5 ar
   9    4   13 1
  10    5    6 ar
  11    5   14 1
  12    6    7 1
  13    7    8 am
  14    7   30 1
  15    8    9 1
  16    8   10 2
  17    8   11 2
  18    9   22 1
  19    9   23 1
  20    9   31 1
  21   14   15 1
  22   14   32 1
  23   15   16 ar
  24   15   17 ar
  25   16   21 1
  26   16   20 ar
  27   17   18 ar
  28   17   33 1
  29   18   19 ar
  30   18   34 1
  31   19   20 ar
  32   19   25 1
  33   20   35 1
  34   21   36 1
  35   21   37 1
  36   21   38 1
  37   22   23 1
  38   22   24 1
  39   22   39 1
  40   23   40 1
  41   23   41 1
  42   25   26 1
  43   25   42 1
  44   25   43 1
  45   26   27 1
  46   26   44 1
  47   26   45 1
  48   27   46 1
  49   27   47 1
  50   27   48 1

#	End of record

