#	Name: ASD06610071
#	Creating user name:	WinNT
#	Creation time:	15. 06. 2019 21:07

#	Modifying user name:	WinNT
#	Modification time:	15. 06. 2019 21:07

#	Program:	/corina/corina34_cracker 3.40 0067  02.08.2006

@<TRIPOS>MOLECULE
ASD06610071
 221  221    0    0    0
SMALL
NO_CHARGES


@<TRIPOS>ATOM
   1 C1             8.1325     0.7781     5.5429 C.2     
   2 O2             7.7173    -0.3601     5.5974 O.2     
   3 N3            10.1469    -0.0420     6.6265 N.3     
   4 C4             9.5792     1.0679     5.8496 C.3     
   5 C5            10.3565     1.2246     4.5411 C.3     
   6 C6            11.7959     1.6412     4.8497 C.3     
   7 C7            12.5732     1.7978     3.5412 C.3     
   8 N8            13.9515     2.1968     3.8367 N.pl3   
   9 C9            14.8436     2.3986     2.8107 C.2     
  10 N10           14.4989     2.1256     1.5854 N.2     
  11 N11           16.1060     2.8911     3.0798 N.am    
  12 C12            5.7106     0.7228     3.6909 C.2     
  13 O13            6.6862     0.2290     3.1662 O.2     
  14 N14            7.3013     1.7830     5.2026 N.am    
  15 C15            5.8753     1.6415     4.8741 C.3     
  16 C16            5.3439     3.0476     4.5247 C.3     
  17 C17            6.6313     3.8166     4.1266 C.3     
  18 C18            7.6700     3.2070     5.1043 C.3     
  19 C19            3.0256    -0.1268     1.3602 C.2     
  20 O20            2.2862     0.7263     1.8033 O.2     
  21 N21            4.4792     0.4498     3.2160 N.am    
  22 C22            4.3191    -0.4433     2.0658 C.3     
  23 C23            4.2954    -1.8955     2.5471 C.3     
  24 C24            5.6306    -2.2339     3.2130 C.3     
  25 C25            3.1608    -2.0796     3.5569 C.3     
  26 C26            0.9946    -1.7760    -1.1929 C.2     
  27 O27            1.7337    -2.7364    -1.2401 O.2     
  28 N28            2.6906    -0.7917     0.2368 N.am    
  29 C29            1.3853    -0.5634    -0.3879 C.3     
  30 C30            1.4670     0.6556    -1.3090 C.3     
  31 C31            0.1633    -2.7416    -4.0680 C.2     
  32 O32            0.8494    -1.7629    -4.2740 O.2     
  33 N33           -0.1762    -1.7932    -1.8603 N.am    
  34 C34           -0.5067    -2.9243    -2.7306 C.3     
  35 C35           -2.0228    -2.9925    -2.9248 C.3     
  36 C36           -2.6879    -3.2529    -1.5978 C.2     
  37 O37           -2.0134    -3.4717    -0.6139 O.2     
  38 N38           -4.0324    -3.2426    -1.5045 N.am    
  39 C39           -0.1179    -4.2414    -7.3899 C.2     
  40 O40           -1.1125    -4.8651    -7.0853 O.2     
  41 N41            0.0002    -3.6659    -5.0353 N.am    
  42 C42            0.6516    -3.4883    -6.3355 C.3     
  43 C43            2.0824    -4.0258    -6.2668 C.3     
  44 C44            0.4708    -5.2987   -10.8393 C.2     
  45 O45            1.6363    -4.9656   -10.8014 O.2     
  46 N46            0.2991    -4.2219    -8.6713 N.am    
  47 C47           -0.4489    -4.9541    -9.6963 C.3     
  48 C48           -1.5966    -4.0825   -10.2102 C.3     
  49 C49           -2.5961    -3.8360    -9.0784 C.3     
  50 C50           -3.7438    -2.9645    -9.5923 C.3     
  51 N51           -4.7009    -2.7284    -8.5085 N.pl3   
  52 C52           -5.8222    -1.9661    -8.7356 C.2     
  53 N53           -6.6737    -1.7561    -7.7713 N.2     
  54 N54           -6.0455    -1.4253    -9.9797 N.pl3   
  55 C55            0.1680    -6.4846   -14.2706 C.2     
  56 O56           -1.0448    -6.4916   -14.2777 O.2     
  57 N57           -0.0019    -5.9772   -11.9036 N.am    
  58 C58            0.9135    -6.4080   -12.9632 C.3     
  59 C59            1.4806    -7.7864   -12.6179 C.3     
  60 C60            2.5604    -8.1628   -13.6345 C.3     
  61 C61            3.7632    -7.2318   -13.4693 C.3     
  62 C62            2.9994    -9.6096   -13.4000 C.3     
  63 C63           -0.3422    -7.8722   -17.0782 C.2     
  64 O64           -0.1009    -8.8112   -16.3496 O.2     
  65 N65            0.8490    -6.5453   -15.4321 N.am    
  66 C66            0.1294    -6.4898   -16.7069 C.3     
  67 C67            1.0630    -5.9596   -17.7970 C.3     
  68 C68            1.4426    -4.5111   -17.4831 C.3     
  69 C69            2.3762    -3.9809   -18.5731 C.3     
  70 N70            2.7397    -2.5939   -18.2725 N.pl3   
  71 C71            3.5764    -1.9040   -19.1176 C.2     
  72 N72            4.0463    -2.4839   -20.1861 N.2     
  73 N73            3.9175    -0.6024   -18.8355 N.pl3   
  74 C74           -0.3846   -10.1417   -19.2952 C.2     
  75 O75            0.6776    -9.5975   -19.4836 O.2     
  76 N76           -1.0321    -8.0649   -18.2198 N.am    
  77 C77           -1.4906    -9.4087   -18.5807 C.3     
  78 C78           -2.7088    -9.3021   -19.5001 C.3     
  79 C79           -3.8527    -8.6131   -18.7533 C.3     
  80 C80           -5.0268    -8.3934   -19.7094 C.3     
  81 C81           -4.3034    -9.4938   -17.5862 C.3     
  82 O82           -0.5795   -11.3993   -19.7222 O.3     
  83 C83           16.4565     3.1911     4.3461 C.2     
  84 O84           15.6988     2.9436     5.2598 O.2     
  85 C85           28.3009    10.0368    17.1538 C.3     
  86 C86           26.9469     9.3838    16.8691 C.3     
  87 C87           26.7994     9.1508    15.3642 C.3     
  88 C88           25.4453     8.4977    15.0795 C.3     
  89 C89           25.2978     8.2647    13.5745 C.3     
  90 C90           23.9438     7.6117    13.2899 C.3     
  91 C91           23.7963     7.3786    11.7849 C.3     
  92 C92           22.4423     6.7256    11.5003 C.3     
  93 C93           22.2948     6.4926     9.9953 C.3     
  94 C94           20.9407     5.8395     9.7107 C.3     
  95 C95           20.7933     5.6065     8.2057 C.3     
  96 C96           19.4392     4.9535     7.9211 C.3     
  97 C97           19.2917     4.7204     6.4161 C.3     
  98 C98           17.9377     4.0674     6.1314 C.3     
  99 C99           17.7902     3.8344     4.6265 C.3     
 100 H100           9.6927    -0.1250     7.5236 H       
 101 H101          10.0925    -0.9084     6.1122 H       
 102 H102           9.6506     1.9896     6.4272 H       
 103 H103          10.3599     0.2757     4.0047 H       
 104 H104           9.8813     1.9883     3.9254 H       
 105 H105          11.7925     2.5901     5.3861 H       
 106 H106          12.2712     0.8775     5.4654 H       
 107 H107          12.5767     0.8490     3.0048 H       
 108 H108          12.0980     2.5615     2.9255 H       
 109 H109          14.2346     2.3185     4.7565 H       
 110 H110          15.1005     2.3356     0.8541 H       
 111 H111          16.7401     3.0210     2.3573 H       
 112 H112           5.3352     1.2412     5.7321 H       
 113 H113           4.6485     2.9998     3.6866 H       
 114 H114           4.8723     3.5083     5.3927 H       
 115 H115           6.9012     3.6163     3.0897 H       
 116 H116           6.5162     4.8868     4.2990 H       
 117 H117           7.6009     3.6851     6.0814 H       
 118 H118           8.6771     3.3111     4.7005 H       
 119 H119           3.6989     0.8447     3.6357 H       
 120 H120           5.1524    -0.3023     1.3775 H       
 121 H121           4.1355    -2.5577     1.6962 H       
 122 H122           5.7444    -1.6415     4.1209 H       
 123 H123           5.6522    -3.2940     3.4658 H       
 124 H124           6.4466    -2.0074     2.5267 H       
 125 H125           2.2095    -1.8385     3.0825 H       
 126 H126           3.1439    -3.1141     3.8998 H       
 127 H127           3.3206    -1.4173     4.4078 H       
 128 H128           3.3138    -1.4215    -0.1582 H       
 129 H129           0.6385    -0.3848     0.3857 H       
 130 H130           0.4958     0.8255    -1.7738 H       
 131 H131           1.7496     1.5326    -0.7268 H       
 132 H132           2.2138     0.4770    -2.0827 H       
 133 H133          -0.8000    -1.0566    -1.7644 H       
 134 H134          -0.1571    -3.8495    -2.2724 H       
 135 H135          -2.3800    -2.0461    -3.3308 H       
 136 H136          -2.2645    -3.7991    -3.6169 H       
 137 H137          -4.5719    -3.0676    -2.2914 H       
 138 H138          -4.4606    -3.4102    -0.6503 H       
 139 H139          -0.5485    -4.4486    -4.8706 H       
 140 H140           0.6734    -2.4284    -6.5892 H       
 141 H141           2.5670    -3.8937    -7.2341 H       
 142 H142           2.6389    -3.4811    -5.5042 H       
 143 H143           2.0605    -5.0857    -6.0131 H       
 144 H144           1.0946    -3.7231    -8.9150 H       
 145 H145          -0.8531    -5.8704    -9.2662 H       
 146 H146          -1.2005    -3.1289   -10.5593 H       
 147 H147          -2.0983    -4.5908   -11.0337 H       
 148 H148          -2.9922    -4.7896    -8.7293 H       
 149 H149          -2.0945    -3.3277    -8.2549 H       
 150 H150          -3.3477    -2.0108    -9.9413 H       
 151 H151          -4.2455    -3.4728   -10.4157 H       
 152 H152          -4.5434    -3.1100    -7.6307 H       
 153 H153          -7.4649    -1.2183    -7.9315 H       
 154 H154          -5.4118    -1.5816   -10.6973 H       
 155 H155          -6.8367    -0.8875   -10.1399 H       
 156 H156          -0.9482    -6.1802   -11.9680 H       
 157 H157           1.7298    -5.6910   -13.0518 H       
 158 H158           1.9155    -7.7605   -11.6188 H       
 159 H159           0.6806    -8.5261   -12.6469 H       
 160 H160           2.1599    -8.0636   -14.6434 H       
 161 H161           4.2069    -7.3826   -12.4852 H       
 162 H162           4.5024    -7.4532   -14.2391 H       
 163 H163           3.4370    -6.1962   -13.5659 H       
 164 H164           2.1425   -10.2729   -13.5177 H       
 165 H165           3.7686    -9.8778   -14.1242 H       
 166 H166           3.3998    -9.7089   -12.3911 H       
 167 H167           1.8156    -6.6258   -15.4239 H       
 168 H168          -0.7301    -5.8264   -16.6104 H       
 169 H169           1.9641    -6.5718   -17.8329 H       
 170 H170           0.5565    -6.0017   -18.7612 H       
 171 H171           0.5414    -3.8989   -17.4472 H       
 172 H172           1.9491    -4.4690   -16.5188 H       
 173 H173           3.2774    -4.5930   -18.6090 H       
 174 H174           1.8697    -4.0230   -19.5374 H       
 175 H175           2.3900    -2.1623   -17.4773 H       
 176 H176           4.6366    -1.9972   -20.7823 H       
 177 H177           3.5679    -0.1708   -18.0403 H       
 178 H178           4.5079    -0.1156   -19.4317 H       
 179 H179          -1.2251    -7.3138   -18.8025 H       
 180 H180          -1.7637    -9.9542   -17.6774 H       
 181 H181          -2.4478    -8.7187   -20.3830 H       
 182 H182          -3.0229   -10.3006   -19.8043 H       
 183 H183          -3.5101    -7.6513   -18.3715 H       
 184 H184          -5.4253    -9.3582   -20.0232 H       
 185 H185          -5.8069    -7.8256   -19.2024 H       
 186 H186          -4.6846    -7.8399   -20.5838 H       
 187 H187          -3.4669    -9.6504   -16.9050 H       
 188 H188          -5.1183    -9.0029   -17.0541 H       
 189 H189          -4.6460   -10.4556   -17.9679 H       
 190 H190           0.1591   -11.8285   -20.1753 H       
 191 H191          29.1002     9.3816    16.8075 H       
 192 H192          28.3611    10.9912    16.6307 H       
 193 H193          28.4060    10.2028    18.2259 H       
 194 H194          26.8866     8.4294    17.3922 H       
 195 H195          26.1475    10.0390    17.2154 H       
 196 H196          26.8596    10.1052    14.8411 H       
 197 H197          27.5987     8.4956    15.0179 H       
 198 H198          25.3851     7.5433    15.6026 H       
 199 H199          24.6460     9.1529    15.4258 H       
 200 H200          25.3581     9.2191    13.0515 H       
 201 H201          26.0972     7.6095    13.2283 H       
 202 H202          23.8836     6.6573    13.8129 H       
 203 H203          23.1445     8.2668    13.6362 H       
 204 H204          23.8565     8.3330    11.2619 H       
 205 H205          24.5956     6.7235    11.4387 H       
 206 H206          22.3821     5.7712    12.0233 H       
 207 H207          21.6429     7.3808    11.8465 H       
 208 H208          22.3550     7.4470     9.4723 H       
 209 H209          23.0941     5.8374     9.6491 H       
 210 H210          20.8805     4.8851    10.2337 H       
 211 H211          20.1414     6.4947    10.0569 H       
 212 H212          20.8535     6.5609     7.6827 H       
 213 H213          21.5926     4.9513     7.8594 H       
 214 H214          19.3790     3.9991     8.4441 H       
 215 H215          18.6399     5.6086     8.2673 H       
 216 H216          19.3519     5.6748     5.8930 H       
 217 H217          20.0911     4.0653     6.0698 H       
 218 H218          17.8775     3.1130     6.6545 H       
 219 H219          17.1384     4.7226     6.4777 H       
 220 H220          18.5895     3.1792     4.2802 H       
 221 H221          17.8504     4.7888     4.1034 H       
@<TRIPOS>BOND
   1    1    2 2
   2    1    4 1
   3    1   14 am
   4    3    4 1
   5    3  100 1
   6    3  101 1
   7    4    5 1
   8    4  102 1
   9    5    6 1
  10    5  103 1
  11    5  104 1
  12    6    7 1
  13    6  105 1
  14    6  106 1
  15    7    8 1
  16    7  107 1
  17    7  108 1
  18    8    9 1
  19    8  109 1
  20    9   10 2
  21    9   11 1
  22   10  110 1
  23   11   83 am
  24   11  111 1
  25   12   13 2
  26   12   21 am
  27   12   15 1
  28   14   15 1
  29   14   18 1
  30   15   16 1
  31   15  112 1
  32   16   17 1
  33   16  113 1
  34   16  114 1
  35   17   18 1
  36   17  115 1
  37   17  116 1
  38   18  117 1
  39   18  118 1
  40   19   20 2
  41   19   22 1
  42   19   28 am
  43   21   22 1
  44   21  119 1
  45   22   23 1
  46   22  120 1
  47   23   24 1
  48   23   25 1
  49   23  121 1
  50   24  122 1
  51   24  123 1
  52   24  124 1
  53   25  125 1
  54   25  126 1
  55   25  127 1
  56   26   27 2
  57   26   29 1
  58   26   33 am
  59   28   29 1
  60   28  128 1
  61   29   30 1
  62   29  129 1
  63   30  130 1
  64   30  131 1
  65   30  132 1
  66   31   32 2
  67   31   34 1
  68   31   41 am
  69   33   34 1
  70   33  133 1
  71   34   35 1
  72   34  134 1
  73   35   36 1
  74   35  135 1
  75   35  136 1
  76   36   37 2
  77   36   38 am
  78   38  137 1
  79   38  138 1
  80   39   40 2
  81   39   42 1
  82   39   46 am
  83   41   42 1
  84   41  139 1
  85   42   43 1
  86   42  140 1
  87   43  141 1
  88   43  142 1
  89   43  143 1
  90   44   45 2
  91   44   47 1
  92   44   57 am
  93   46   47 1
  94   46  144 1
  95   47   48 1
  96   47  145 1
  97   48   49 1
  98   48  146 1
  99   48  147 1
 100   49   50 1
 101   49  148 1
 102   49  149 1
 103   50   51 1
 104   50  150 1
 105   50  151 1
 106   51   52 1
 107   51  152 1
 108   52   53 2
 109   52   54 1
 110   53  153 1
 111   54  154 1
 112   54  155 1
 113   55   56 2
 114   55   58 1
 115   55   65 am
 116   57   58 1
 117   57  156 1
 118   58   59 1
 119   58  157 1
 120   59   60 1
 121   59  158 1
 122   59  159 1
 123   60   61 1
 124   60   62 1
 125   60  160 1
 126   61  161 1
 127   61  162 1
 128   61  163 1
 129   62  164 1
 130   62  165 1
 131   62  166 1
 132   63   64 2
 133   63   66 1
 134   63   76 am
 135   65   66 1
 136   65  167 1
 137   66   67 1
 138   66  168 1
 139   67   68 1
 140   67  169 1
 141   67  170 1
 142   68   69 1
 143   68  171 1
 144   68  172 1
 145   69   70 1
 146   69  173 1
 147   69  174 1
 148   70   71 1
 149   70  175 1
 150   71   72 2
 151   71   73 1
 152   72  176 1
 153   73  177 1
 154   73  178 1
 155   74   75 2
 156   74   77 1
 157   74   82 1
 158   76   77 1
 159   76  179 1
 160   77   78 1
 161   77  180 1
 162   78   79 1
 163   78  181 1
 164   78  182 1
 165   79   80 1
 166   79   81 1
 167   79  183 1
 168   80  184 1
 169   80  185 1
 170   80  186 1
 171   81  187 1
 172   81  188 1
 173   81  189 1
 174   82  190 1
 175   83   84 2
 176   83   99 1
 177   85   86 1
 178   85  191 1
 179   85  192 1
 180   85  193 1
 181   86   87 1
 182   86  194 1
 183   86  195 1
 184   87   88 1
 185   87  196 1
 186   87  197 1
 187   88   89 1
 188   88  198 1
 189   88  199 1
 190   89   90 1
 191   89  200 1
 192   89  201 1
 193   90   91 1
 194   90  202 1
 195   90  203 1
 196   91   92 1
 197   91  204 1
 198   91  205 1
 199   92   93 1
 200   92  206 1
 201   92  207 1
 202   93   94 1
 203   93  208 1
 204   93  209 1
 205   94   95 1
 206   94  210 1
 207   94  211 1
 208   95   96 1
 209   95  212 1
 210   95  213 1
 211   96   97 1
 212   96  214 1
 213   96  215 1
 214   97   98 1
 215   97  216 1
 216   97  217 1
 217   98   99 1
 218   98  218 1
 219   98  219 1
 220   99  220 1
 221   99  221 1

#	End of record

