#	Name: ASD03330933
#	Creating user name:	WinNT
#	Creation time:	15. 06. 2019 20:38

#	Modifying user name:	WinNT
#	Modification time:	15. 06. 2019 20:38

#	Program:	/corina/corina34_cracker 3.40 0067  02.08.2006

@<TRIPOS>MOLECULE
ASD03330933
  58   61    0    0    0
SMALL
NO_CHARGES


@<TRIPOS>ATOM
   1 C1            -0.0211     1.5053     0.0920 C.2     
   2 C2            -0.0044     0.0021     0.1962 C.3     
   3 N3             1.1027     2.2788     0.1370 N.pl3   
   4 N4             1.3790    -0.4541    -0.0303 N.3     
   5 C5             2.3283     0.2910     0.8084 C.3     
   6 C6             2.4530     1.7326     0.2986 C.3     
   7 C7             0.7121     3.5740     0.0098 C.2     
   8 N8            -0.5971     3.6061    -0.1057 N.2     
   9 C9            -1.0769     2.3414    -0.0629 C.2     
  10 C10           -2.4925     1.9448    -0.1636 C.2     
  11 O11           -2.8001     0.7694    -0.1087 O.2     
  12 N12           -3.4464     2.8846    -0.3166 N.am    
  13 C13            1.6088     4.7497     0.0026 C.ar    
  14 C14            1.3057     5.8676     0.7846 C.ar    
  15 C15            2.1472     6.9635     0.7740 C.ar    
  16 C16            3.2888     6.9555    -0.0100 C.ar    
  17 C17            3.5943     5.8478    -0.7884 C.ar    
  18 C18            2.7636     4.7447    -0.7806 C.ar    
  19 F19            4.7096     5.8465    -1.5510 F       
  20 F20            4.1077     8.0300    -0.0175 F       
  21 F21            0.1919     5.8769     1.5491 F       
  22 C22            1.4999    -1.9006     0.1954 C.3     
  23 C23           -4.8537     2.4903    -0.4167 C.3     
  24 C24           -5.1809     2.1316    -1.8676 C.3     
  25 C25           -4.9266     3.3459    -2.7630 C.3     
  26 O26           -6.7911     3.5511     0.8458 O.3     
  27 C27           -5.7287     3.6341     0.0276 C.2     
  28 N28           -5.5932     4.8848    -0.3107 N.2     
  29 N29           -6.5152     5.5822     0.2542 N.2     
  30 C30           -7.2702     4.8001     0.9721 C.2     
  31 C31           -8.4626     5.2191     1.7929 C.3     
  32 C32           -4.2927     0.9704    -2.3186 C.3     
  33 C33           -6.6508     1.7198    -1.9721 C.3     
  34 H34           -0.3349    -0.3022     1.1893 H       
  35 H35           -0.6624    -0.4271    -0.5595 H       
  36 H36            1.9716     0.3006     1.8383 H       
  37 H37            3.3041    -0.1931     0.7686 H       
  38 H38            2.9700     1.7398    -0.6610 H       
  39 H39            3.0080     2.3314     1.0207 H       
  40 H40           -3.2010     3.8221    -0.3604 H       
  41 H41            1.9140     7.8280     1.3779 H       
  42 H42            3.0047     3.8815    -1.3832 H       
  43 H43            0.8400    -2.4318    -0.4905 H       
  44 H44            2.5303    -2.2106     0.0215 H       
  45 H45            1.2191    -2.1328     1.2227 H       
  46 H46           -5.0350     1.6252     0.2212 H       
  47 H47           -3.8794     3.6393    -2.6885 H       
  48 H48           -5.1597     3.0904    -3.7966 H       
  49 H49           -5.5594     4.1732    -2.4417 H       
  50 H50           -8.1380     5.4729     2.8020 H       
  51 H51           -8.9328     6.0884     1.3331 H       
  52 H52           -9.1794     4.3992     1.8372 H       
  53 H53           -4.4739     0.1053    -1.6807 H       
  54 H54           -4.5258     0.7148    -3.3523 H       
  55 H55           -3.2455     1.2638    -2.2441 H       
  56 H56           -7.2836     2.5471    -1.6508 H       
  57 H57           -6.8839     1.4643    -3.0058 H       
  58 H58           -6.8320     0.8547    -1.3343 H       
@<TRIPOS>BOND
   1    1    2 1
   2    1    3 1
   3    1    9 2
   4    2    4 1
   5    2   34 1
   6    2   35 1
   7    3    6 1
   8    3    7 1
   9    4    5 1
  10    4   22 1
  11    5    6 1
  12    5   36 1
  13    5   37 1
  14    6   38 1
  15    6   39 1
  16    7    8 2
  17    7   13 1
  18    8    9 1
  19    9   10 1
  20   10   11 2
  21   10   12 am
  22   12   23 1
  23   12   40 1
  24   13   14 ar
  25   13   18 ar
  26   14   15 ar
  27   14   21 1
  28   15   16 ar
  29   15   41 1
  30   16   17 ar
  31   16   20 1
  32   17   18 ar
  33   17   19 1
  34   18   42 1
  35   22   43 1
  36   22   44 1
  37   22   45 1
  38   23   24 1
  39   23   27 1
  40   23   46 1
  41   24   25 1
  42   24   32 1
  43   24   33 1
  44   25   47 1
  45   25   48 1
  46   25   49 1
  47   26   27 1
  48   26   30 1
  49   27   28 2
  50   28   29 1
  51   29   30 2
  52   30   31 1
  53   31   50 1
  54   31   51 1
  55   31   52 1
  56   32   53 1
  57   32   54 1
  58   32   55 1
  59   33   56 1
  60   33   57 1
  61   33   58 1

#	End of record

