#	Name: ASD09720040
#	Creating user name:	WinNT
#	Creation time:	15. 06. 2019 21:22

#	Modifying user name:	WinNT
#	Modification time:	15. 06. 2019 21:22

#	Program:	/corina/corina34_cracker 3.40 0067  02.08.2006

@<TRIPOS>MOLECULE
ASD09720040
  36   38    0    0    0
SMALL
NO_CHARGES


@<TRIPOS>ATOM
   1 C1            -0.2511     0.3312     0.8694 C.2     
   2 S2             0.1834     1.1168    -0.6387 S.3     
   3 C3            -1.4300     1.5667    -0.9541 C.2     
   4 C4            -2.2543     1.1398     0.0386 C.2     
   5 C5            -1.5601     0.4231     1.0830 C.2     
   6 Cl6            0.8709    -0.4619     1.9305 Cl      
   7 Cl7           -1.9502     2.4514    -2.3542 Cl      
   8 C8            -3.7074     1.3798     0.0464 C.2     
   9 N9            -4.5290     0.3828    -0.0486 N.2     
  10 C10           -4.2383     2.7851     0.1650 C.3     
  11 O11           -4.0331    -0.9244    -0.2734 O.3     
  12 S12           -6.0519     2.7500     0.1455 S.3     
  13 C13           -6.4829     4.4522     0.2911 C.ar    
  14 C14           -5.4989     5.4347     0.3863 C.ar    
  15 C15           -5.8769     6.7564     0.4990 C.ar    
  16 N16           -7.1510     7.1026     0.5183 N.ar    
  17 C17           -8.1196     6.2121     0.4313 C.ar    
  18 C18           -7.8293     4.8579     0.3086 C.ar    
  19 C19           -8.9201     3.8581     0.2104 C.ar    
  20 C20           -9.9650     3.8698     1.1328 C.ar    
  21 C21          -10.9774     2.9369     1.0366 C.ar    
  22 C22          -10.9563     1.9911     0.0274 C.ar    
  23 C23           -9.9219     1.9747    -0.8909 C.ar    
  24 C24           -8.9073     2.9066    -0.8081 C.ar    
  25 H25           -2.0525     0.0106     1.9512 H       
  26 H26           -3.8936     3.2260     1.1003 H       
  27 H27           -3.8774     3.3818    -0.6727 H       
  28 H28           -4.7210    -1.6017    -0.3297 H       
  29 H29           -4.4533     5.1645     0.3724 H       
  30 H30           -5.1179     7.5211     0.5731 H       
  31 H31           -9.1490     6.5383     0.4510 H       
  32 H32           -9.9821     4.6074     1.9216 H       
  33 H33          -11.7875     2.9451     1.7508 H       
  34 H34          -11.7503     1.2625    -0.0437 H       
  35 H35           -9.9105     1.2339    -1.6768 H       
  36 H36           -8.1027     2.8959    -1.5284 H       
@<TRIPOS>BOND
   1    1    2 1
   2    1    6 1
   3    1    5 2
   4    2    3 1
   5    3    4 2
   6    3    7 1
   7    4    5 1
   8    4    8 1
   9    5   25 1
  10    8    9 2
  11    8   10 1
  12    9   11 1
  13   10   12 1
  14   10   26 1
  15   10   27 1
  16   11   28 1
  17   12   13 1
  18   13   14 ar
  19   13   18 ar
  20   14   15 ar
  21   14   29 1
  22   15   16 ar
  23   15   30 1
  24   16   17 ar
  25   17   18 ar
  26   17   31 1
  27   18   19 1
  28   19   20 ar
  29   19   24 ar
  30   20   21 ar
  31   20   32 1
  32   21   22 ar
  33   21   33 1
  34   22   23 ar
  35   22   34 1
  36   23   24 ar
  37   23   35 1
  38   24   36 1

#	End of record

