#	Name: ASD03331066
#	Creating user name:	WinNT
#	Creation time:	15. 06. 2019 20:38

#	Modifying user name:	WinNT
#	Modification time:	15. 06. 2019 20:38

#	Program:	/corina/corina34_cracker 3.40 0067  02.08.2006

@<TRIPOS>MOLECULE
ASD03331066
  64   67    0    0    0
SMALL
NO_CHARGES


@<TRIPOS>ATOM
   1 N1            -0.8738     1.7435    -0.4489 N.pl3   
   2 C2            -0.6927     0.4227    -0.1803 C.2     
   3 C3             0.6230    -0.2341     0.1462 C.3     
   4 N4             1.3239     0.5684     1.1608 N.3     
   5 C5             2.1596     1.5971     0.5387 C.3     
   6 C6             1.5208     2.1159    -0.7464 C.3     
   7 C7             0.1730     2.7691    -0.4285 C.3     
   8 C8            -2.1977     1.9268    -0.7241 C.2     
   9 N9            -2.8124     0.7723    -0.6128 N.2     
  10 C10           -1.9115    -0.1767    -0.2752 C.2     
  11 C11           -2.1970    -1.6047    -0.0508 C.2     
  12 O12           -1.2965    -2.3650     0.2498 O.2     
  13 N13           -3.4560    -2.0685    -0.1786 N.am    
  14 C14           -2.8338     3.2114    -1.0868 C.ar    
  15 C15           -3.7092     3.2782    -2.1741 C.ar    
  16 C16           -4.3012     4.4811    -2.5083 C.ar    
  17 C17           -4.0279     5.6193    -1.7681 C.ar    
  18 C18           -3.1588     5.5586    -0.6876 C.ar    
  19 C19           -2.5666     4.3601    -0.3411 C.ar    
  20 F20           -2.8959     6.6728     0.0297 F       
  21 F21           -4.6089     6.7932    -2.0993 F       
  22 F22           -3.9759     2.1687    -2.8974 F       
  23 C23            2.1185    -0.2873     2.0521 C.3     
  24 C24           -4.9820    -3.8776    -0.7147 C.2     
  25 C25           -3.7398    -3.4883     0.0445 C.3     
  26 C26           -3.9565    -3.7364     1.5386 C.3     
  27 C27           -4.3866    -5.1883     1.7573 C.3     
  28 O28           -5.8605    -3.0620    -0.8991 O.2     
  29 C29           -2.6526    -3.4714     2.2940 C.3     
  30 C30           -5.0470    -2.7976     2.0586 C.3     
  31 N31           -5.1166    -5.1320    -1.1888 N.am    
  32 C32           -6.1694    -5.8983    -1.8724 C.3     
  33 C33           -5.5639    -7.1703    -1.2628 C.3     
  34 C34           -4.2732    -6.3348    -1.2561 C.3     
  35 F35           -6.0542    -7.4865     0.0088 F       
  36 H36            0.4434    -1.2365     0.5349 H       
  37 H37            1.2331    -0.2956    -0.7550 H       
  38 H38            2.2858     2.4257     1.2356 H       
  39 H39            3.1366     1.1731     0.3071 H       
  40 H40            2.1801     2.8513    -1.2076 H       
  41 H41            1.3674     1.2855    -1.4357 H       
  42 H42           -0.0483     3.5307    -1.1762 H       
  43 H43            0.2145     3.2279     0.5594 H       
  44 H44           -4.1741    -1.4621    -0.4183 H       
  45 H45           -4.9779     4.5340    -3.3483 H       
  46 H46           -1.8940     4.3131     0.5025 H       
  47 H47            2.8103    -0.8860     1.4595 H       
  48 H48            2.6809     0.3357     2.7476 H       
  49 H49            1.4539    -0.9465     2.6106 H       
  50 H50           -2.8981    -4.0863    -0.3048 H       
  51 H51           -3.5976    -5.8568     1.4128 H       
  52 H52           -4.5685    -5.3574     2.8187 H       
  53 H53           -5.3002    -5.3851     1.1963 H       
  54 H54           -2.3462    -2.4371     2.1382 H       
  55 H55           -2.8070    -3.6482     3.3584 H       
  56 H56           -1.8758    -4.1403     1.9235 H       
  57 H57           -5.9759    -2.9863     1.5204 H       
  58 H58           -5.2014    -2.9744     3.1230 H       
  59 H59           -4.7406    -1.7632     1.9028 H       
  60 H60           -7.1728    -5.6777    -1.5084 H       
  61 H61           -6.0971    -5.8611    -2.9594 H       
  62 H62           -5.5385    -8.0228    -1.9415 H       
  63 H63           -3.7010    -6.4126    -2.1805 H       
  64 H64           -3.6611    -6.4860    -0.3669 H       
@<TRIPOS>BOND
   1    1    2 1
   2    1    7 1
   3    1    8 1
   4    2    3 1
   5    2   10 2
   6    3    4 1
   7    3   36 1
   8    3   37 1
   9    4    5 1
  10    4   23 1
  11    5    6 1
  12    5   38 1
  13    5   39 1
  14    6    7 1
  15    6   40 1
  16    6   41 1
  17    7   42 1
  18    7   43 1
  19    8    9 2
  20    8   14 1
  21    9   10 1
  22   10   11 1
  23   11   12 2
  24   11   13 am
  25   13   25 1
  26   13   44 1
  27   14   15 ar
  28   14   19 ar
  29   15   16 ar
  30   15   22 1
  31   16   17 ar
  32   16   45 1
  33   17   18 ar
  34   17   21 1
  35   18   19 ar
  36   18   20 1
  37   19   46 1
  38   23   47 1
  39   23   48 1
  40   23   49 1
  41   24   28 2
  42   24   31 am
  43   24   25 1
  44   25   26 1
  45   25   50 1
  46   26   27 1
  47   26   29 1
  48   26   30 1
  49   27   51 1
  50   27   52 1
  51   27   53 1
  52   29   54 1
  53   29   55 1
  54   29   56 1
  55   30   57 1
  56   30   58 1
  57   30   59 1
  58   31   32 1
  59   31   34 1
  60   32   33 1
  61   32   60 1
  62   32   61 1
  63   33   34 1
  64   33   35 1
  65   33   62 1
  66   34   63 1
  67   34   64 1

#	End of record

