#	Name: ASD03730313
#	Creating user name:	WinNT
#	Creation time:	15. 06. 2019 20:44

#	Modifying user name:	WinNT
#	Modification time:	15. 06. 2019 20:44

#	Program:	/corina/corina34_cracker 3.40 0067  02.08.2006

@<TRIPOS>MOLECULE
ASD03730313
  43   48    0    0    0
SMALL
NO_CHARGES


@<TRIPOS>ATOM
   1 N1            -0.3662     1.3032     0.8780 N.3     
   2 C2            -0.3208    -0.1773     0.9213 C.3     
   3 O3             0.8255    -0.4997     0.1133 O.3     
   4 C4             1.6711     0.5691     0.1906 C.ar    
   5 C5             0.9701     1.6842     0.6477 C.ar    
   6 C6             3.0208     0.6787    -0.0983 C.ar    
   7 C7             3.6810     1.8938     0.0567 C.ar    
   8 C8             2.9646     3.0028     0.4962 C.ar    
   9 C9             1.6220     2.8975     0.7948 C.ar    
  10 O10            4.9938     2.2038    -0.1476 O.3     
  11 C11            3.9315     4.1558     0.5244 C.3     
  12 C12            5.1296     3.6317    -0.2793 C.3     
  13 N13            3.4159     6.3574     0.8563 N.am    
  14 C14            3.3519     5.3986    -0.0888 C.2     
  15 C15            4.3191     4.5452     1.9196 C.ar    
  16 C16            4.8952     3.8620     2.9815 C.ar    
  17 C17            5.1355     4.5253     4.1843 C.ar    
  18 C18            4.7982     5.8585     4.3100 C.ar    
  19 C19            4.2245     6.5371     3.2542 C.ar    
  20 C20            3.9783     5.8873     2.0460 C.ar    
  21 O21            2.9132     5.5163    -1.2134 O.2     
  22 C22           -0.8587     1.8521     2.1485 C.3     
  23 O23            6.1551     0.5606     2.1358 O.3     
  24 C24            6.1068     1.8849     1.9316 C.2     
  25 C25            5.2540     2.4289     2.8375 C.2     
  26 C26            4.7610     1.3075     3.6448 C.2     
  27 C27            5.3566     0.2074     3.1544 C.2     
  28 H28           -0.1806    -0.5276     1.9439 H       
  29 H29           -1.2269    -0.6022     0.4895 H       
  30 H30            3.5658    -0.1862    -0.4466 H       
  31 H31            1.0782     3.7626     1.1443 H       
  32 H32            6.0680     3.9731     0.1578 H       
  33 H33            5.0561     3.9326    -1.3243 H       
  34 H34            3.1076     7.2678     0.7258 H       
  35 H35            5.5833     3.9986     5.0140 H       
  36 H36            4.9843     6.3733     5.2410 H       
  37 H37            3.9648     7.5796     3.3648 H       
  38 H38           -0.1969     1.5444     2.9581 H       
  39 H39           -0.8798     2.9403     2.0902 H       
  40 H40           -1.8647     1.4789     2.3399 H       
  41 H41            6.6537     2.4272     1.1745 H       
  42 H42            4.0619     1.3564     4.4665 H       
  43 H43            5.2149    -0.7987     3.5206 H       
@<TRIPOS>BOND
   1    1    2 1
   2    1    5 1
   3    1   22 1
   4    2    3 1
   5    2   28 1
   6    2   29 1
   7    3    4 1
   8    4    5 ar
   9    4    6 ar
  10    5    9 ar
  11    6    7 ar
  12    6   30 1
  13    7    8 ar
  14    7   10 1
  15    8    9 ar
  16    8   11 1
  17    9   31 1
  18   10   12 1
  19   11   12 1
  20   11   14 1
  21   11   15 1
  22   12   32 1
  23   12   33 1
  24   13   14 am
  25   13   20 1
  26   13   34 1
  27   14   21 2
  28   15   16 ar
  29   15   20 ar
  30   16   17 ar
  31   16   25 1
  32   17   18 ar
  33   17   35 1
  34   18   19 ar
  35   18   36 1
  36   19   20 ar
  37   19   37 1
  38   22   38 1
  39   22   39 1
  40   22   40 1
  41   23   24 1
  42   23   27 1
  43   24   25 2
  44   24   41 1
  45   25   26 1
  46   26   27 2
  47   26   42 1
  48   27   43 1

#	End of record

