#	Name: ASD00844957
#	Creating user name:	WinNT
#	Creation time:	15. 06. 2019 18:51

#	Modifying user name:	WinNT
#	Modification time:	15. 06. 2019 18:51

#	Program:	/corina/corina34_cracker 3.40 0067  02.08.2006

@<TRIPOS>MOLECULE
ASD00844957
  81   86    0    0    0
SMALL
NO_CHARGES


@<TRIPOS>ATOM
   1 F1             5.6882    -2.1815    -1.9698 F       
   2 C2             0.7277     1.2401    -0.3889 C.ar    
   3 C3             0.9743    -0.0984    -0.6563 C.ar    
   4 C4             0.8532    -1.0395     0.3560 C.ar    
   5 C5             0.4876    -0.6415     1.6272 C.ar    
   6 C6             0.2419     0.6935     1.8911 C.ar    
   7 C7             0.3623     1.6331     0.8843 C.ar    
   8 C8             1.1199    -2.4947     0.0689 C.3     
   9 C9             0.7947    -3.3425     1.2801 C.2     
  10 C10            0.3088    -2.9578    -1.1430 C.3     
  11 C11           -1.1518    -2.6688    -0.9100 C.2     
  12 N12           -2.0723    -3.0900    -1.7999 N.am    
  13 O13           -1.4989    -2.0574     0.0781 O.2     
  14 C14           -3.4887    -2.7220    -1.6522 C.3     
  15 C15           -3.9812    -2.1390    -2.9810 C.3     
  16 N16           -3.6960    -3.0889    -4.0646 N.3     
  17 C17           -2.2506    -3.2991    -4.2222 C.3     
  18 C18           -1.6862    -3.9246    -2.9477 C.3     
  19 C19           -4.3043    -2.6464    -5.3263 C.3     
  20 C20           -3.8838    -3.5906    -6.4560 C.3     
  21 C21           -4.5688    -3.1607    -7.7552 C.3     
  22 N22           -6.0260    -3.1992    -7.5777 N.3     
  23 C23           -6.4582    -2.2653    -6.5302 C.3     
  24 C24           -5.8296    -2.6685    -5.1944 C.3     
  25 H25           -6.5013    -3.0118    -8.4478 H       
  26 O26           -0.2900    -3.4539     1.8112 O.2     
  27 N27            1.9333    -3.9488     1.6560 N.am    
  28 C28            2.5959    -2.7278    -0.1579 C.ar    
  29 C29            3.0092    -3.6095     0.8330 C.ar    
  30 C30            3.4856    -2.2495    -1.0936 C.ar    
  31 C31            4.8120    -2.6480    -1.0533 C.ar    
  32 C32            5.2367    -3.5277    -0.0691 C.ar    
  33 C33            4.3436    -4.0073     0.8697 C.ar    
  34 F34            6.5296    -3.9174    -0.0280 F       
  35 C35            1.7242    -6.6045     2.3475 C.ar    
  36 C36            2.7639    -7.3918     1.8892 C.ar    
  37 C37            0.4315    -7.0941     2.3406 C.ar    
  38 C38            0.1784    -8.3710     1.8755 C.ar    
  39 C39            1.2181    -9.1582     1.4169 C.ar    
  40 C40            2.5108    -8.6686     1.4237 C.ar    
  41 H41            1.0204   -10.1558     1.0535 H       
  42 H42            3.7739    -7.0093     1.8946 H       
  43 O43            1.3334    -0.4875    -1.9079 O.3     
  44 C44            1.3603     0.5224    -2.9186 C.3     
  45 C45            1.8684    -0.0813    -4.2294 C.3     
  46 F46            3.1219    -0.6658    -4.0187 F       
  47 F47            0.9683    -1.0558    -4.6739 F       
  48 S48            2.0477    -4.9795     2.9471 S.o2    
  49 O49            3.4095    -4.9652     3.3526 O.2     
  50 O50            0.9739    -4.6521     3.8183 O.2     
  51 H51            0.8256     1.9751    -1.1742 H       
  52 H52            0.3932    -1.3737     2.4155 H       
  53 H53           -0.0445     1.0026     2.8855 H       
  54 H54            0.1699     2.6752     1.0929 H       
  55 H55            0.6473    -2.4253    -2.0318 H       
  56 H56            0.4489    -4.0293    -1.2860 H       
  57 H57           -4.0729    -3.6076    -1.4020 H       
  58 H58           -3.5930    -1.9763    -0.8641 H       
  59 H59           -5.0555    -1.9630    -2.9250 H       
  60 H60           -3.4678    -1.1978    -3.1778 H       
  61 H61           -2.0698    -3.9644    -5.0665 H       
  62 H62           -1.7613    -2.3417    -4.4017 H       
  63 H63           -0.5996    -3.9766    -3.0156 H       
  64 H64           -2.0962    -4.9263    -2.8188 H       
  65 H65           -3.9722    -1.6338    -5.5554 H       
  66 H66           -2.8022    -3.5470    -6.5832 H       
  67 H67           -4.1808    -4.6097    -6.2080 H       
  68 H68           -4.2607    -2.1467    -8.0099 H       
  69 H69           -4.2827    -3.8396    -8.5585 H       
  70 H70           -6.1412    -1.2554    -6.7906 H       
  71 H71           -7.5444    -2.2938    -6.4438 H       
  72 H72           -6.1572    -3.6730    -4.9265 H       
  73 H73           -6.1382    -1.9659    -4.4202 H       
  74 H74            3.1498    -1.5648    -1.8584 H       
  75 H75            4.6810    -4.6919     1.6338 H       
  76 H76           -0.3808    -6.4790     2.6989 H       
  77 H77           -0.8315    -8.7537     1.8708 H       
  78 H78            3.3231    -9.2837     1.0657 H       
  79 H79            0.3545     0.9160    -3.0657 H       
  80 H80            2.0245     1.3291    -2.6086 H       
  81 H81            1.9551     0.7031    -4.9812 H       
@<TRIPOS>BOND
   1    1   31 1
   2    2    3 ar
   3    2    7 ar
   4    2   51 1
   5    3    4 ar
   6    3   43 1
   7    4    5 ar
   8    4    8 1
   9    5    6 ar
  10    5   52 1
  11    6    7 ar
  12    6   53 1
  13    7   54 1
  14    8    9 1
  15    8   10 1
  16    8   28 1
  17    9   26 2
  18    9   27 am
  19   10   11 1
  20   10   55 1
  21   10   56 1
  22   11   12 am
  23   11   13 2
  24   12   14 1
  25   12   18 1
  26   14   15 1
  27   14   57 1
  28   14   58 1
  29   15   16 1
  30   15   59 1
  31   15   60 1
  32   16   17 1
  33   16   19 1
  34   17   18 1
  35   17   61 1
  36   17   62 1
  37   18   63 1
  38   18   64 1
  39   19   20 1
  40   19   24 1
  41   19   65 1
  42   20   21 1
  43   20   66 1
  44   20   67 1
  45   21   22 1
  46   21   68 1
  47   21   69 1
  48   22   23 1
  49   22   25 1
  50   23   24 1
  51   23   70 1
  52   23   71 1
  53   24   72 1
  54   24   73 1
  55   27   48 am
  56   27   29 1
  57   28   29 ar
  58   28   30 ar
  59   29   33 ar
  60   30   31 ar
  61   30   74 1
  62   31   32 ar
  63   32   33 ar
  64   32   34 1
  65   33   75 1
  66   35   36 ar
  67   35   37 ar
  68   35   48 1
  69   36   42 1
  70   36   40 ar
  71   37   38 ar
  72   37   76 1
  73   38   39 ar
  74   38   77 1
  75   39   40 ar
  76   39   41 1
  77   40   78 1
  78   43   44 1
  79   44   45 1
  80   44   79 1
  81   44   80 1
  82   45   46 1
  83   45   47 1
  84   45   81 1
  85   48   49 2
  86   48   50 2

#	End of record

