#	Name: ASD01420139
#	Creating user name:	WinNT
#	Creation time:	15. 06. 2019 19:20

#	Modifying user name:	WinNT
#	Modification time:	15. 06. 2019 19:20

#	Program:	/corina/corina34_cracker 3.40 0067  02.08.2006

@<TRIPOS>MOLECULE
ASD01420139
  46   48    0    0    0
SMALL
NO_CHARGES


@<TRIPOS>ATOM
   1 O1             1.6259     0.9319     0.9358 O.3     
   2 C2             1.3096    -0.3125     0.5216 C.ar    
   3 C3             0.5154    -0.1854    -0.6316 C.ar    
   4 C4             0.3872     1.2547    -0.8672 C.2     
   5 C5             1.0860     1.8607     0.1224 C.2     
   6 C6             1.6120    -1.5799     1.0024 C.ar    
   7 C7             1.1347    -2.6968     0.3502 C.ar    
   8 C8             0.3502    -2.5717    -0.7888 C.ar    
   9 C9             0.0378    -1.3239    -1.2829 C.ar    
  10 C10            1.2341     3.3219     0.2856 C.ar    
  11 C11            0.1159     4.1532     0.1957 C.ar    
  12 C12            0.2581     5.5156     0.3490 C.ar    
  13 C13            1.5116     6.0618     0.5922 C.ar    
  14 C14            2.6264     5.2385     0.6819 C.ar    
  15 C15            2.4916     3.8745     0.5359 C.ar    
  16 O16            1.6477     7.4052     0.7423 O.3     
  17 C17           -0.3694     1.9261    -1.9843 C.3     
  18 C18            2.9651     7.9001     0.9902 C.3     
  19 Cl19          -0.2394    -3.9927    -1.5930 Cl      
  20 C20            2.9199     9.4231     1.1301 C.3     
  21 C21            4.3305     9.9529     1.3955 C.3     
  22 N22            4.2871    11.4152     1.5298 N.3     
  23 C23            3.5337    11.8118     2.7269 C.3     
  24 C24            5.6419    11.9826     1.5484 C.3     
  25 H25            2.2214    -1.6905     1.8871 H       
  26 H26            1.3737    -3.6795     0.7290 H       
  27 H27           -0.5726    -1.2273    -2.1686 H       
  28 H28           -0.8592     3.7293     0.0059 H       
  29 H29           -0.6063     6.1593     0.2796 H       
  30 H30            3.5995     5.6671     0.8707 H       
  31 H31            3.3583     3.2344     0.6106 H       
  32 H32           -1.3679     2.1925    -1.6380 H       
  33 H33            0.1610     2.8274    -2.2919 H       
  34 H34           -0.4483     1.2442    -2.8309 H       
  35 H35            3.3506     7.4620     1.9109 H       
  36 H36            3.6169     7.6308     0.1591 H       
  37 H37            2.5345     9.8612     0.2094 H       
  38 H38            2.2682     9.6924     1.9612 H       
  39 H39            4.7159     9.5148     2.3162 H       
  40 H40            4.9822     9.6836     0.5644 H       
  41 H41            4.0122    11.3936     3.6124 H       
  42 H42            3.5171    12.8990     2.8021 H       
  43 H43            2.5127    11.4370     2.6544 H       
  44 H44            6.1536    11.7320     0.6192 H       
  45 H45            5.5806    13.0662     1.6486 H       
  46 H46            6.1968    11.5705     2.3913 H       
@<TRIPOS>BOND
   1    1    2 1
   2    1    5 1
   3    2    3 ar
   4    2    6 ar
   5    3    4 1
   6    3    9 ar
   7    4    5 2
   8    4   17 1
   9    5   10 1
  10    6    7 ar
  11    6   25 1
  12    7    8 ar
  13    7   26 1
  14    8    9 ar
  15    8   19 1
  16    9   27 1
  17   10   11 ar
  18   10   15 ar
  19   11   12 ar
  20   11   28 1
  21   12   13 ar
  22   12   29 1
  23   13   14 ar
  24   13   16 1
  25   14   15 ar
  26   14   30 1
  27   15   31 1
  28   16   18 1
  29   17   32 1
  30   17   33 1
  31   17   34 1
  32   18   20 1
  33   18   35 1
  34   18   36 1
  35   20   21 1
  36   20   37 1
  37   20   38 1
  38   21   22 1
  39   21   39 1
  40   21   40 1
  41   22   23 1
  42   22   24 1
  43   23   41 1
  44   23   42 1
  45   23   43 1
  46   24   44 1
  47   24   45 1
  48   24   46 1

#	End of record

