#	Name: ASD08150143
#	Creating user name:	WinNT
#	Creation time:	15. 06. 2019 21:15

#	Modifying user name:	WinNT
#	Modification time:	15. 06. 2019 21:15

#	Program:	/corina/corina34_cracker 3.40 0067  02.08.2006

@<TRIPOS>MOLECULE
ASD08150143
  23   24    0    0    0
SMALL
NO_CHARGES


@<TRIPOS>ATOM
   1 N1            -0.0179     1.4659     0.0101 N.3     
   2 C2             0.0021    -0.0041     0.0020 C.3     
   3 C3             0.7497    -0.4921    -1.2417 C.3     
   4 O4             2.0659     0.0673    -1.2506 O.3     
   5 C5             2.0838     1.4973    -1.2437 C.3     
   6 C6             1.3496     2.0055    -0.0001 C.3     
   7 C7            -0.7326     1.9463     1.0936 C.ar    
   8 N8            -0.8539     3.2552     1.2589 N.ar    
   9 C9            -1.5314     3.7483     2.2845 C.ar    
  10 C10           -2.1168     2.8762     3.1904 C.ar    
  11 C11           -1.9698     1.5120     2.9867 C.ar    
  12 N12           -1.2834     1.0861     1.9373 N.ar    
  13 Cl13          -2.6817     0.3770     4.0906 Cl      
  14 Cl14          -1.6843     5.4649     2.4928 Cl      
  15 H15            0.5087    -0.3661     0.8967 H       
  16 H16           -1.0202    -0.3818    -0.0162 H       
  17 H17            0.8167    -1.5799    -1.2226 H       
  18 H18            0.2136    -0.1754    -2.1363 H       
  19 H19            3.1155     1.8483    -1.2262 H       
  20 H20            1.5864     1.8718    -2.1384 H       
  21 H21            1.3110     3.0946    -0.0198 H       
  22 H22            1.8778     1.6756     0.8946 H       
  23 H23           -2.6745     3.2511     4.0359 H       
@<TRIPOS>BOND
   1    1    2 1
   2    1    6 1
   3    1    7 1
   4    2    3 1
   5    2   15 1
   6    2   16 1
   7    3    4 1
   8    3   17 1
   9    3   18 1
  10    4    5 1
  11    5    6 1
  12    5   19 1
  13    5   20 1
  14    6   21 1
  15    6   22 1
  16    7    8 ar
  17    7   12 ar
  18    8    9 ar
  19    9   10 ar
  20    9   14 1
  21   10   11 ar
  22   10   23 1
  23   11   12 ar
  24   11   13 1

#	End of record

