#	Name: ASD00070034
#	Creating user name:	WinNT
#	Creation time:	15. 06. 2019 18:29

#	Modifying user name:	WinNT
#	Modification time:	15. 06. 2019 18:29

#	Program:	/corina/corina34_cracker 3.40 0067  02.08.2006

@<TRIPOS>MOLECULE
ASD00070034
  70   74    0    0    0
SMALL
NO_CHARGES


@<TRIPOS>ATOM
   1 C1            -0.0184     1.5028     0.0103 C.2     
   2 C2             0.0021    -0.0041     0.0020 C.3     
   3 O3             1.0236     2.1234     0.0037 O.2     
   4 N4            -1.1946     2.1607     0.0195 N.am    
   5 O5             2.1795    -0.7380    -1.0964 O.3     
   6 N6             3.2880    -1.1131    -0.7918 N.2     
   7 C7             3.4377    -1.1665     0.5003 C.2     
   8 C8             2.2081    -0.7524     1.0619 C.2     
   9 C9             1.4295    -0.4870    -0.0142 C.2     
  10 C10            4.6761    -1.5870     1.2490 C.3     
  11 C11           -1.2145     3.6256     0.0275 C.3     
  12 C12           -2.5315     4.1210    -0.5732 C.3     
  13 C13           -2.5522     5.6509    -0.5648 C.3     
  14 C14           -2.4266     6.1547     0.8744 C.3     
  15 C15           -1.1096     5.6592     1.4751 C.3     
  16 C16           -1.0888     4.1294     1.4667 C.3     
  17 C17           -2.4474     7.6846     0.8828 C.3     
  18 C18           -2.4475     8.1867     2.3281 C.3     
  19 N19           -2.4674     9.6555     2.3362 N.3     
  20 C20           -2.7062    10.1711     3.6902 C.3     
  21 C21           -2.8652    11.6923     3.6376 C.3     
  22 C22           -1.5944    12.3135     3.0515 C.3     
  23 C23           -1.3419    11.7238     1.6611 C.3     
  24 C24           -1.2270    10.2018     1.7711 C.3     
  25 O25           -0.1300    16.6738     4.2829 O.3     
  26 C26            0.9559    15.7746     4.5638 C.3     
  27 C27            0.2716    14.3876     4.5232 C.3     
  28 C28           -0.9151    14.6506     3.6164 C.ar    
  29 C29           -1.0650    16.0292     3.5322 C.ar    
  30 C30           -1.7681    13.8064     2.9414 C.ar    
  31 C31           -2.7847    14.3293     2.1614 C.ar    
  32 C32           -2.9392    15.6996     2.0636 C.ar    
  33 C33           -2.0875    16.5473     2.7417 C.ar    
  34 H34           -0.4983    -0.3791     0.8948 H       
  35 H35           -0.5153    -0.3696    -0.8850 H       
  36 H36           -2.0280     1.6644     0.0207 H       
  37 H37            1.9493    -0.6678     2.1070 H       
  38 H38            5.3037    -0.7148     1.4320 H       
  39 H39            4.3907    -2.0353     2.2006 H       
  40 H40            5.2297    -2.3149     0.6559 H       
  41 H41           -0.3805     4.0035    -0.5638 H       
  42 H42           -2.6210     3.7621    -1.5985 H       
  43 H43           -3.3655     3.7431     0.0182 H       
  44 H44           -1.7182     6.0288    -1.1561 H       
  45 H45           -3.4905     6.0039    -0.9927 H       
  46 H46           -3.2606     5.7768     1.4658 H       
  47 H47           -0.2756     6.0372     0.8838 H       
  48 H48           -1.0201     6.0182     2.5004 H       
  49 H49           -1.9228     3.7515     2.0581 H       
  50 H50           -0.1506     3.7764     1.8947 H       
  51 H51           -1.5649     8.0627     0.3669 H       
  52 H52           -3.3446     8.0386     0.3752 H       
  53 H53           -3.3300     7.8085     2.8441 H       
  54 H54           -1.5502     7.8327     2.8358 H       
  55 H55           -3.6149     9.7247     4.0939 H       
  56 H56           -1.8614     9.9163     4.3301 H       
  57 H57           -3.7183    11.9474     3.0089 H       
  58 H58           -3.0269    12.0764     4.6448 H       
  59 H59           -0.7475    12.0913     3.7007 H       
  60 H60           -2.1710    11.9795     1.0013 H       
  61 H61           -0.4152    12.1304     1.2562 H       
  62 H62           -0.3891     9.9467     2.4199 H       
  63 H63           -1.0614     9.7776     0.7807 H       
  64 H64            1.7262    15.8477     3.7961 H       
  65 H65            1.3736    15.9702     5.5513 H       
  66 H66            0.9345    13.6386     4.0899 H       
  67 H67           -0.0573    14.0862     5.5177 H       
  68 H68           -3.4548    13.6692     1.6307 H       
  69 H69           -3.7304    16.1088     1.4530 H       
  70 H70           -2.2153    17.6167     2.6601 H       
@<TRIPOS>BOND
   1    1    2 1
   2    1    3 2
   3    1    4 am
   4    2    9 1
   5    2   34 1
   6    2   35 1
   7    4   11 1
   8    4   36 1
   9    5    6 1
  10    5    9 1
  11    6    7 2
  12    7    8 1
  13    7   10 1
  14    8    9 2
  15    8   37 1
  16   10   38 1
  17   10   39 1
  18   10   40 1
  19   11   12 1
  20   11   16 1
  21   11   41 1
  22   12   13 1
  23   12   42 1
  24   12   43 1
  25   13   14 1
  26   13   44 1
  27   13   45 1
  28   14   15 1
  29   14   17 1
  30   14   46 1
  31   15   16 1
  32   15   47 1
  33   15   48 1
  34   16   49 1
  35   16   50 1
  36   17   18 1
  37   17   51 1
  38   17   52 1
  39   18   19 1
  40   18   53 1
  41   18   54 1
  42   19   20 1
  43   19   24 1
  44   20   21 1
  45   20   55 1
  46   20   56 1
  47   21   22 1
  48   21   57 1
  49   21   58 1
  50   22   23 1
  51   22   30 1
  52   22   59 1
  53   23   24 1
  54   23   60 1
  55   23   61 1
  56   24   62 1
  57   24   63 1
  58   25   26 1
  59   25   29 1
  60   26   27 1
  61   26   64 1
  62   26   65 1
  63   27   28 1
  64   27   66 1
  65   27   67 1
  66   28   29 ar
  67   28   30 ar
  68   29   33 ar
  69   30   31 ar
  70   31   32 ar
  71   31   68 1
  72   32   33 ar
  73   32   69 1
  74   33   70 1

#	End of record

