#	Name: ASD04880753
#	Creating user name:	WinNT
#	Creation time:	15. 06. 2019 20:53

#	Modifying user name:	WinNT
#	Modification time:	15. 06. 2019 20:53

#	Program:	/corina/corina34_cracker 3.40 0067  02.08.2006

@<TRIPOS>MOLECULE
ASD04880753
  70   74    0    0    0
SMALL
NO_CHARGES


@<TRIPOS>ATOM
   1 C1             1.0216    -0.3328    -1.2372 C.ar    
   2 C2             0.8513    -1.3118    -2.1986 C.ar    
   3 C3             1.8371    -1.5379    -3.1420 C.ar    
   4 C4             2.9952    -0.7861    -3.1266 C.ar    
   5 C5             3.1695     0.1985    -2.1619 C.ar    
   6 C6             2.1776     0.4230    -1.2161 C.ar    
   7 N7             4.3399     0.9605    -2.1432 N.3     
   8 C8             5.1066     0.7180    -0.9131 C.3     
   9 C9             6.4161     1.5084    -0.9672 C.3     
  10 N10            6.1160     2.9384    -1.1240 N.3     
  11 C11            5.3493     3.1809    -2.3540 C.3     
  12 C12            4.0398     2.3906    -2.2999 C.3     
  13 C13            7.2828     3.6981    -1.1052 C.ar    
  14 C14            7.6941     4.3667    -2.2522 C.ar    
  15 C15            8.8481     5.1190    -2.2382 C.ar    
  16 C16            9.6088     5.2121    -1.0699 C.ar    
  17 C17            9.1971     4.5409     0.0854 C.ar    
  18 C18            8.0360     3.7920     0.0689 C.ar    
  19 N19            7.6171     3.1223     1.2259 N.am    
  20 C20            8.5225     2.7390     2.1477 C.2     
  21 C21            8.0966     1.9575     3.3130 C.2     
  22 O22            9.6937     3.0416     2.0130 O.2     
  23 C23            8.9059     1.5070     4.3165 C.2     
  24 C24            8.0838     0.8104     5.2160 C.2     
  25 C25            6.8247     0.8655     4.7284 C.2     
  26 O26            6.8355     1.5625     3.5847 O.3     
  27 C27           10.8450     6.0171    -1.0555 C.2     
  28 N28           11.2413     6.6633    -2.1699 N.am    
  29 O29           11.5064     6.0975    -0.0383 O.2     
  30 C30            4.0689    -1.0335    -4.1546 C.3     
  31 C31           12.4689     7.4627    -2.1556 C.3     
  32 C32           13.6708     6.5566    -2.4304 C.3     
  33 C33           12.3881     8.5265    -3.2200 C.ar    
  34 C34           12.8633     9.7989    -2.9630 C.ar    
  35 C35           12.7891    10.7747    -3.9393 C.ar    
  36 C36           12.2401    10.4779    -5.1728 C.ar    
  37 C37           11.7656     9.2053    -5.4301 C.ar    
  38 C38           11.8438     8.2283    -4.4552 C.ar    
  39 H39            0.2479    -0.1557    -0.5047 H       
  40 H40           -0.0534    -1.9015    -2.2127 H       
  41 H41            1.7010    -2.3037    -3.8913 H       
  42 H42            2.3099     1.1875    -0.4649 H       
  43 H43            4.5226     1.0404    -0.0511 H       
  44 H44            5.3273    -0.3459    -0.8260 H       
  45 H45            6.9731     1.3529    -0.0433 H       
  46 H46            7.0122     1.1670    -1.8135 H       
  47 H47            5.1287     4.2448    -2.4412 H       
  48 H48            5.9333     2.8585    -3.2160 H       
  49 H49            3.4828     2.5461    -3.2239 H       
  50 H50            3.4437     2.7319    -1.4537 H       
  51 H51            7.1079     4.2959    -3.1565 H       
  52 H52            9.1652     5.6371    -3.1312 H       
  53 H53            9.7832     4.6108     0.9898 H       
  54 H54            6.6755     2.9344     1.3635 H       
  55 H55            9.9720     1.6573     4.4013 H       
  56 H56            8.3984     0.3220     6.1264 H       
  57 H57            5.9526     0.4237     5.1875 H       
  58 H58           10.7137     6.5992    -2.9813 H       
  59 H59            3.8417    -0.4707    -5.0600 H       
  60 H60            5.0321    -0.7115    -3.7587 H       
  61 H61            4.1096    -2.0973    -4.3887 H       
  62 H62           12.5846     7.9336    -1.1794 H       
  63 H63           14.5841     7.1514    -2.4198 H       
  64 H64           13.7293     5.7872    -1.6605 H       
  65 H65           13.5551     6.0858    -3.4066 H       
  66 H66           13.2923    10.0307    -1.9993 H       
  67 H67           13.1597    11.7690    -3.7383 H       
  68 H68           12.1814    11.2405    -5.9353 H       
  69 H69           11.3364     8.9736    -6.3936 H       
  70 H70           11.4765     7.2330    -4.6575 H       
@<TRIPOS>BOND
   1    1    2 ar
   2    1    6 ar
   3    1   39 1
   4    2    3 ar
   5    2   40 1
   6    3    4 ar
   7    3   41 1
   8    4    5 ar
   9    4   30 1
  10    5    6 ar
  11    5    7 1
  12    6   42 1
  13    7    8 1
  14    7   12 1
  15    8    9 1
  16    8   43 1
  17    8   44 1
  18    9   10 1
  19    9   45 1
  20    9   46 1
  21   10   11 1
  22   10   13 1
  23   11   12 1
  24   11   47 1
  25   11   48 1
  26   12   49 1
  27   12   50 1
  28   13   14 ar
  29   13   18 ar
  30   14   15 ar
  31   14   51 1
  32   15   16 ar
  33   15   52 1
  34   16   17 ar
  35   16   27 1
  36   17   18 ar
  37   17   53 1
  38   18   19 1
  39   19   20 am
  40   19   54 1
  41   20   21 1
  42   20   22 2
  43   21   23 2
  44   21   26 1
  45   23   24 1
  46   23   55 1
  47   24   25 2
  48   24   56 1
  49   25   26 1
  50   25   57 1
  51   27   28 am
  52   27   29 2
  53   28   31 1
  54   28   58 1
  55   30   59 1
  56   30   60 1
  57   30   61 1
  58   31   32 1
  59   31   33 1
  60   31   62 1
  61   32   63 1
  62   32   64 1
  63   32   65 1
  64   33   34 ar
  65   33   38 ar
  66   34   35 ar
  67   34   66 1
  68   35   36 ar
  69   35   67 1
  70   36   37 ar
  71   36   68 1
  72   37   38 ar
  73   37   69 1
  74   38   70 1

#	End of record

