#	Name: ASD01151015
#	Creating user name:	WinNT
#	Creation time:	15. 06. 2019 19:05

#	Modifying user name:	WinNT
#	Modification time:	15. 06. 2019 19:05

#	Program:	/corina/corina34_cracker 3.40 0067  02.08.2006

@<TRIPOS>MOLECULE
ASD01151015
  47   47    0    0    0
SMALL
NO_CHARGES


@<TRIPOS>ATOM
   1 C1            -0.0168     1.3845     0.0097 C.2     
   2 C2             0.0021    -0.0041     0.0020 C.2     
   3 N3            -1.2696    -0.4207     0.0119 N.2     
   4 C4            -2.0752     0.6089     0.0251 C.2     
   5 N5            -1.3581     1.7463     0.0305 N.pl3   
   6 C6            -3.5802     0.5324     0.0386 C.3     
   7 C7            -1.8911     3.1108     0.0449 C.3     
   8 C8             1.0996     2.2517     0.0037 C.2     
   9 O9             0.9155     3.5890     0.0131 O.3     
  10 O10            2.2269     1.7926    -0.0100 O.2     
  11 C11            2.0883     4.4054     0.0062 C.3     
  12 C12            2.9066     4.1119    -1.2528 C.3     
  13 N13            1.1306    -0.8103    -0.0135 N.pl3   
  14 C14           -4.0762     0.4990     1.4856 C.3     
  15 C15           -2.0684     3.5738     1.4924 C.3     
  16 C16           -0.6994     3.6668     2.1694 C.3     
  17 C17           -2.7402     4.9483     1.5095 C.3     
  18 C18           -5.6042     0.4213     1.4992 C.3     
  19 C19            1.6828     5.8806     0.0186 C.3     
  20 C20            2.9311     4.0977     1.2455 C.3     
  21 H21           -3.9929     1.4054    -0.4669 H       
  22 H22           -3.9026    -0.3722    -0.4770 H       
  23 H23           -1.1972     3.7773    -0.4673 H       
  24 H24           -2.8552     3.1297    -0.4632 H       
  25 H25            2.3061     4.3311    -2.1357 H       
  26 H26            3.8012     4.7347    -1.2580 H       
  27 H27            3.1954     3.0609    -1.2616 H       
  28 H28            2.0136    -0.4087    -0.0201 H       
  29 H29            1.0370    -1.7757    -0.0177 H       
  30 H30           -3.6635    -0.3740     1.9911 H       
  31 H31           -3.7538     1.4036     2.0011 H       
  32 H32           -2.6913     2.8582     2.0291 H       
  33 H33           -0.8257     3.9966     3.2006 H       
  34 H34           -0.2208     2.6876     2.1572 H       
  35 H35           -0.0765     4.3824     1.6327 H       
  36 H36           -3.7154     4.8821     1.0272 H       
  37 H37           -2.8665     5.2782     2.5407 H       
  38 H38           -2.1173     5.6639     0.9729 H       
  39 H39           -6.0169     1.2944     0.9937 H       
  40 H40           -5.9266    -0.4833     0.9837 H       
  41 H41           -5.9576     0.3976     2.5301 H       
  42 H42            1.0998     6.0897     0.9156 H       
  43 H43            2.5774     6.5033     0.0134 H       
  44 H44            1.0824     6.0998    -0.8642 H       
  45 H45            3.2200     3.0467     1.2367 H       
  46 H46            3.8257     4.7204     1.2403 H       
  47 H47            2.3481     4.3067     2.1425 H       
@<TRIPOS>BOND
   1    1    2 2
   2    1    8 1
   3    1    5 1
   4    2    3 1
   5    2   13 1
   6    3    4 2
   7    4    5 1
   8    4    6 1
   9    5    7 1
  10    6   14 1
  11    6   21 1
  12    6   22 1
  13    7   15 1
  14    7   23 1
  15    7   24 1
  16    8    9 1
  17    8   10 2
  18    9   11 1
  19   11   12 1
  20   11   19 1
  21   11   20 1
  22   12   25 1
  23   12   26 1
  24   12   27 1
  25   13   28 1
  26   13   29 1
  27   14   18 1
  28   14   30 1
  29   14   31 1
  30   15   16 1
  31   15   17 1
  32   15   32 1
  33   16   33 1
  34   16   34 1
  35   16   35 1
  36   17   36 1
  37   17   37 1
  38   17   38 1
  39   18   39 1
  40   18   40 1
  41   18   41 1
  42   19   42 1
  43   19   43 1
  44   19   44 1
  45   20   45 1
  46   20   46 1
  47   20   47 1

#	End of record

