#	Name: ASD05872049
#	Creating user name:	WinNT
#	Creation time:	15. 06. 2019 21:04

#	Modifying user name:	WinNT
#	Modification time:	15. 06. 2019 21:04

#	Program:	/corina/corina34_cracker 3.40 0067  02.08.2006

@<TRIPOS>MOLECULE
ASD05872049
  68   72    0    0    0
SMALL
NO_CHARGES


@<TRIPOS>ATOM
   1 C1             0.0602     1.3033     0.0237 C.ar    
   2 C2             0.2297    -0.0725    -0.0203 C.ar    
   3 C3            -0.9023    -0.8903    -0.0673 C.ar    
   4 C4            -2.1660    -0.3278    -0.0753 C.ar    
   5 C5            -2.3179     1.0462    -0.0373 C.ar    
   6 C6            -1.2010     1.8603     0.0148 C.ar    
   7 C7             1.4443     1.9203     0.0824 C.3     
   8 C8             2.3210     0.7042     0.4641 C.3     
   9 O9             1.5500    -0.4080    -0.0214 O.3     
  10 C10           -3.6966     1.6546    -0.0500 C.3     
  11 O11           -4.5974     0.8581    -0.8376 O.3     
  12 C12           -5.8418     0.9108    -0.2893 C.ar    
  13 C13           -5.7908     1.3364     1.0337 C.ar    
  14 C14           -4.3327     1.5997     1.3590 C.3     
  15 C15           -7.0844     0.6071    -0.8605 C.ar    
  16 C16           -8.2395     0.7225    -0.1182 C.ar    
  17 C17           -8.1782     1.1457     1.2157 C.ar    
  18 C18           -6.9352     1.4523     1.7843 C.ar    
  19 C19           -9.4066     1.2675     2.0112 C.2     
  20 C20          -10.6045     0.9703     1.4560 C.2     
  21 C21            3.6574     0.7707    -0.2292 C.ar    
  22 C22            3.8118     0.2121    -1.4840 C.ar    
  23 C23            5.0361     0.2705    -2.1243 C.ar    
  24 C24            6.1110     0.8902    -1.5083 C.ar    
  25 C25            5.9554     1.4532    -0.2448 C.ar    
  26 C26            4.7250     1.3954     0.3890 C.ar    
  27 C27            1.8451     2.4725    -1.2613 C.2     
  28 O28            2.4869     3.5070    -1.3285 O.co2   
  29 O29            1.5276     1.8848    -2.2813 O.co2   
  30 O30            7.3158     0.9481    -2.1365 O.3     
  31 S31            7.5018     2.1833    -3.0061 S.o2    
  32 O32            8.6462     1.9228    -3.8655 O.co2   
  33 O33            6.2736     2.3487    -3.7679 O.co2   
  34 O34            7.7393     3.2995    -2.1041 O.co2   
  35 O35            7.0078     2.0622     0.3642 O.3     
  36 C36            6.7748     2.6176     1.6601 C.3     
  37 O37           -0.7613    -2.2424    -0.1056 O.3     
  38 C38           -1.9601    -3.0186    -0.1527 C.3     
  39 O39           -7.1510     0.1964    -2.1553 O.3     
  40 C40           -8.4486    -0.0975    -2.6767 C.3     
  41 C41           -3.7494     0.4713     2.1699 C.2     
  42 O42           -4.4507    -0.4714     2.4955 O.co2   
  43 O43           -2.5762     0.5011     2.5003 O.co2   
  44 C44          -11.7869     1.0875     2.2217 C.2     
  45 O45          -11.7273     1.4582     3.3880 O.co2   
  46 O46          -12.8714     0.8184     1.7190 O.co2   
  47 H47           -3.0377    -0.9643    -0.1117 H       
  48 H48           -1.3169     2.9336     0.0446 H       
  49 H49            1.4943     2.6927     0.8499 H       
  50 H50            2.4480     0.6436     1.5450 H       
  51 H51           -3.6616     2.6789    -0.4212 H       
  52 H52           -4.2148     2.5515     1.8771 H       
  53 H53           -9.1938     0.4865    -0.5656 H       
  54 H54           -6.8768     1.7791     2.8120 H       
  55 H55           -9.3540     1.5943     3.0392 H       
  56 H56          -10.6570     0.6435     0.4280 H       
  57 H57            2.9746    -0.2713    -1.9653 H       
  58 H58            5.1543    -0.1674    -3.1044 H       
  59 H59            4.6016     1.8314     1.3694 H       
  60 H60            5.9948     3.3762     1.5954 H       
  61 H61            6.4585     1.8284     2.3421 H       
  62 H62            7.6935     3.0719     2.0312 H       
  63 H63           -1.7061    -4.0782    -0.1799 H       
  64 H64           -2.5618    -2.8119     0.7324 H       
  65 H65           -2.5270    -2.7578    -1.0464 H       
  66 H66           -9.0735     0.7938    -2.6197 H       
  67 H67           -8.3596    -0.4128    -3.7163 H       
  68 H68           -8.9026    -0.8975    -2.0920 H       
@<TRIPOS>BOND
   1    1    2 ar
   2    1    7 1
   3    1    6 ar
   4    2    3 ar
   5    2    9 1
   6    3    4 ar
   7    3   37 1
   8    4    5 ar
   9    4   47 1
  10    5    6 ar
  11    5   10 1
  12    6   48 1
  13    7    8 1
  14    7   27 1
  15    7   49 1
  16    8    9 1
  17    8   21 1
  18    8   50 1
  19   10   11 1
  20   10   14 1
  21   10   51 1
  22   11   12 1
  23   12   13 ar
  24   12   15 ar
  25   13   14 1
  26   13   18 ar
  27   14   41 1
  28   14   52 1
  29   15   16 ar
  30   15   39 1
  31   16   17 ar
  32   16   53 1
  33   17   18 ar
  34   17   19 1
  35   18   54 1
  36   19   20 2
  37   19   55 1
  38   20   44 1
  39   20   56 1
  40   21   22 ar
  41   21   26 ar
  42   22   23 ar
  43   22   57 1
  44   23   24 ar
  45   23   58 1
  46   24   25 ar
  47   24   30 1
  48   25   26 ar
  49   25   35 1
  50   26   59 1
  51   27   28 ar
  52   27   29 ar
  53   30   31 1
  54   31   32 ar
  55   31   33 ar
  56   31   34 ar
  57   35   36 1
  58   36   60 1
  59   36   61 1
  60   36   62 1
  61   37   38 1
  62   38   63 1
  63   38   64 1
  64   38   65 1
  65   39   40 1
  66   40   66 1
  67   40   67 1
  68   40   68 1
  69   41   42 ar
  70   41   43 ar
  71   44   45 ar
  72   44   46 ar

#	End of record

