#	Name: ASD01816975
#	Creating user name:	WinNT
#	Creation time:	15. 06. 2019 19:36

#	Modifying user name:	WinNT
#	Modification time:	15. 06. 2019 19:36

#	Program:	/corina/corina34_cracker 3.40 0067  02.08.2006

@<TRIPOS>MOLECULE
ASD01816975
  64   69    0    0    0
SMALL
NO_CHARGES


@<TRIPOS>ATOM
   1 C1            -0.0168     1.3862     0.0097 C.ar    
   2 C2             0.0021    -0.0041     0.0020 C.ar    
   3 N3             1.1274    -0.6793    -0.0123 N.ar    
   4 C4             2.3109    -0.0604    -0.0203 C.ar    
   5 C5             2.3594     1.3548    -0.0132 C.ar    
   6 C6             1.1626     2.0821     0.0021 C.ar    
   7 C7             3.5128    -0.7990    -0.0362 C.ar    
   8 C8             4.7176    -0.1801    -0.0444 C.ar    
   9 C9             4.8189     1.2191    -0.0374 C.ar    
  10 C10            3.6595     2.0169    -0.0221 C.ar    
  11 C11            6.1194     1.9009    -0.0457 C.2     
  12 N12            6.1139     3.2542    -0.0381 N.am    
  13 C13            4.9427     3.9377    -0.0228 C.2     
  14 N14            3.7793     3.3548    -0.0160 N.2     
  15 O15            7.1626     1.2728    -0.0587 O.2     
  16 C16            3.4551    -2.3049    -0.0437 C.3     
  17 C17            3.2981    -2.7945    -1.4602 C.ar    
  18 C18            4.4168    -3.0675    -2.2359 C.ar    
  19 C19            4.2288    -3.5150    -3.5314 C.ar    
  20 C20            2.9327    -3.6755    -4.0102 C.ar    
  21 N21            1.8910    -3.4040    -3.2391 N.ar    
  22 C22            2.0403    -2.9817    -1.9980 C.ar    
  23 C23            7.3828     3.9864    -0.0458 C.3     
  24 C24            7.4525     4.8730    -1.2908 C.3     
  25 C25            7.4759     4.8589     1.2076 C.3     
  26 C26            8.8011     5.6235     1.1995 C.3     
  27 C27            8.8707     6.5102    -0.0455 C.3     
  28 C28            8.7777     5.6377    -1.2988 C.3     
  29 O29            7.4108     4.0308     2.3703 O.3     
  30 N30            2.7293    -4.1245    -5.3099 N.3     
  31 C31            1.2944    -4.2241    -5.6144 C.3     
  32 C32            1.1164    -4.6633    -7.0701 C.3     
  33 O33            1.8009    -5.9021    -7.2762 O.3     
  34 C34            3.2007    -5.8409    -6.9896 C.3     
  35 C35            3.3998    -5.4136    -5.5331 C.3     
  36 H36           -0.9582     1.9154     0.0170 H       
  37 H37           -0.9341    -0.5426     0.0084 H       
  38 H38            1.1697     3.1621     0.0075 H       
  39 H39            5.6184    -0.7758    -0.0562 H       
  40 H40            4.9771     5.0171    -0.0163 H       
  41 H41            4.3761    -2.7059     0.3794 H       
  42 H42            2.6059    -2.6389     0.5524 H       
  43 H43            5.4114    -2.9331    -1.8371 H       
  44 H44            5.0768    -3.7364    -4.1624 H       
  45 H45            1.1674    -2.7701    -1.3983 H       
  46 H46            8.2111     3.2779    -0.0576 H       
  47 H47            7.3862     4.2514    -2.1837 H       
  48 H48            6.6242     5.5815    -1.2790 H       
  49 H49            6.6476     5.5674     1.2193 H       
  50 H50            8.8673     6.2451     2.0924 H       
  51 H51            9.6293     4.9150     1.1877 H       
  52 H52            8.0425     7.2187    -0.0337 H       
  53 H53            9.8148     7.0549    -0.0512 H       
  54 H54            9.6059     4.9291    -1.3106 H       
  55 H55            8.8273     6.2693    -2.1858 H       
  56 H56            7.4641     4.5182     3.2038 H       
  57 H57            0.8323    -4.9576    -4.9537 H       
  58 H58            0.8228    -3.2525    -5.4671 H       
  59 H59            0.0556    -4.7938    -7.2838 H       
  60 H60            1.5312    -3.9037    -7.7328 H       
  61 H61            3.6473    -6.8230    -7.1451 H       
  62 H62            3.6760    -5.1156    -7.6500 H       
  63 H63            4.4651    -5.3104    -5.3264 H       
  64 H64            2.9713    -6.1662    -4.8711 H       
@<TRIPOS>BOND
   1    1    2 ar
   2    1    6 ar
   3    1   36 1
   4    2    3 ar
   5    2   37 1
   6    3    4 ar
   7    4    5 ar
   8    4    7 ar
   9    5    6 ar
  10    5   10 ar
  11    6   38 1
  12    7    8 ar
  13    7   16 1
  14    8    9 ar
  15    8   39 1
  16    9   10 ar
  17    9   11 1
  18   10   14 1
  19   11   12 am
  20   11   15 2
  21   12   13 1
  22   12   23 1
  23   13   14 2
  24   13   40 1
  25   16   17 1
  26   16   41 1
  27   16   42 1
  28   17   18 ar
  29   17   22 ar
  30   18   19 ar
  31   18   43 1
  32   19   20 ar
  33   19   44 1
  34   20   21 ar
  35   20   30 1
  36   21   22 ar
  37   22   45 1
  38   23   24 1
  39   23   25 1
  40   23   46 1
  41   24   28 1
  42   24   47 1
  43   24   48 1
  44   25   26 1
  45   25   29 1
  46   25   49 1
  47   26   27 1
  48   26   50 1
  49   26   51 1
  50   27   28 1
  51   27   52 1
  52   27   53 1
  53   28   54 1
  54   28   55 1
  55   29   56 1
  56   30   31 1
  57   30   35 1
  58   31   32 1
  59   31   57 1
  60   31   58 1
  61   32   33 1
  62   32   59 1
  63   32   60 1
  64   33   34 1
  65   34   35 1
  66   34   61 1
  67   34   62 1
  68   35   63 1
  69   35   64 1

#	End of record

