#	Name: ASD02448124
#	Creating user name:	WinNT
#	Creation time:	15. 06. 2019 20:21

#	Modifying user name:	WinNT
#	Modification time:	15. 06. 2019 20:21

#	Program:	/corina/corina34_cracker 3.40 0067  02.08.2006

@<TRIPOS>MOLECULE
ASD02448124
  82   87    0    0    0
SMALL
NO_CHARGES


@<TRIPOS>ATOM
   1 C1            -1.2826    -6.0427     5.0413 C.ar    
   2 C2            -0.6153    -5.0355     4.3714 C.ar    
   3 C3            -0.4475    -5.1075     2.9944 C.ar    
   4 C4            -0.9507    -6.1918     2.2915 C.ar    
   5 C5            -1.6208    -7.2026     2.9670 C.ar    
   6 C6            -1.7854    -7.1247     4.3444 C.ar    
   7 N7            -2.1295    -8.2963     2.2627 N.am    
   8 C8            -2.3995    -9.6486     2.7679 C.3     
   9 C9            -2.9436   -10.5322     1.6921 C.2     
  10 N10           -3.0809    -9.9418     0.4965 N.am    
  11 S11           -2.5765    -8.3636     0.6568 S.o2    
  12 O12           -3.2377   -11.6928     1.8857 O.2     
  13 O13           -3.7228    -7.5389     0.4982 O.2     
  14 O14           -1.3871    -8.2238    -0.1081 O.2     
  15 N15            0.2295    -4.0844     2.3157 N.pl3   
  16 C16            1.3377    -4.2299     1.5246 C.2     
  17 C17           -0.0956    -2.7648     2.3159 C.2     
  18 N18            0.7602    -2.1197     1.5735 N.2     
  19 C19            1.6581    -2.9906     1.0696 C.2     
  20 C20            2.7946    -2.6548     0.1771 C.ar    
  21 C21            3.0097    -1.3336    -0.2153 C.ar    
  22 C22            3.6541    -3.6570    -0.2676 C.ar    
  23 C23            4.7100    -3.3396    -1.0979 C.ar    
  24 C24            4.9167    -2.0280    -1.4890 C.ar    
  25 C25            4.0691    -1.0268    -1.0462 C.ar    
  26 C26           -1.2558    -2.1480     3.0537 C.3     
  27 C27           -2.4379    -2.0343     2.1259 C.ar    
  28 C28           -3.3030    -3.1034     1.9779 C.ar    
  29 C29           -2.6570    -0.8593     1.4298 C.ar    
  30 C30           -3.7382    -0.7495     0.5791 C.ar    
  31 C31           -4.6099    -1.8251     0.4222 C.ar    
  32 C32           -4.3875    -3.0045     1.1299 C.ar    
  33 C33           -5.7742    -1.7130    -0.4911 C.ar    
  34 C34           -5.9991    -0.5309    -1.1948 C.ar    
  35 C35           -6.6414    -2.7900    -0.6517 C.ar    
  36 C36           -7.7277    -2.6789    -1.5066 C.ar    
  37 C37           -7.9475    -1.4951    -2.1995 C.ar    
  38 C38           -7.0829    -0.4280    -2.0435 C.ar    
  39 Cl39           6.2471    -1.6360    -2.5330 Cl      
  40 Cl40           1.9475    -0.0776     0.3395 Cl      
  41 N41           -8.6021    -3.7593    -1.6716 N.am    
  42 C42          -10.7332    -2.0841    -1.3490 C.3     
  43 C43          -10.3669    -0.9671    -2.3284 C.3     
  44 C44           -9.1283    -1.3760    -3.1282 C.3     
  45 C45          -11.5354    -0.7250    -3.2860 C.3     
  46 C46           -8.6434    -4.7399    -0.7480 C.2     
  47 O47           -9.3898    -5.8392    -0.9661 O.3     
  48 O48           -8.0072    -4.6320     0.2816 O.2     
  49 C49           -9.3869    -6.8545     0.0719 C.3     
  50 H50           -1.4077    -5.9865     6.1125 H       
  51 H51           -0.2239    -4.1909     4.9190 H       
  52 H52           -0.8217    -6.2497     1.2208 H       
  53 H53           -2.3066    -7.9106     4.8708 H       
  54 H54           -1.4733   -10.0789     3.1488 H       
  55 H55           -3.1235    -9.5883     3.5805 H       
  56 H56           -3.4158   -10.3575    -0.3134 H       
  57 H57            1.8566    -5.1513     1.3051 H       
  58 H58            3.4946    -4.6808     0.0372 H       
  59 H59            5.3766    -4.1162    -1.4429 H       
  60 H60            4.2343    -0.0050    -1.3544 H       
  61 H61           -1.5207    -2.7760     3.9044 H       
  62 H62           -0.9752    -1.1560     3.4079 H       
  63 H63           -3.1294    -4.0172     2.5267 H       
  64 H64           -1.9809    -0.0260     1.5524 H       
  65 H65           -3.9086     0.1685     0.0363 H       
  66 H66           -5.0600    -3.8413     1.0120 H       
  67 H67           -5.3255     0.3048    -1.0756 H       
  68 H68           -6.4686    -3.7096    -0.1123 H       
  69 H69           -7.2579     0.4903    -2.5844 H       
  70 H70           -9.1783    -3.8023    -2.4507 H       
  71 H71          -10.9442    -2.9986    -1.9033 H       
  72 H72           -9.9008    -2.2566    -0.6668 H       
  73 H73          -11.6156    -1.7929    -0.7792 H       
  74 H74          -10.1559    -0.0526    -1.7740 H       
  75 H75           -8.9198    -0.6209    -3.8862 H       
  76 H76           -9.3086    -2.3361    -3.6117 H       
  77 H77          -12.4177    -0.4338    -2.7161 H       
  78 H78          -11.2744     0.0708    -3.9836 H       
  79 H79          -11.7463    -1.6395    -3.8403 H       
  80 H80           -8.3700    -7.2163     0.2235 H       
  81 H81           -9.7622    -6.4254     1.0009 H       
  82 H82          -10.0265    -7.6841    -0.2295 H       
@<TRIPOS>BOND
   1    1    2 ar
   2    1    6 ar
   3    1   50 1
   4    2    3 ar
   5    2   51 1
   6    3    4 ar
   7    3   15 1
   8    4    5 ar
   9    4   52 1
  10    5    6 ar
  11    5    7 1
  12    6   53 1
  13    7    8 1
  14    7   11 am
  15    8    9 1
  16    8   54 1
  17    8   55 1
  18    9   10 am
  19    9   12 2
  20   10   11 am
  21   10   56 1
  22   11   13 2
  23   11   14 2
  24   15   16 1
  25   15   17 1
  26   16   19 2
  27   16   57 1
  28   17   18 2
  29   17   26 1
  30   18   19 1
  31   19   20 1
  32   20   21 ar
  33   20   22 ar
  34   21   40 1
  35   21   25 ar
  36   22   23 ar
  37   22   58 1
  38   23   24 ar
  39   23   59 1
  40   24   25 ar
  41   24   39 1
  42   25   60 1
  43   26   27 1
  44   26   61 1
  45   26   62 1
  46   27   28 ar
  47   27   29 ar
  48   28   32 ar
  49   28   63 1
  50   29   30 ar
  51   29   64 1
  52   30   31 ar
  53   30   65 1
  54   31   32 ar
  55   31   33 1
  56   32   66 1
  57   33   34 ar
  58   33   35 ar
  59   34   38 ar
  60   34   67 1
  61   35   36 ar
  62   35   68 1
  63   36   37 ar
  64   36   41 1
  65   37   38 ar
  66   37   44 1
  67   38   69 1
  68   41   46 am
  69   41   70 1
  70   42   43 1
  71   42   71 1
  72   42   72 1
  73   42   73 1
  74   43   44 1
  75   43   45 1
  76   43   74 1
  77   44   75 1
  78   44   76 1
  79   45   77 1
  80   45   78 1
  81   45   79 1
  82   46   47 1
  83   46   48 2
  84   47   49 1
  85   49   80 1
  86   49   81 1
  87   49   82 1

#	End of record

