#	Name: ASD03082387
#	Creating user name:	WinNT
#	Creation time:	15. 06. 2019 20:27

#	Modifying user name:	WinNT
#	Modification time:	15. 06. 2019 20:27

#	Program:	/corina/corina34_cracker 3.40 0067  02.08.2006

@<TRIPOS>MOLECULE
ASD03082387
  46   48    0    0    0
SMALL
NO_CHARGES


@<TRIPOS>ATOM
   1 C1            -3.8242    -0.8097     0.0258 C.ar    
   2 C2            -2.7330    -0.2793     0.7019 C.ar    
   3 C3            -2.8847     0.8722     1.4648 C.ar    
   4 C4            -4.1189     1.4858     1.5488 C.ar    
   5 C5            -5.2040     0.9559     0.8748 C.ar    
   6 C6            -5.0570    -0.1907     0.1140 C.ar    
   7 Cl7           -6.4221    -0.8525    -0.7299 Cl      
   8 N8            -1.4857    -0.9024     0.6155 N.pl3   
   9 C9            -1.4066    -2.2821     0.3988 C.2     
  10 C10           -0.2267    -3.0177     0.1932 C.2     
  11 N11           -2.4208    -3.1141     0.3578 N.2     
  12 N12           -1.9218    -4.4013     0.1205 N.pl3   
  13 C13           -0.5694    -4.3143     0.0233 C.2     
  14 C14           -2.6810    -5.5698     0.0071 C.ar    
  15 C15           -2.2685    -6.7522     0.6181 C.ar    
  16 C16           -3.8731    -5.5805    -0.7151 C.ar    
  17 C17           -4.5934    -6.7539    -0.8028 C.ar    
  18 N18           -4.1669    -7.8550    -0.2136 N.ar    
  19 C19           -3.0466    -7.8840     0.4826 C.ar    
  20 C20           -5.8838    -6.7783    -1.5808 C.3     
  21 H21           -2.7326    -8.8059     0.9494 H       
  22 C22            0.3788    -5.4582    -0.2292 C.3     
  23 C23            0.9887    -5.9172     1.0968 C.3     
  24 C24            1.8433    -7.1640     0.8605 C.3     
  25 C25            2.3517    -7.6957     2.2021 C.3     
  26 O26            1.8057    -4.8740     1.6318 O.3     
  27 H27           -3.7086    -1.7020    -0.5715 H       
  28 H28           -2.0381     1.2867     1.9919 H       
  29 H29           -4.2370     2.3806     2.1420 H       
  30 H30           -6.1681     1.4380     0.9423 H       
  31 H31           -0.6744    -0.3783     0.7059 H       
  32 H32            0.7764    -2.6178     0.1743 H       
  33 H33           -1.3525    -6.7827     1.1894 H       
  34 H34           -4.2281    -4.6827    -1.1991 H       
  35 H35           -5.6773    -7.0384    -2.6189 H       
  36 H36           -6.5555    -7.5193    -1.1473 H       
  37 H37           -6.3520    -5.7949    -1.5389 H       
  38 H38           -0.1640    -6.2860    -0.6854 H       
  39 H39            1.1728    -5.1306    -0.9002 H       
  40 H40            0.1911    -6.1517     1.8017 H       
  41 H41            1.2415    -7.9296     0.3708 H       
  42 H42            2.6919    -6.9080     0.2261 H       
  43 H43            2.9535    -6.9301     2.6918 H       
  44 H44            1.5031    -7.9518     2.8365 H       
  45 H45            2.9605    -8.5840     2.0337 H       
  46 H46            2.5377    -4.6133     1.0561 H       
@<TRIPOS>BOND
   1    1    2 ar
   2    1    6 ar
   3    1   27 1
   4    2    3 ar
   5    2    8 1
   6    3    4 ar
   7    3   28 1
   8    4    5 ar
   9    4   29 1
  10    5    6 ar
  11    5   30 1
  12    6    7 1
  13    8    9 1
  14    8   31 1
  15    9   10 1
  16    9   11 2
  17   10   13 2
  18   10   32 1
  19   11   12 1
  20   12   13 1
  21   12   14 1
  22   13   22 1
  23   14   15 ar
  24   14   16 ar
  25   15   19 ar
  26   15   33 1
  27   16   17 ar
  28   16   34 1
  29   17   18 ar
  30   17   20 1
  31   18   19 ar
  32   19   21 1
  33   20   35 1
  34   20   36 1
  35   20   37 1
  36   22   23 1
  37   22   38 1
  38   22   39 1
  39   23   24 1
  40   23   26 1
  41   23   40 1
  42   24   25 1
  43   24   41 1
  44   24   42 1
  45   25   43 1
  46   25   44 1
  47   25   45 1
  48   26   46 1

#	End of record

