#	Name: ASD07931279
#	Creating user name:	WinNT
#	Creation time:	15. 06. 2019 21:13

#	Modifying user name:	WinNT
#	Modification time:	15. 06. 2019 21:13

#	Program:	/corina/corina34_cracker 3.40 0067  02.08.2006

@<TRIPOS>MOLECULE
ASD07931279
  51   56    0    0    0
SMALL
NO_CHARGES


@<TRIPOS>ATOM
   1 N1            -0.0161     1.3386     0.0094 N.pl3   
   2 C2             0.0021    -0.0041     0.0020 C.2     
   3 C3             1.1793    -0.7101    -0.0131 C.2     
   4 C4             2.4649     0.0245    -0.0214 C.2     
   5 C5             2.3995     1.4983    -0.0129 C.ar    
   6 C6             3.5528     2.2766    -0.0202 C.ar    
   7 C7             3.4491     3.6521    -0.0123 C.ar    
   8 C8             2.2022     4.2570     0.0034 C.ar    
   9 C9             1.0518     3.4965     0.0108 C.ar    
  10 C10            1.1344     2.1082     0.0025 C.ar    
  11 N11            2.8980    -2.1587    -0.0373 N.am    
  12 N12            3.4184    -0.8622    -0.0353 N.2     
  13 C13            1.5480    -2.1223    -0.0242 C.2     
  14 O14            0.7890    -3.0779    -0.0220 O.2     
  15 C15           -1.3130     2.0200     0.0192 C.3     
  16 C16           -1.7510     2.2460     1.4433 C.ar    
  17 C17           -1.3941     3.4102     2.0985 C.ar    
  18 C18           -1.7941     3.6201     3.4037 C.ar    
  19 C19           -2.5556     2.6610     4.0577 C.ar    
  20 C20           -2.9127     1.4933     3.3971 C.ar    
  21 C21           -2.5138     1.2912     2.0903 C.ar    
  22 N22           -2.9627     2.8710     5.3826 N.pl3   
  23 N23           -2.6751     3.9969     6.1649 N.2     
  24 C24           -3.2238     3.8290     7.3411 C.2     
  25 C25           -3.8780     2.5921     7.3467 C.2     
  26 C26           -3.7074     2.0251     6.1299 C.2     
  27 C27            3.6673    -3.3304    -0.0506 C.ar    
  28 C28            4.0605    -3.9195     1.1456 C.ar    
  29 C29            4.8197    -5.0758     1.1283 C.ar    
  30 C30            5.1879    -5.6453    -0.0767 C.ar    
  31 C31            4.7992    -5.0621    -1.2687 C.ar    
  32 C32            4.0343    -3.9095    -1.2599 C.ar    
  33 F33            3.6499    -3.3438    -2.4250 F       
  34 F34            3.7020    -3.3634     2.3235 F       
  35 H35           -0.9340    -0.5427     0.0085 H       
  36 H36            4.5248     1.8059    -0.0317 H       
  37 H37            4.3421     4.2594    -0.0180 H       
  38 H38            2.1308     5.3346     0.0102 H       
  39 H39            0.0858     3.9794     0.0230 H       
  40 H40           -1.2230     2.9797    -0.4899 H       
  41 H41           -2.0510     1.4040    -0.4946 H       
  42 H42           -0.8017     4.1559     1.5892 H       
  43 H43           -1.5144     4.5293     3.9152 H       
  44 H44           -3.5050     0.7454     3.9032 H       
  45 H45           -2.7945     0.3847     1.5746 H       
  46 H46           -3.1788     4.5249     8.1657 H       
  47 H47           -4.4260     2.1670     8.1745 H       
  48 H48           -4.0946     1.0679     5.8132 H       
  49 H49            5.1256    -5.5341     2.0571 H       
  50 H50            5.7810    -6.5478    -0.0869 H       
  51 H51            5.0891    -5.5098    -2.2078 H       
@<TRIPOS>BOND
   1    1    2 1
   2    1   10 1
   3    1   15 1
   4    2    3 2
   5    2   35 1
   6    3    4 1
   7    3   13 1
   8    4    5 1
   9    4   12 2
  10    5    6 ar
  11    5   10 ar
  12    6    7 ar
  13    6   36 1
  14    7    8 ar
  15    7   37 1
  16    8    9 ar
  17    8   38 1
  18    9   10 ar
  19    9   39 1
  20   11   12 1
  21   11   13 am
  22   11   27 1
  23   13   14 2
  24   15   16 1
  25   15   40 1
  26   15   41 1
  27   16   17 ar
  28   16   21 ar
  29   17   18 ar
  30   17   42 1
  31   18   19 ar
  32   18   43 1
  33   19   20 ar
  34   19   22 1
  35   20   21 ar
  36   20   44 1
  37   21   45 1
  38   22   23 1
  39   22   26 1
  40   23   24 2
  41   24   25 1
  42   24   46 1
  43   25   26 2
  44   25   47 1
  45   26   48 1
  46   27   28 ar
  47   27   32 ar
  48   28   29 ar
  49   28   34 1
  50   29   30 ar
  51   29   49 1
  52   30   31 ar
  53   30   50 1
  54   31   32 ar
  55   31   51 1
  56   32   33 1

#	End of record

