#	Name: ASD01911996
#	Creating user name:	WinNT
#	Creation time:	15. 06. 2019 19:58

#	Modifying user name:	WinNT
#	Modification time:	15. 06. 2019 19:58

#	Program:	/corina/corina34_cracker 3.40 0067  02.08.2006

@<TRIPOS>MOLECULE
ASD01911996
  39   41    0    0    0
SMALL
NO_CHARGES


@<TRIPOS>ATOM
   1 C1            -1.4285     1.2132     1.7183 C.ar    
   2 C2            -1.3521    -0.1699     1.5725 C.ar    
   3 C3            -1.5145    -0.9624     2.7064 C.ar    
   4 N4            -1.7337    -0.3770     3.8719 N.ar    
   5 C5            -1.7991     0.9359     3.9683 C.ar    
   6 N6            -1.6508     1.7202     2.9194 N.ar    
   7 N7            -1.1191    -0.7475     0.3212 N.pl3   
   8 C8            -1.0193    -2.1357     0.2002 C.ar    
   9 C9             0.3000    -4.0939    -0.2379 C.ar    
  10 C10           -0.8138    -4.8900    -0.0418 C.ar    
  11 C11           -2.0370    -4.3107     0.2710 C.ar    
  12 C12           -2.1397    -2.9320     0.3919 C.ar    
  13 N13           -3.1627    -5.1164     0.4692 N.am    
  14 C14           -4.3834    -4.6673     0.1161 C.2     
  15 C15           -5.5840    -5.4746     0.4191 C.ar    
  16 O16           -4.4970    -3.5983    -0.4514 O.2     
  17 C17           -6.8495    -5.0123     0.0548 C.ar    
  18 C18            0.2008    -2.7203    -0.1177 C.ar    
  19 C19           -0.9796     0.1029    -0.8636 C.3     
  20 C20           -7.9666    -5.7705     0.3398 C.ar    
  21 C21           -7.8348    -6.9865     0.9857 C.ar    
  22 C22           -6.5823    -7.4517     1.3501 C.ar    
  23 C23           -5.4563    -6.7052     1.0655 C.ar    
  24 Cl24          -6.4273    -8.9789     2.1608 Cl      
  25 Cl25           1.8270    -4.8214    -0.6288 Cl      
  26 H26           -1.3036     1.8621     0.8640 H       
  27 H27           -1.4625    -2.0387     2.6349 H       
  28 H28           -1.9794     1.3821     4.9351 H       
  29 H29           -0.7325    -5.9632    -0.1320 H       
  30 H30           -3.0898    -2.4795     0.6350 H       
  31 H31           -3.0649    -5.9985     0.8606 H       
  32 H32           -6.9543    -4.0627    -0.4489 H       
  33 H33            1.0721    -2.1009    -0.2714 H       
  34 H34            0.0682     0.3726    -0.9959 H       
  35 H35           -1.3292    -0.4385    -1.7426 H       
  36 H36           -1.5739     1.0073    -0.7337 H       
  37 H37           -8.9462    -5.4134     0.0583 H       
  38 H38           -8.7125    -7.5757     1.2070 H       
  39 H39           -4.4798    -7.0685     1.3500 H       
@<TRIPOS>BOND
   1    1    2 ar
   2    1    6 ar
   3    1   26 1
   4    2    3 ar
   5    2    7 1
   6    3    4 ar
   7    3   27 1
   8    4    5 ar
   9    5    6 ar
  10    5   28 1
  11    7    8 1
  12    7   19 1
  13    8   18 ar
  14    8   12 ar
  15    9   10 ar
  16    9   25 1
  17    9   18 ar
  18   10   11 ar
  19   10   29 1
  20   11   12 ar
  21   11   13 1
  22   12   30 1
  23   13   14 am
  24   13   31 1
  25   14   15 1
  26   14   16 2
  27   15   17 ar
  28   15   23 ar
  29   17   20 ar
  30   17   32 1
  31   18   33 1
  32   19   34 1
  33   19   35 1
  34   19   36 1
  35   20   21 ar
  36   20   37 1
  37   21   22 ar
  38   21   38 1
  39   22   23 ar
  40   22   24 1
  41   23   39 1

#	End of record

