#	Name: ASD00192035
#	Creating user name:	WinNT
#	Creation time:	15. 06. 2019 18:33

#	Modifying user name:	WinNT
#	Modification time:	15. 06. 2019 18:33

#	Program:	/corina/corina34_cracker 3.40 0067  02.08.2006

@<TRIPOS>MOLECULE
ASD00192035
  30   33    0    0    0
SMALL
NO_CHARGES


@<TRIPOS>ATOM
   1 N1            -0.0157     1.3039     0.0092 N.ar    
   2 C2             0.0021    -0.0041     0.0020 C.ar    
   3 C3             1.2121    -0.7189    -0.0134 C.ar    
   4 C4             2.4215    -0.0122    -0.0211 C.ar    
   5 C5             2.3732     1.3981    -0.0135 C.ar    
   6 C6             3.5397     2.1730    -0.0203 C.ar    
   7 C7             3.4478     3.5334    -0.0123 C.ar    
   8 C8             2.2069     4.1623     0.0030 C.ar    
   9 C9             1.0531     3.4377     0.0100 C.ar    
  10 C10            1.1084     2.0351     0.0024 C.ar    
  11 C11            2.8220    -2.1750    -0.0359 C.2     
  12 N12            1.5273    -2.0375    -0.0230 N.2     
  13 N13            3.4173    -0.9514    -0.0353 N.pl3   
  14 C14            3.5524    -3.4931    -0.0499 C.3     
  15 C15            3.9458    -3.9644    -1.4598 C.3     
  16 C16            5.2777    -4.4291    -0.8475 C.3     
  17 C17            5.0569    -3.3667     0.2422 C.3     
  18 H18           -0.9322    -0.5458     0.0084 H       
  19 H19            4.5081     1.6950    -0.0314 H       
  20 H20            4.3484     4.1294    -0.0175 H       
  21 H21            2.1574     5.2412     0.0099 H       
  22 H22            0.0979     3.9414     0.0220 H       
  23 H23            4.3714    -0.7769    -0.0436 H       
  24 H24            3.0539    -4.2596     0.5435 H       
  25 H25            3.3292    -4.7812    -1.8351 H       
  26 H26            4.0553    -3.1512    -2.1774 H       
  27 H27            5.2522    -5.4519    -0.4717 H       
  28 H28            6.1422    -4.2314    -1.4812 H       
  29 H29            5.4702    -2.3901    -0.0099 H       
  30 H30            5.3373    -3.7010     1.2411 H       
@<TRIPOS>BOND
   1    1    2 ar
   2    1   10 ar
   3    2    3 ar
   4    2   18 1
   5    3    4 ar
   6    3   12 1
   7    4    5 ar
   8    4   13 1
   9    5    6 ar
  10    5   10 ar
  11    6    7 ar
  12    6   19 1
  13    7    8 ar
  14    7   20 1
  15    8    9 ar
  16    8   21 1
  17    9   10 ar
  18    9   22 1
  19   11   12 2
  20   11   13 1
  21   11   14 1
  22   13   23 1
  23   14   15 1
  24   14   17 1
  25   14   24 1
  26   15   16 1
  27   15   25 1
  28   15   26 1
  29   16   17 1
  30   16   27 1
  31   16   28 1
  32   17   29 1
  33   17   30 1

#	End of record

