#	Name: ASD01812320
#	Creating user name:	WinNT
#	Creation time:	15. 06. 2019 19:28

#	Modifying user name:	WinNT
#	Modification time:	15. 06. 2019 19:28

#	Program:	/corina/corina34_cracker 3.40 0067  02.08.2006

@<TRIPOS>MOLECULE
ASD01812320
  55   58    0    0    0
SMALL
NO_CHARGES


@<TRIPOS>ATOM
   1 C1             0.3204     1.7097     0.0341 C.ar    
   2 C2             0.2130     0.3208     0.0185 C.ar    
   3 C3             1.3235    -0.4675    -0.0012 C.ar    
   4 C4             2.5963     0.1239    -0.0065 C.ar    
   5 C5             2.7119     1.5386     0.0087 C.ar    
   6 C6             1.5384     2.3207     0.0295 C.ar    
   7 C7             3.7660    -0.6593    -0.0262 C.ar    
   8 C8             4.9715    -0.0196    -0.0299 C.ar    
   9 C9             5.0172     1.3827    -0.0143 C.ar    
  10 N10            3.9161     2.1082     0.0042 N.ar    
  11 C11            6.3336     2.0644    -0.0181 C.2     
  12 O12            7.3569     1.4095    -0.0346 O.2     
  13 N13            6.3953     3.4107    -0.0033 N.am    
  14 C14            7.6962     4.0844    -0.0070 C.3     
  15 C15            3.6889    -2.1643    -0.0422 C.3     
  16 C16            3.5975    -2.6777     1.3717 C.2     
  17 C17            7.5550     5.4747     0.6202 C.3     
  18 C18            8.9004     6.2009     0.5406 C.3     
  19 O19            9.3179     6.2793    -0.8239 O.3     
  20 C20            9.5120     5.0087    -1.4485 C.3     
  21 C21            8.1912     4.2347    -1.4488 C.3     
  22 C22            2.3428    -2.9655     1.9379 C.2     
  23 C23            2.3102    -3.4419     3.2597 C.2     
  24 C24            3.4952    -3.5951     3.9100 C.2     
  25 N25            4.6891    -3.2811     3.2593 N.3     
  26 C26            4.7165    -2.8674     2.0946 C.2     
  27 O27            7.1632     5.3438     1.9882 O.3     
  28 F28            1.6216     3.6691     0.0439 F       
  29 O29            5.3726    -2.2852     4.0848 O.3     
  30 O30            3.5162    -4.0503     5.1843 O.3     
  31 C31            4.7968    -4.1861     5.8037 C.3     
  32 H32           -0.5760     2.3119     0.0454 H       
  33 H33           -0.7649    -0.1374     0.0226 H       
  34 H34            1.2251    -1.5429    -0.0123 H       
  35 H35            5.8878    -0.5911    -0.0445 H       
  36 H36            5.5784     3.9335     0.0099 H       
  37 H37            8.4129     3.4966     0.5666 H       
  38 H38            2.8063    -2.4770    -0.6001 H       
  39 H39            4.5820    -2.5688    -0.5186 H       
  40 H40            6.8009     6.0444     0.0773 H       
  41 H41            8.7951     7.2068     0.9469 H       
  42 H42            9.6446     5.6517     1.1174 H       
  43 H43            9.8473     5.1559    -2.4752 H       
  44 H44           10.2642     4.4440    -0.8977 H       
  45 H45            8.3473     3.2480    -1.8850 H       
  46 H46            7.4499     4.7793    -2.0335 H       
  47 H47            1.4323    -2.8245     1.3744 H       
  48 H48            1.3742    -3.6784     3.7440 H       
  49 H49            5.2629    -4.1107     3.2847 H       
  50 H50            5.6719    -2.6411     1.6446 H       
  51 H51            7.0549     6.1872     2.4487 H       
  52 H52            6.2211    -1.9918     3.7254 H       
  53 H53            5.4044    -4.8876     5.2321 H       
  54 H54            5.2918    -3.2153     5.8313 H       
  55 H55            4.6711    -4.5588     6.8203 H       
@<TRIPOS>BOND
   1    1    2 ar
   2    1    6 ar
   3    1   32 1
   4    2    3 ar
   5    2   33 1
   6    3    4 ar
   7    3   34 1
   8    4    5 ar
   9    4    7 ar
  10    5    6 ar
  11    5   10 ar
  12    6   28 1
  13    7    8 ar
  14    7   15 1
  15    8    9 ar
  16    8   35 1
  17    9   10 ar
  18    9   11 1
  19   11   12 2
  20   11   13 am
  21   13   14 1
  22   13   36 1
  23   14   17 1
  24   14   21 1
  25   14   37 1
  26   15   16 1
  27   15   38 1
  28   15   39 1
  29   16   22 2
  30   16   26 1
  31   17   18 1
  32   17   27 1
  33   17   40 1
  34   18   19 1
  35   18   41 1
  36   18   42 1
  37   19   20 1
  38   20   21 1
  39   20   43 1
  40   20   44 1
  41   21   45 1
  42   21   46 1
  43   22   23 1
  44   22   47 1
  45   23   24 2
  46   23   48 1
  47   24   30 1
  48   24   25 1
  49   25   26 2
  50   25   29 1
  51   25   49 1
  52   26   50 1
  53   27   51 1
  54   29   52 1
  55   30   31 1
  56   31   53 1
  57   31   54 1
  58   31   55 1

#	End of record

