#	Name: ASD03091301
#	Creating user name:	WinNT
#	Creation time:	15. 06. 2019 20:30

#	Modifying user name:	WinNT
#	Modification time:	15. 06. 2019 20:30

#	Program:	/corina/corina34_cracker 3.40 0067  02.08.2006

@<TRIPOS>MOLECULE
ASD03091301
  53   58    0    0    0
SMALL
NO_CHARGES


@<TRIPOS>ATOM
   1 N1            -0.1046     1.2724    -0.0332 N.2     
   2 C2            -0.0025    -0.0311    -0.0066 C.2     
   3 N3             1.2010    -0.6863     0.0352 N.am    
   4 C4             2.3600     0.0126     0.0510 C.2     
   5 C5             2.2675     1.4807     0.0216 C.ar    
   6 C6             3.4020     2.2871     0.0344 C.ar    
   7 C7             3.2568     3.6648     0.0049 C.ar    
   8 C8             1.9865     4.2403    -0.0371 C.ar    
   9 C9             0.8649     3.4626    -0.0496 C.ar    
  10 C10            0.9819     2.0687    -0.0210 C.ar    
  11 O11            3.4378    -0.5520     0.0885 O.2     
  12 C12            1.2327    -2.1507     0.0635 C.3     
  13 N13            7.0864     5.4091    -0.7783 N.3     
  14 C14            6.8431     4.5505     0.3909 C.3     
  15 C15            5.6113     3.6853     0.1751 C.3     
  16 N16            4.3888     4.4822     0.0178 N.3     
  17 C17            4.4590     5.3038    -1.1986 C.3     
  18 C18            4.9804     6.6949    -0.8703 C.3     
  19 C19            6.4659     6.7257    -0.5726 C.3     
  20 C20            6.7755     4.8353    -2.0700 C.3     
  21 C21            5.2876     4.5778    -2.2426 C.3     
  22 O22           -2.4875    -0.3318     0.0636 O.3     
  23 C23           -1.2399    -0.8338    -0.0219 C.2     
  24 N24           -1.2872    -2.1383    -0.1210 N.2     
  25 C25           -2.5834    -2.5311    -0.1028 C.ar    
  26 C26           -3.3579    -1.3631     0.0164 C.ar    
  27 C27           -4.7405    -1.4574     0.0615 C.ar    
  28 C28           -5.3453    -2.6954    -0.0108 C.ar    
  29 C29           -4.5808    -3.8473    -0.1285 C.ar    
  30 C30           -3.2171    -3.7753    -0.1749 C.ar    
  31 H31            4.3860     1.8432     0.0672 H       
  32 H32            1.8893     5.3157    -0.0597 H       
  33 H33           -0.1117     3.9226    -0.0816 H       
  34 H34            1.1616    -2.5353    -0.9539 H       
  35 H35            2.1673    -2.4852     0.5139 H       
  36 H36            0.3930    -2.5210     0.6515 H       
  37 H37            7.7093     3.9084     0.5513 H       
  38 H38            6.6929     5.1760     1.2708 H       
  39 H39            5.7566     3.0813    -0.7205 H       
  40 H40            5.4920     3.0211     1.0311 H       
  41 H41            3.4489     5.4059    -1.5953 H       
  42 H42            4.7798     7.3520    -1.7165 H       
  43 H43            4.4420     7.0739    -0.0016 H       
  44 H44            6.6151     7.0316     0.4629 H       
  45 H45            6.9454     7.4516    -1.2294 H       
  46 H46            7.1087     5.5197    -2.8502 H       
  47 H47            7.3121     3.8925    -2.1764 H       
  48 H48            5.1016     3.5069    -2.1605 H       
  49 H49            4.9825     4.9139    -3.2336 H       
  50 H50           -5.3419    -0.5651     0.1534 H       
  51 H51           -6.4222    -2.7685     0.0247 H       
  52 H52           -5.0680    -4.8095    -0.1841 H       
  53 H53           -2.6302    -4.6773    -0.2664 H       
@<TRIPOS>BOND
   1    1    2 2
   2    1   10 1
   3    2    3 1
   4    2   23 1
   5    3    4 am
   6    3   12 1
   7    4    5 1
   8    4   11 2
   9    5    6 ar
  10    5   10 ar
  11    6    7 ar
  12    6   31 1
  13    7    8 ar
  14    7   16 1
  15    8    9 ar
  16    8   32 1
  17    9   10 ar
  18    9   33 1
  19   12   34 1
  20   12   35 1
  21   12   36 1
  22   13   14 1
  23   13   19 1
  24   13   20 1
  25   14   15 1
  26   14   37 1
  27   14   38 1
  28   15   16 1
  29   15   39 1
  30   15   40 1
  31   16   17 1
  32   17   18 1
  33   17   21 1
  34   17   41 1
  35   18   19 1
  36   18   42 1
  37   18   43 1
  38   19   44 1
  39   19   45 1
  40   20   21 1
  41   20   46 1
  42   20   47 1
  43   21   48 1
  44   21   49 1
  45   22   23 1
  46   22   26 1
  47   23   24 2
  48   24   25 1
  49   25   26 ar
  50   25   30 ar
  51   26   27 ar
  52   27   28 ar
  53   27   50 1
  54   28   29 ar
  55   28   51 1
  56   29   30 ar
  57   29   52 1
  58   30   53 1

#	End of record

