#	Name: ASD08178526
#	Creating user name:	WinNT
#	Creation time:	15. 06. 2019 21:19

#	Modifying user name:	WinNT
#	Modification time:	15. 06. 2019 21:19

#	Program:	/corina/corina34_cracker 3.40 0067  02.08.2006

@<TRIPOS>MOLECULE
ASD08178526
  22   22    0    0    0
SMALL
NO_CHARGES


@<TRIPOS>ATOM
   1 C1            -0.0167     1.3827     0.0096 C.2     
   2 N2             0.0021    -0.0041     0.0020 N.pl3   
   3 N3             1.0241     2.1656     0.0039 N.2     
   4 S4            -1.4556     2.4049     0.0212 S.3     
   5 C5            -0.4055     3.8233     0.0246 C.2     
   6 N6             0.8198     3.4099     0.0126 N.2     
   7 C7            -0.8566     5.2612     0.0343 C.3     
   8 C8            -1.0152     5.7556    -1.4049 C.3     
   9 C9            -1.4733     7.2154    -1.3951 C.3     
  10 C10           -1.6319     7.7099    -2.8342 C.3     
  11 C11           -2.0726     9.1143    -2.8248 C.1     
  12 N12           -2.4127    10.1982    -2.8175 N.1     
  13 H13            0.8486    -0.4776    -0.0082 H       
  14 H14           -0.8313    -0.5004     0.0069 H       
  15 H15           -1.8124     5.3386     0.5525 H       
  16 H16           -0.1141     5.8715     0.5484 H       
  17 H17           -0.0594     5.6782    -1.9231 H       
  18 H18           -1.7578     5.1453    -1.9190 H       
  19 H19           -2.4291     7.2928    -0.8769 H       
  20 H20           -0.7308     7.8257    -0.8810 H       
  21 H21           -0.6761     7.6325    -3.3525 H       
  22 H22           -2.3744     7.0996    -3.3483 H       
@<TRIPOS>BOND
   1    1    2 1
   2    1    3 2
   3    1    4 1
   4    2   13 1
   5    2   14 1
   6    3    6 1
   7    4    5 1
   8    5    6 2
   9    5    7 1
  10    7    8 1
  11    7   15 1
  12    7   16 1
  13    8    9 1
  14    8   17 1
  15    8   18 1
  16    9   10 1
  17    9   19 1
  18    9   20 1
  19   10   11 1
  20   10   21 1
  21   10   22 1
  22   11   12 3

#	End of record

