#	Name: ASD01948100
#	Creating user name:	WinNT
#	Creation time:	15. 06. 2019 20:13

#	Modifying user name:	WinNT
#	Modification time:	15. 06. 2019 20:13

#	Program:	/corina/corina34_cracker 3.40 0067  02.08.2006

@<TRIPOS>MOLECULE
ASD01948100
  53   56    0    0    0
SMALL
NO_CHARGES


@<TRIPOS>ATOM
   1 C1             1.8002     1.4194    -1.0469 C.ar    
   2 C2             1.5985     0.0463    -1.1439 C.ar    
   3 C3             1.7717    -0.5930    -2.3637 C.ar    
   4 C4             2.1437     0.1352    -3.4776 C.ar    
   5 C5             2.3442     1.5000    -3.3790 C.ar    
   6 C6             2.1672     2.1427    -2.1665 C.ar    
   7 N7             1.2223    -0.6887    -0.0143 N.pl3   
   8 C8             3.6318    -2.2826    -0.4412 C.2     
   9 C9             2.3519    -2.8723    -0.2921 C.2     
  10 C10            1.1519    -2.0657    -0.0788 C.2     
  11 C11            6.0305    -2.5390    -0.7992 C.3     
  12 N12            4.6881    -3.1037    -0.6402 N.am    
  13 F13            1.6322     2.0459     0.1382 F       
  14 I14            2.9088     2.5982    -5.0714 I       
  15 C15            2.2379    -4.2686    -0.3510 C.2     
  16 N16            1.0112    -4.8541    -0.2088 N.am    
  17 C17           -0.0979    -4.1217    -0.0123 C.2     
  18 C18           -0.0590    -2.7265     0.0572 C.2     
  19 C19            4.5109    -4.4446    -0.6928 C.2     
  20 N20            3.3408    -5.0042    -0.5463 N.2     
  21 O21            3.7755    -1.0736    -0.3965 O.2     
  22 C22            0.9031    -6.3137    -0.2724 C.3     
  23 O23           -1.1703    -4.6914     0.1085 O.2     
  24 C24            6.7018    -2.4257     0.5710 C.3     
  25 O25            6.9031    -3.7328     1.1123 O.3     
  26 C26            7.5274    -3.7398     2.3977 C.3     
  27 O27            6.6166    -3.2281     3.3727 O.3     
  28 C28            7.1521    -3.1671     4.6962 C.3     
  29 C29            7.5268    -4.5775     5.1590 C.3     
  30 C30            8.5307    -5.1806     4.1717 C.3     
  31 C31            7.9172    -5.1732     2.7682 C.3     
  32 H32            1.6162    -1.6588    -2.4421 H       
  33 H33            2.2785    -0.3624    -4.4266 H       
  34 H34            2.3245     3.2086    -2.0926 H       
  35 H35            1.0109    -0.2306     0.8142 H       
  36 H36            6.6243    -3.1889    -1.4420 H       
  37 H37            5.9574    -1.5497    -1.2509 H       
  38 H38           -0.9682    -2.1657     0.2164 H       
  39 H39            5.3721    -5.0763    -0.8532 H       
  40 H40            1.0204    -6.7307     0.7278 H       
  41 H41           -0.0745    -6.5887    -0.6684 H       
  42 H42            1.6830    -6.7077    -0.9241 H       
  43 H43            7.6638    -1.9246     0.4640 H       
  44 H44            6.0643    -1.8492     1.2413 H       
  45 H45            8.4204    -3.1154     2.3715 H       
  46 H46            8.0403    -2.5353     4.7001 H       
  47 H47            6.4055    -2.7492     5.3715 H       
  48 H48            7.9761    -4.5280     6.1509 H       
  49 H49            6.6320    -5.1990     5.1941 H       
  50 H50            9.4450    -4.5872     4.1732 H       
  51 H51            8.7591    -6.2054     4.4644 H       
  52 H52            7.0303    -5.8068     2.7550 H       
  53 H53            8.6457    -5.5497     2.0502 H       
@<TRIPOS>BOND
   1    1    2 ar
   2    1   13 1
   3    1    6 ar
   4    2    3 ar
   5    2    7 1
   6    3    4 ar
   7    3   32 1
   8    4    5 ar
   9    4   33 1
  10    5    6 ar
  11    5   14 1
  12    6   34 1
  13    7   10 1
  14    7   35 1
  15    8    9 1
  16    8   21 2
  17    8   12 am
  18    9   10 1
  19    9   15 2
  20   10   18 2
  21   11   12 1
  22   11   24 1
  23   11   36 1
  24   11   37 1
  25   12   19 1
  26   15   16 1
  27   15   20 1
  28   16   17 am
  29   16   22 1
  30   17   18 1
  31   17   23 2
  32   18   38 1
  33   19   20 2
  34   19   39 1
  35   22   40 1
  36   22   41 1
  37   22   42 1
  38   24   25 1
  39   24   43 1
  40   24   44 1
  41   25   26 1
  42   26   27 1
  43   26   31 1
  44   26   45 1
  45   27   28 1
  46   28   29 1
  47   28   46 1
  48   28   47 1
  49   29   30 1
  50   29   48 1
  51   29   49 1
  52   30   31 1
  53   30   50 1
  54   30   51 1
  55   31   52 1
  56   31   53 1

#	End of record

