#	Name: ASD01180015
#	Creating user name:	WinNT
#	Creation time:	15. 06. 2019 19:06

#	Modifying user name:	WinNT
#	Modification time:	15. 06. 2019 19:06

#	Program:	/corina/corina34_cracker 3.40 0067  02.08.2006

@<TRIPOS>MOLECULE
ASD01180015
  21   22    0    0    0
SMALL
NO_CHARGES


@<TRIPOS>ATOM
   1 N1            -0.0163     1.2982     0.1324 N.ar    
   2 C2             0.0201    -0.0207     0.1330 C.ar    
   3 C3             1.2432    -0.7011    -0.0025 C.ar    
   4 N4             2.3660    -0.0368    -0.1318 N.ar    
   5 C5             2.3517     1.3023    -0.1353 C.ar    
   6 C6             3.5414     2.0368    -0.2719 C.ar    
   7 C7             3.4990     3.3985    -0.2719 C.ar    
   8 C8             2.2875     4.0776    -0.1375 C.ar    
   9 C9             1.1151     3.3968    -0.0026 C.ar    
  10 C10            1.1214     1.9922     0.0013 C.ar    
  11 C11            1.2636    -2.2080     0.0015 C.3     
  12 F12            0.5108    -2.6874    -1.0759 F       
  13 F13            2.5835    -2.6568    -0.1154 F       
  14 F14            0.7154    -2.6786     1.1995 F       
  15 N15           -1.1572    -0.7416     0.2687 N.pl3   
  16 Cl16           2.2740     5.8136    -0.1416 Cl      
  17 Cl17           4.9723     4.3009    -0.4410 Cl      
  18 H18            4.4861     1.5240    -0.3760 H       
  19 H19            0.1845     3.9350     0.1014 H       
  20 H20           -1.9913    -0.2793     0.4461 H       
  21 H21           -1.1463    -1.7080     0.1862 H       
@<TRIPOS>BOND
   1    1    2 ar
   2    1   10 ar
   3    2    3 ar
   4    2   15 1
   5    3    4 ar
   6    3   11 1
   7    4    5 ar
   8    5    6 ar
   9    5   10 ar
  10    6    7 ar
  11    6   18 1
  12    7    8 ar
  13    7   17 1
  14    8    9 ar
  15    8   16 1
  16    9   10 ar
  17    9   19 1
  18   11   12 1
  19   11   13 1
  20   11   14 1
  21   15   20 1
  22   15   21 1

#	End of record

