#	Name: ASD03330637
#	Creating user name:	WinNT
#	Creation time:	15. 06. 2019 20:37

#	Modifying user name:	WinNT
#	Modification time:	15. 06. 2019 20:37

#	Program:	/corina/corina34_cracker 3.40 0067  02.08.2006

@<TRIPOS>MOLECULE
ASD03330637
  70   72    0    0    0
SMALL
NO_CHARGES


@<TRIPOS>ATOM
   1 C1            -1.1627     1.7964     1.2897 C.2     
   2 N2            -1.4716     0.5119     1.5801 N.pl3   
   3 C3             0.1539     1.8237     0.9367 C.2     
   4 N4             0.6229     0.5601     0.9995 N.2     
   5 C5            -0.3483    -0.2368     1.3798 C.2     
   6 C6            -0.2430    -1.7007     1.5609 C.ar    
   7 C7             0.9267     3.0195     0.5550 C.2     
   8 O8             0.3892     4.1103     0.5359 O.2     
   9 C9             2.9968     4.0924    -0.1524 C.3     
  10 N10            2.2288     2.9040     0.2271 N.am    
  11 C11            2.7976     4.3739    -1.6430 C.3     
  12 C12            1.3034     4.5155    -1.9400 C.3     
  13 C13            3.5172     5.6711    -2.0177 C.3     
  14 C14            3.3730     3.2167    -2.4619 C.3     
  15 C15            4.4592     3.8545     0.1229 C.2     
  16 N16            5.3320     4.8797     0.0617 N.am    
  17 O17            4.8508     2.7404     0.3994 O.2     
  18 C18            6.7629     4.6364     0.2608 C.3     
  19 C19           -2.7789     0.0346     2.0396 C.3     
  20 C20           -3.8737     0.6332     1.1512 C.3     
  21 C21           -4.3021     1.9888     1.7043 C.3     
  22 N22           -3.1708     2.6860     2.3197 N.3     
  23 C23           -2.1149     2.9633     1.3347 C.3     
  24 C24           -3.6108     3.9215     2.9816 C.3     
  25 C25           -1.0458    -2.3462     2.5020 C.ar    
  26 C26           -0.9454    -3.7129     2.6690 C.ar    
  27 C27           -0.0384    -4.4436     1.8928 C.ar    
  28 C28            0.7616    -3.7882     0.9526 C.ar    
  29 C29            0.6563    -2.4370     0.7854 C.ar    
  30 C30            0.0735    -5.9050     2.0674 C.2     
  31 F31           -1.7200    -4.3430     3.5791 F       
  32 N32            0.0526    -6.7158     0.9910 N.am    
  33 O33            0.1846    -6.3773     3.1822 O.2     
  34 C34            0.0608    -8.1699     1.1691 C.3     
  35 C35            0.0215    -6.1430    -0.3570 C.3     
  36 H36            2.6524     4.9482     0.4282 H       
  37 H37            2.6575     2.0340     0.2423 H       
  38 H38            0.8935     5.3400    -1.3566 H       
  39 H39            1.1615     4.7161    -3.0020 H       
  40 H40            0.7907     3.5914    -1.6731 H       
  41 H41            4.5801     5.5740    -1.7963 H       
  42 H42            3.3841     5.8662    -3.0818 H       
  43 H43            3.1002     6.4973    -1.4418 H       
  44 H44            2.8603     2.2926    -2.1950 H       
  45 H45            3.2311     3.4172    -3.5239 H       
  46 H46            4.4375     3.1158    -2.2503 H       
  47 H47            5.0127     5.7786    -0.1142 H       
  48 H48            7.3067     5.5772     0.1756 H       
  49 H49            6.9248     4.2115     1.2514 H       
  50 H50            7.1218     3.9395    -0.4966 H       
  51 H51           -2.8124    -1.0530     1.9762 H       
  52 H52           -2.9376     0.3452     3.0723 H       
  53 H53           -3.4902     0.7596     0.1387 H       
  54 H54           -4.7322    -0.0381     1.1317 H       
  55 H55           -4.6989     2.5977     0.8920 H       
  56 H56           -5.0808     1.8402     2.4524 H       
  57 H57           -1.5739     3.8641     1.6244 H       
  58 H58           -2.5626     3.1064     0.3513 H       
  59 H59           -4.3363     3.6790     3.7582 H       
  60 H60           -2.7512     4.4194     3.4301 H       
  61 H61           -4.0715     4.5826     2.2477 H       
  62 H62           -1.7439    -1.7779     3.0987 H       
  63 H63            1.4617    -4.3522     0.3541 H       
  64 H64            1.2764    -1.9347     0.0577 H       
  65 H65           -0.9646    -8.5336     1.2356 H       
  66 H66            0.5577    -8.6372     0.3189 H       
  67 H67            0.5954    -8.4208     2.0852 H       
  68 H68            1.0407    -6.0248    -0.7251 H       
  69 H69           -0.5300    -6.8079    -1.0217 H       
  70 H70           -0.4692    -5.1702    -0.3272 H       
@<TRIPOS>BOND
   1    1    2 1
   2    1    3 2
   3    1   23 1
   4    2   19 1
   5    2    5 1
   6    3    4 1
   7    3    7 1
   8    4    5 2
   9    5    6 1
  10    6   25 ar
  11    6   29 ar
  12    7    8 2
  13    7   10 am
  14    9   10 1
  15    9   11 1
  16    9   15 1
  17    9   36 1
  18   10   37 1
  19   11   12 1
  20   11   13 1
  21   11   14 1
  22   12   38 1
  23   12   39 1
  24   12   40 1
  25   13   41 1
  26   13   42 1
  27   13   43 1
  28   14   44 1
  29   14   45 1
  30   14   46 1
  31   15   16 am
  32   15   17 2
  33   16   18 1
  34   16   47 1
  35   18   48 1
  36   18   49 1
  37   18   50 1
  38   19   20 1
  39   19   51 1
  40   19   52 1
  41   20   21 1
  42   20   53 1
  43   20   54 1
  44   21   22 1
  45   21   55 1
  46   21   56 1
  47   22   23 1
  48   22   24 1
  49   23   57 1
  50   23   58 1
  51   24   59 1
  52   24   60 1
  53   24   61 1
  54   25   26 ar
  55   25   62 1
  56   26   27 ar
  57   26   31 1
  58   27   28 ar
  59   27   30 1
  60   28   29 ar
  61   28   63 1
  62   29   64 1
  63   30   32 am
  64   30   33 2
  65   32   34 1
  66   32   35 1
  67   34   65 1
  68   34   66 1
  69   34   67 1
  70   35   68 1
  71   35   69 1
  72   35   70 1

#	End of record

