#	Name: ASD03331631
#	Creating user name:	WinNT
#	Creation time:	15. 06. 2019 20:39

#	Modifying user name:	WinNT
#	Modification time:	15. 06. 2019 20:39

#	Program:	/corina/corina34_cracker 3.40 0067  02.08.2006

@<TRIPOS>MOLECULE
ASD03331631
  50   54    0    0    0
SMALL
NO_CHARGES


@<TRIPOS>ATOM
   1 C1             0.2598     1.6411    -0.7401 C.ar    
   2 C2             0.3824     0.2873    -0.8738 C.ar    
   3 C3             1.6006    -0.3370    -0.6408 C.ar    
   4 C4             2.7071     0.3960    -0.2713 C.ar    
   5 C5             2.6066     1.7762    -0.1292 C.ar    
   6 C6             1.3694     2.4050    -0.3661 C.ar    
   7 N7             3.5084     2.7578     0.2181 N.pl3   
   8 C8             2.8871     3.9855     0.2093 C.2     
   9 C9             1.5846     3.8326    -0.1373 C.2     
  10 C10            3.5385     5.2731     0.5307 C.ar    
  11 C11            0.5560     4.9266    -0.2650 C.3     
  12 C12            0.8727     5.7759    -1.4690 C.ar    
  13 C13           -0.8321     4.3048    -0.4305 C.3     
  14 C14            1.2003     7.1091    -1.3075 C.ar    
  15 C15            1.4908     7.8881    -2.4118 C.ar    
  16 C16            1.4541     7.3338    -3.6777 C.ar    
  17 C17            1.1275     6.0004    -3.8391 C.ar    
  18 C18            0.8412     5.2203    -2.7343 C.ar    
  19 C19            4.7504     5.5950    -0.0561 C.ar    
  20 C20            5.3632     6.8187     0.2533 C.ar    
  21 C21            4.7319     7.7059     1.1617 C.ar    
  22 C22            3.5004     7.3494     1.7411 C.ar    
  23 C23            2.9195     6.1639     1.4256 C.ar    
  24 N24           -1.1950     3.5875     0.7943 N.pl3   
  25 O25           -0.9659     4.0853     1.8821 O.2     
  26 O26           -1.7258     2.4935     0.7248 O.2     
  27 C27            6.5939     7.1817    -0.3227 C.ar    
  28 C28            7.1615     8.3762    -0.0017 C.ar    
  29 C29            6.5411     9.2477     0.8915 C.ar    
  30 C30            5.3494     8.9301     1.4679 C.ar    
  31 H31           -0.6899     2.1203    -0.9270 H       
  32 H32           -0.4750    -0.3023    -1.1628 H       
  33 H33            1.6814    -1.4084    -0.7500 H       
  34 H34            3.6498    -0.0996    -0.0920 H       
  35 H35            4.4413     2.6063     0.4364 H       
  36 H36            0.5719     5.5467     0.6313 H       
  37 H37           -1.5623     5.0913    -0.6208 H       
  38 H38           -0.8208     3.6088    -1.2693 H       
  39 H39            1.2289     7.5422    -0.3185 H       
  40 H40            1.7460     8.9300    -2.2857 H       
  41 H41            1.6804     7.9426    -4.5405 H       
  42 H42            1.0985     5.5674    -4.8280 H       
  43 H43            0.5896     4.1775    -2.8601 H       
  44 H44            5.2204     4.9098    -0.7460 H       
  45 H45            3.0150     8.0211     2.4336 H       
  46 H46            1.9719     5.8993     1.8712 H       
  47 H47            7.0862     6.5156    -1.0159 H       
  48 H48            8.1066     8.6526    -0.4453 H       
  49 H49            7.0128    10.1896     1.1297 H       
  50 H50            4.8811     9.6160     2.1582 H       
@<TRIPOS>BOND
   1    1    2 ar
   2    1    6 ar
   3    1   31 1
   4    2    3 ar
   5    2   32 1
   6    3    4 ar
   7    3   33 1
   8    4    5 ar
   9    4   34 1
  10    5    7 1
  11    5    6 ar
  12    6    9 1
  13    7    8 1
  14    7   35 1
  15    8    9 2
  16    8   10 1
  17    9   11 1
  18   10   19 ar
  19   10   23 ar
  20   11   13 1
  21   11   12 1
  22   11   36 1
  23   12   14 ar
  24   12   18 ar
  25   13   24 1
  26   13   37 1
  27   13   38 1
  28   14   15 ar
  29   14   39 1
  30   15   16 ar
  31   15   40 1
  32   16   17 ar
  33   16   41 1
  34   17   18 ar
  35   17   42 1
  36   18   43 1
  37   19   20 ar
  38   19   44 1
  39   20   27 ar
  40   20   21 ar
  41   21   22 ar
  42   21   30 ar
  43   22   23 ar
  44   22   45 1
  45   23   46 1
  46   24   25 2
  47   24   26 2
  48   27   28 ar
  49   27   47 1
  50   28   29 ar
  51   28   48 1
  52   29   30 ar
  53   29   49 1
  54   30   50 1

#	End of record

