#	Name: ASD03570055
#	Creating user name:	WinNT
#	Creation time:	15. 06. 2019 20:43

#	Modifying user name:	WinNT
#	Modification time:	15. 06. 2019 20:43

#	Program:	/corina/corina34_cracker 3.40 0067  02.08.2006

@<TRIPOS>MOLECULE
ASD03570055
  47   50    0    0    0
SMALL
NO_CHARGES


@<TRIPOS>ATOM
   1 N1            -0.0158     1.3128     0.0093 N.ar    
   2 C2             0.0021    -0.0041     0.0020 C.ar    
   3 N3             1.1263    -0.6976    -0.0120 N.ar    
   4 C4             2.3089    -0.0911    -0.0200 C.ar    
   5 C5             1.1183     2.0056     0.0022 C.ar    
   6 N6             1.4386     3.3396     0.0063 N.pl3   
   7 C7             2.3412     1.3136    -0.0132 C.ar    
   8 N8             3.3262     2.2439    -0.0178 N.2     
   9 C9             2.7987     3.4334    -0.0062 C.2     
  10 C10            0.4927     4.4582     0.0213 C.3     
  11 C11            0.6838     5.3437    -1.2273 C.3     
  12 C12            0.4809     6.7987    -0.7696 C.3     
  13 C13            0.1736     6.7466     0.7413 C.3     
  14 C14            0.7930     5.4061     1.2088 C.3     
  15 N15            3.4814    -0.8262    -0.0343 N.pl3   
  16 C16            3.4280    -2.2902    -0.0407 C.3     
  17 C17           -0.5147     6.1493    -1.7327 C.3     
  18 H18            1.4831     5.0728    -1.9171 H       
  19 C19            1.3851     7.9250    -1.2744 C.3     
  20 O20           -1.2378     6.7504     0.9649 O.3     
  21 P21           -1.9885     7.8962     1.8109 P.3     
  22 O22           -1.8579     9.3042     1.0410 O.3     
  23 O23           -3.5443     7.5137     1.9698 O.3     
  24 O24           -1.3684     8.0069     3.1502 O.2     
  25 O25            0.9740     9.1633    -0.6917 O.3     
  26 P26            1.7054    10.5638    -1.0014 P.3     
  27 O27            1.5034    10.9432    -2.5530 O.3     
  28 O28            1.0666    11.7184    -0.0790 O.3     
  29 O29            3.1508    10.4410    -0.7077 O.2     
  30 I30           -1.8203    -1.0375     0.0139 I       
  31 H31            3.3560     4.3585    -0.0069 H       
  32 H32           -0.5317     4.0896     0.0744 H       
  33 H33            0.6445     7.5844     1.2555 H       
  34 H34            0.3069     5.0523     2.1180 H       
  35 H35            1.8677     5.5088     1.3590 H       
  36 H36            4.3385    -0.3720    -0.0400 H       
  37 H37            2.9095    -2.6388     0.8525 H       
  38 H38            2.8932    -2.6304    -0.9274 H       
  39 H39            4.4418    -2.6906    -0.0519 H       
  40 H40           -0.4970     6.4786    -2.7716 H       
  41 H41           -1.4974     5.8885    -1.3396 H       
  42 H42            2.4173     7.7160    -0.9931 H       
  43 H43            1.3108     7.9917    -2.3598 H       
  44 H44           -2.2440     9.3049     0.1544 H       
  45 H45           -4.0594     8.1613     2.4701 H       
  46 H46            0.5782    11.0400    -2.8169 H       
  47 H47            1.4601    12.5915    -0.2128 H       
@<TRIPOS>BOND
   1    1    2 ar
   2    1    5 ar
   3    2    3 ar
   4    2   30 1
   5    3    4 ar
   6    4    7 ar
   7    4   15 1
   8    5    7 ar
   9    5    6 1
  10    6    9 1
  11    6   10 1
  12    7    8 1
  13    8    9 2
  14    9   31 1
  15   10   11 1
  16   10   14 1
  17   10   32 1
  18   11   12 1
  19   11   17 1
  20   11   18 1
  21   12   17 1
  22   12   19 1
  23   12   13 1
  24   13   14 1
  25   13   20 1
  26   13   33 1
  27   14   34 1
  28   14   35 1
  29   15   16 1
  30   15   36 1
  31   16   37 1
  32   16   38 1
  33   16   39 1
  34   17   40 1
  35   17   41 1
  36   19   25 1
  37   19   42 1
  38   19   43 1
  39   20   21 1
  40   21   22 1
  41   21   23 1
  42   21   24 2
  43   22   44 1
  44   23   45 1
  45   25   26 1
  46   26   27 1
  47   26   28 1
  48   26   29 2
  49   27   46 1
  50   28   47 1

#	End of record

