#	Name: ASD06042001
#	Creating user name:	WinNT
#	Creation time:	15. 06. 2019 21:04

#	Modifying user name:	WinNT
#	Modification time:	15. 06. 2019 21:04

#	Program:	/corina/corina34_cracker 3.40 0067  02.08.2006

@<TRIPOS>MOLECULE
ASD06042001
  37   40    0    0    0
SMALL
NO_CHARGES


@<TRIPOS>ATOM
   1 C1             6.8201     0.6964    -0.7065 C.ar    
   2 C2             7.2057     0.3028     0.5782 C.ar    
   3 C3             6.3483     0.5243     1.6599 C.ar    
   4 C4             5.1282     1.1288     1.4561 C.ar    
   5 C5             4.7485     1.5188     0.1767 C.ar    
   6 C6             5.5983     1.3003    -0.9018 C.ar    
   7 C7             8.5133    -0.3448     0.7919 C.2     
   8 O8             8.8832    -0.7235     2.0310 O.3     
   9 O9             9.2572    -0.5369    -0.1495 O.2     
  10 O10            3.5450     2.1138    -0.0200 O.3     
  11 C11            3.4762     3.4645     0.0923 C.ar    
  12 C12            2.2466     4.1029     0.0066 C.ar    
  13 C13            2.1627     5.4792     0.1194 C.ar    
  14 C14            3.3144     6.2263     0.3196 C.ar    
  15 C15            4.5659     5.5802     0.4072 C.ar    
  16 C16            4.6397     4.2033     0.2989 C.ar    
  17 C17            3.5916     7.6668     0.4806 C.2     
  18 N18            4.9156     7.8338     0.6493 N.am    
  19 C19            5.5605     6.6536     0.6187 C.2     
  20 O20            6.7582     6.4963     0.7441 O.2     
  21 O21            2.7621     8.5542     0.4632 O.2     
  22 C22            5.5694     9.1307     0.8412 C.3     
  23 C23            5.4171    10.1701    -0.2712 C.3     
  24 C24            4.6705    10.3507     1.0520 C.3     
  25 H25            7.4816     0.5311    -1.5441 H       
  26 H26            6.6424     0.2214     2.6539 H       
  27 H27            4.4650     1.3000     2.2911 H       
  28 H28            5.2997     1.6047    -1.8940 H       
  29 H29            9.7493    -1.1439     2.1214 H       
  30 H30            1.3499     3.5216    -0.1496 H       
  31 H31            1.2034     5.9707     0.0516 H       
  32 H32            5.5950     3.7041     0.3657 H       
  33 H33            6.5171     9.1044     1.3791 H       
  34 H34            6.2644    10.8278    -0.4649 H       
  35 H35            4.8304     9.8890    -1.1458 H       
  36 H36            3.5927    10.1884     1.0479 H       
  37 H37            5.0267    11.1273     1.7289 H       
@<TRIPOS>BOND
   1    1    2 ar
   2    1    6 ar
   3    1   25 1
   4    2    3 ar
   5    2    7 1
   6    3    4 ar
   7    3   26 1
   8    4    5 ar
   9    4   27 1
  10    5    6 ar
  11    5   10 1
  12    6   28 1
  13    7    8 1
  14    7    9 2
  15    8   29 1
  16   10   11 1
  17   11   12 ar
  18   11   16 ar
  19   12   13 ar
  20   12   30 1
  21   13   14 ar
  22   13   31 1
  23   14   15 ar
  24   14   17 1
  25   15   16 ar
  26   15   19 1
  27   16   32 1
  28   17   18 am
  29   17   21 2
  30   18   19 am
  31   18   22 1
  32   19   20 2
  33   22   23 1
  34   22   24 1
  35   22   33 1
  36   23   24 1
  37   23   34 1
  38   23   35 1
  39   24   36 1
  40   24   37 1

#	End of record

