#	Name: ASD04880226
#	Creating user name:	WinNT
#	Creation time:	15. 06. 2019 20:53

#	Modifying user name:	WinNT
#	Modification time:	15. 06. 2019 20:53

#	Program:	/corina/corina34_cracker 3.40 0067  02.08.2006

@<TRIPOS>MOLECULE
ASD04880226
  58   62    0    0    0
SMALL
NO_CHARGES


@<TRIPOS>ATOM
   1 C1            -0.5730     1.3498     0.0262 C.3     
   2 O2            -0.6195    -0.0767    -0.0445 O.3     
   3 C3            -0.0241    -0.6608    -1.1170 C.ar    
   4 C4             0.5941     0.1272    -2.0730 C.ar    
   5 C5             1.2039    -0.4562    -3.1715 C.ar    
   6 O6             1.7724     0.3150    -4.1308 O.3     
   7 C7             2.9128    -0.1523    -4.8573 C.3     
   8 C8             2.7084    -1.5951    -5.2184 C.2     
   9 C9             3.2035    -2.3939    -6.2463 C.2     
  10 N10            2.6918    -3.6068    -6.0788 N.2     
  11 N11            1.9229    -3.6352    -5.0407 N.pl3   
  12 C12            1.2268    -4.7646    -4.5807 C.2     
  13 C13            1.8307    -6.0057    -4.4266 C.2     
  14 C14            1.0262    -6.9698    -3.9799 C.2     
  15 S15           -0.5900    -6.3251    -3.7258 S.3     
  16 C16           -0.0711    -4.7287    -4.2505 C.2     
  17 C17            1.8906    -2.4188    -4.4677 C.2     
  18 C18            1.1974    -1.8601    -3.2921 C.ar    
  19 C19            0.5755    -2.6519    -2.3421 C.ar    
  20 C20           -0.0355    -2.0541    -1.2437 C.ar    
  21 C21           -0.7016    -2.8912    -0.2135 C.2     
  22 C22           -0.5159    -2.8007     1.1795 C.2     
  23 N23           -1.2726    -3.7009     1.7497 N.2     
  24 N24           -1.9659    -4.3962     0.7515 N.pl3   
  25 H25           -2.5973    -5.1183     0.8951 H       
  26 C26           -1.6086    -3.8834    -0.4445 C.2     
  27 C27            4.1242    -1.9709    -7.3201 C.2     
  28 O28            4.5430    -0.8298    -7.3473 O.2     
  29 N29            4.5003    -2.8496    -8.2703 N.am    
  30 C30            4.1011    -4.2554    -8.1673 C.3     
  31 C31            5.3085    -2.3990    -9.4061 C.3     
  32 C32            5.6308    -0.9121    -9.2447 C.3     
  33 C33            6.6107    -3.2007    -9.4554 C.3     
  34 C34            4.5280    -2.6137   -10.7044 C.3     
  35 H35            0.4658     1.6786     0.0528 H       
  36 H36           -1.0659     1.7732    -0.8490 H       
  37 H37           -1.0837     1.6856     0.9287 H       
  38 H38            0.6005     1.2015    -1.9620 H       
  39 H39            3.0325     0.4374    -5.7662 H       
  40 H40            3.8045    -0.0544    -4.2382 H       
  41 H41            2.8730    -6.1767    -4.6518 H       
  42 H42            1.3222    -7.9930    -3.8014 H       
  43 H43           -0.7024    -3.8539    -4.3005 H       
  44 H44            0.5677    -3.7265    -2.4506 H       
  45 H45            0.1383    -2.1081     1.6881 H       
  46 H46           -1.9727    -4.2027    -1.4099 H       
  47 H47            3.1007    -4.3803    -8.5818 H       
  48 H48            4.8047    -4.8747    -8.7236 H       
  49 H49            4.1007    -4.5572    -7.1199 H       
  50 H50            6.1868    -0.7592    -8.3197 H       
  51 H51            6.2321    -0.5768   -10.0898 H       
  52 H52            4.7031    -0.3410    -9.2096 H       
  53 H53            6.3811    -4.2600    -9.5704 H       
  54 H54            7.2120    -2.8655   -10.3004 H       
  55 H55            7.1668    -3.0478    -8.5304 H       
  56 H56            3.6003    -2.0426   -10.6693 H       
  57 H57            5.1293    -2.2785   -11.5495 H       
  58 H58            4.2984    -3.6730   -10.8194 H       
@<TRIPOS>BOND
   1    1    2 1
   2    1   35 1
   3    1   36 1
   4    1   37 1
   5    2    3 1
   6    3   20 ar
   7    3    4 ar
   8    4    5 ar
   9    4   38 1
  10    5   18 ar
  11    5    6 1
  12    6    7 1
  13    7    8 1
  14    7   39 1
  15    7   40 1
  16    8   17 2
  17    8    9 1
  18    9   10 2
  19    9   27 1
  20   10   11 1
  21   11   12 1
  22   11   17 1
  23   12   16 2
  24   12   13 1
  25   13   14 2
  26   13   41 1
  27   14   15 1
  28   14   42 1
  29   15   16 1
  30   16   43 1
  31   17   18 1
  32   18   19 ar
  33   19   20 ar
  34   19   44 1
  35   20   21 1
  36   21   26 2
  37   21   22 1
  38   22   23 2
  39   22   45 1
  40   23   24 1
  41   24   25 1
  42   24   26 1
  43   26   46 1
  44   27   28 2
  45   27   29 am
  46   29   30 1
  47   29   31 1
  48   30   47 1
  49   30   48 1
  50   30   49 1
  51   31   32 1
  52   31   33 1
  53   31   34 1
  54   32   50 1
  55   32   51 1
  56   32   52 1
  57   33   53 1
  58   33   54 1
  59   33   55 1
  60   34   56 1
  61   34   57 1
  62   34   58 1

#	End of record

