#	Name: ASD01810682
#	Creating user name:	WinNT
#	Creation time:	15. 06. 2019 19:25

#	Modifying user name:	WinNT
#	Modification time:	15. 06. 2019 19:25

#	Program:	/corina/corina34_cracker 3.40 0067  02.08.2006

@<TRIPOS>MOLECULE
ASD01810682
  67   72    0    0    0
SMALL
NO_CHARGES


@<TRIPOS>ATOM
   1 C1            -0.1769     1.9871     0.5188 C.ar    
   2 C2             0.0703     0.6131     0.5332 C.ar    
   3 C3            -0.9735    -0.2809     0.3965 C.ar    
   4 C4            -2.2671     0.1766     0.2453 C.ar    
   5 C5            -2.5283     1.5488     0.2292 C.ar    
   6 C6            -1.4805     2.4557     0.3725 C.ar    
   7 C7            -3.9143     2.0374     0.0667 C.2     
   8 N8            -4.4467     2.8709     0.9824 N.am    
   9 O9            -4.5736     1.6875    -0.8926 O.2     
  10 C10           -5.8488     3.2980     0.8802 C.3     
  11 C11           -3.6378     3.3646     2.1052 C.3     
  12 C12           -4.3730     3.0599     3.4141 C.3     
  13 C13           -5.7848     3.6473     3.3503 C.3     
  14 C14           -6.5547     2.9941     2.2054 C.3     
  15 C15           -6.4994     3.3789     4.6497 C.ar    
  16 C16           -6.9558     4.4368     5.4158 C.ar    
  17 C17           -7.6112     4.1983     6.6060 C.ar    
  18 C18           -7.8135     2.8857     7.0370 C.ar    
  19 C19           -7.3503     1.8229     6.2588 C.ar    
  20 C20           -6.7011     2.0757     5.0682 C.ar    
  21 C21            0.9425     2.9433     0.6649 C.2     
  22 N22            2.1880     2.6154     0.9166 N.2     
  23 C23            2.9446     3.7250     0.9848 C.ar    
  24 C24            2.0982     4.8244     0.7569 C.ar    
  25 N25            0.8370     4.3016     0.5521 N.pl3   
  26 C26            4.3064     3.9748     1.2202 C.ar    
  27 C27            4.7521     5.2635     1.2188 C.ar    
  28 N28            3.9326     6.2806     1.0012 N.ar    
  29 C29            2.6401     6.1089     0.7732 C.ar    
  30 C30            1.4792     0.1045     0.6978 C.3     
  31 C31           -3.3998    -0.8062     0.0968 C.3     
  32 C32           -8.4926     2.6307     8.2717 C.1     
  33 N33           -9.0314     2.4284     9.2511 N.1     
  34 N34            1.8218     7.2108     0.5499 N.3     
  35 C35            2.5955     8.4648     0.6113 C.3     
  36 C36            1.7917     8.9550    -0.6012 C.3     
  37 C37            1.6466     7.4551    -0.8940 C.3     
  38 H38           -0.7767    -1.3428     0.4076 H       
  39 H39           -1.6769     3.5177     0.3607 H       
  40 H40           -5.8910     4.3688     0.6809 H       
  41 H41           -6.3385     2.7543     0.0723 H       
  42 H42           -2.6692     2.8649     2.1052 H       
  43 H43           -3.4960     4.4410     2.0078 H       
  44 H44           -4.4341     1.9807     3.5543 H       
  45 H45           -3.8309     3.5055     4.2481 H       
  46 H46           -5.7233     4.7230     3.1854 H       
  47 H47           -7.5679     3.3946     2.1733 H       
  48 H48           -6.5938     1.9161     2.3617 H       
  49 H49           -6.7983     5.4516     5.0814 H       
  50 H50           -7.9667     5.0250     7.2032 H       
  51 H51           -7.5031     0.8052     6.5866 H       
  52 H52           -6.3423     1.2546     4.4653 H       
  53 H53            0.0276     4.8037     0.3684 H       
  54 H54            4.9903     3.1585     1.4000 H       
  55 H55            5.7986     5.4594     1.3999 H       
  56 H56            1.7320     0.0710     1.7575 H       
  57 H57            1.5558    -0.8969     0.2742 H       
  58 H58            2.1690     0.7714     0.1806 H       
  59 H59           -3.7396    -1.1207     1.0836 H       
  60 H60           -4.2237    -0.3330    -0.4374 H       
  61 H61           -3.0554    -1.6756    -0.4631 H       
  62 H62            2.4127     9.0440     1.5164 H       
  63 H63            3.6570     8.3307     0.4031 H       
  64 H64            0.8562     9.4523    -0.3450 H       
  65 H65            2.3828     9.4985    -1.3384 H       
  66 H66            2.4549     7.0515    -1.5038 H       
  67 H67            0.6596     7.1785    -1.2646 H       
@<TRIPOS>BOND
   1    1    2 ar
   2    1   21 1
   3    1    6 ar
   4    2    3 ar
   5    2   30 1
   6    3    4 ar
   7    3   38 1
   8    4    5 ar
   9    4   31 1
  10    5    6 ar
  11    5    7 1
  12    6   39 1
  13    7    8 am
  14    7    9 2
  15    8   10 1
  16    8   11 1
  17   10   14 1
  18   10   40 1
  19   10   41 1
  20   11   12 1
  21   11   42 1
  22   11   43 1
  23   12   13 1
  24   12   44 1
  25   12   45 1
  26   13   14 1
  27   13   15 1
  28   13   46 1
  29   14   47 1
  30   14   48 1
  31   15   16 ar
  32   15   20 ar
  33   16   17 ar
  34   16   49 1
  35   17   18 ar
  36   17   50 1
  37   18   19 ar
  38   18   32 1
  39   19   20 ar
  40   19   51 1
  41   20   52 1
  42   21   22 2
  43   21   25 1
  44   22   23 1
  45   23   24 ar
  46   23   26 ar
  47   24   25 1
  48   24   29 ar
  49   25   53 1
  50   26   27 ar
  51   26   54 1
  52   27   28 ar
  53   27   55 1
  54   28   29 ar
  55   29   34 1
  56   30   56 1
  57   30   57 1
  58   30   58 1
  59   31   59 1
  60   31   60 1
  61   31   61 1
  62   32   33 3
  63   34   35 1
  64   34   37 1
  65   35   36 1
  66   35   62 1
  67   35   63 1
  68   36   37 1
  69   36   64 1
  70   36   65 1
  71   37   66 1
  72   37   67 1

#	End of record

