#	Name: ASD03540565
#	Creating user name:	WinNT
#	Creation time:	15. 06. 2019 20:43

#	Modifying user name:	WinNT
#	Modification time:	15. 06. 2019 20:43

#	Program:	/corina/corina34_cracker 3.40 0067  02.08.2006

@<TRIPOS>MOLECULE
ASD03540565
  54   57    0    0    0
SMALL
NO_CHARGES


@<TRIPOS>ATOM
   1 N1            -0.0161     1.3396     0.0094 N.am    
   2 C2             0.0021    -0.0041     0.0020 C.2     
   3 N3             1.1390    -0.7172    -0.0122 N.am    
   4 C4             2.3459    -0.1106    -0.0200 C.2     
   5 C5             2.3857     1.3633    -0.0129 C.ar    
   6 C6             3.5871     2.0607    -0.0197 C.ar    
   7 C7             3.5659     3.4548    -0.0121 C.ar    
   8 C8             2.3437     4.1382     0.0023 C.ar    
   9 C9             1.1622     3.4519     0.0094 C.ar    
  10 C10            1.1637     2.0628     0.0020 C.ar    
  11 C11            4.8337     4.2115    -0.0186 C.2     
  12 O12            5.8952     3.6190    -0.0307 O.2     
  13 N13            4.8141     5.5591    -0.0113 N.am    
  14 C14            6.0721     6.3100    -0.0178 C.3     
  15 C15            5.3725     9.8366     1.1562 C.ar    
  16 C16            5.6459     8.4749     1.1865 C.ar    
  17 C17            5.7753     7.7874    -0.0074 C.ar    
  18 C18            5.6259     8.4900    -1.1955 C.ar    
  19 C19            5.3549     9.8428    -1.1506 C.ar    
  20 N20            5.2370    10.4711     0.0038 N.ar    
  21 O21            5.2377    10.5209     2.3199 O.3     
  22 C22            4.9570    11.9186     2.2219 C.3     
  23 O23            3.3721    -0.7626    -0.0320 O.2     
  24 O24           -1.0576    -0.5997     0.0089 O.2     
  25 C25           -1.2992     2.0466     0.0193 C.3     
  26 C26            1.0697    -2.1806    -0.0189 C.3     
  27 C27            1.0327    -2.6752    -1.4420 C.ar    
  28 C28            2.2117    -2.9585    -2.1059 C.ar    
  29 C29            2.1784    -3.4121    -3.4110 C.ar    
  30 C30            0.9648    -3.5827    -4.0531 C.ar    
  31 C31           -0.2148    -3.2990    -3.3881 C.ar    
  32 C32           -0.1805    -2.8508    -2.0811 C.ar    
  33 Cl33           0.9222    -4.1519    -5.6925 Cl      
  34 H34            4.5271     1.5290    -0.0304 H       
  35 H35            2.3349     5.2181     0.0081 H       
  36 H36            0.2260     3.9901     0.0212 H       
  37 H37            3.9672     6.0319    -0.0017 H       
  38 H38            6.6548     6.0502     0.8660 H       
  39 H39            6.6399     6.0598    -0.9139 H       
  40 H40            5.7563     7.9598     2.1293 H       
  41 H41            5.7211     7.9836    -2.1447 H       
  42 H42            5.2381    10.3940    -2.0720 H       
  43 H43            5.7640    12.4143     1.6824 H       
  44 H44            4.0189    12.0641     1.6862 H       
  45 H45            4.8739    12.3436     3.2222 H       
  46 H46           -2.1134     1.3219     0.0192 H       
  47 H47           -1.3652     2.6671     0.9130 H       
  48 H48           -1.3736     2.6768    -0.8669 H       
  49 H49            1.9463    -2.5881     0.4847 H       
  50 H50            0.1684    -2.5041     0.5017 H       
  51 H51            3.1590    -2.8250    -1.6047 H       
  52 H52            3.0996    -3.6331    -3.9297 H       
  53 H53           -1.1625    -3.4319    -3.8888 H       
  54 H54           -1.1014    -2.6335    -1.5605 H       
@<TRIPOS>BOND
   1    1    2 am
   2    1   10 1
   3    1   25 1
   4    2    3 am
   5    2   24 2
   6    3    4 am
   7    3   26 1
   8    4    5 1
   9    4   23 2
  10    5    6 ar
  11    5   10 ar
  12    6    7 ar
  13    6   34 1
  14    7    8 ar
  15    7   11 1
  16    8    9 ar
  17    8   35 1
  18    9   10 ar
  19    9   36 1
  20   11   12 2
  21   11   13 am
  22   13   14 1
  23   13   37 1
  24   14   17 1
  25   14   38 1
  26   14   39 1
  27   15   16 ar
  28   15   20 ar
  29   15   21 1
  30   16   17 ar
  31   16   40 1
  32   17   18 ar
  33   18   19 ar
  34   18   41 1
  35   19   20 ar
  36   19   42 1
  37   21   22 1
  38   22   43 1
  39   22   44 1
  40   22   45 1
  41   25   46 1
  42   25   47 1
  43   25   48 1
  44   26   27 1
  45   26   49 1
  46   26   50 1
  47   27   28 ar
  48   27   32 ar
  49   28   29 ar
  50   28   51 1
  51   29   30 ar
  52   29   52 1
  53   30   31 ar
  54   30   33 1
  55   31   32 ar
  56   31   53 1
  57   32   54 1

#	End of record

