#	Name: ASD04590491
#	Creating user name:	WinNT
#	Creation time:	15. 06. 2019 20:50

#	Modifying user name:	WinNT
#	Modification time:	15. 06. 2019 20:50

#	Program:	/corina/corina34_cracker 3.40 0067  02.08.2006

@<TRIPOS>MOLECULE
ASD04590491
  59   64    0    0    0
SMALL
NO_CHARGES


@<TRIPOS>ATOM
   1 C1            -1.5086    -1.7147    -1.6482 C.ar    
   2 C2            -0.9904    -2.9681    -1.3559 C.ar    
   3 C3             1.2151    -2.0312    -1.2191 C.ar    
   4 C4             0.6844    -0.7633    -1.5161 C.ar    
   5 C5            -0.6786    -0.6161    -1.7286 C.ar    
   6 N6             2.5532    -1.8791    -1.0636 N.2     
   7 C7             2.8772    -0.6213    -1.2423 C.2     
   8 N8             1.7552     0.1104    -1.5249 N.pl3   
   9 C9             4.2473    -0.0755    -1.1519 C.2     
  10 C10            5.4184    -0.8129    -0.8616 C.2     
  11 C11            6.4633     0.0502    -0.8716 C.2     
  12 N12            5.9791     1.2874    -1.1565 N.pl3   
  13 N13            4.5936     1.1838    -1.3332 N.2     
  14 N14            5.4865    -2.1929    -0.6078 N.am    
  15 C15            6.6745    -2.7716    -0.3433 C.2     
  16 O16            7.6945    -2.1178    -0.4037 O.2     
  17 C17            0.3589    -3.1340    -1.1415 C.ar    
  18 C18            6.7359    -4.2310     0.0275 C.3     
  19 C19            6.0807    -4.5977     1.3342 C.ar    
  20 C20           -1.9124    -4.1572    -1.2721 C.3     
  21 N21           -2.0270    -4.7823    -2.5965 N.3     
  22 C22           -2.7221    -6.0748    -2.5107 C.3     
  23 C23           -0.7052    -4.9420    -3.2198 C.3     
  24 C24           -0.8755    -5.5404    -4.6187 C.3     
  25 O25           -1.5804    -6.7807    -4.5186 O.3     
  26 C26           -2.8723    -6.6618    -3.9167 C.3     
  27 C27            6.5869    -4.1066     2.5230 C.ar    
  28 C28            4.9700    -5.4207     1.3434 C.ar    
  29 C29            4.3690    -5.7571     2.5420 C.ar    
  30 C30            4.8789    -5.2709     3.7313 C.ar    
  31 C31            5.9859    -4.4430     3.7216 C.ar    
  32 C32            6.6650    -5.2524    -1.1094 C.3     
  33 C33            7.9880    -5.0110    -0.3783 C.3     
  34 H34           -2.5689    -1.5993    -1.8184 H       
  35 H35           -1.0888     0.3565    -1.9569 H       
  36 H36            1.7186     1.0639    -1.6992 H       
  37 H37            7.4972    -0.2008    -0.6857 H       
  38 H38            6.5027     2.1008    -1.2286 H       
  39 H39            4.6784    -2.7293    -0.6229 H       
  40 H40            0.7550    -4.1126    -0.9137 H       
  41 H41           -1.5095    -4.8801    -0.5628 H       
  42 H42           -2.8972    -3.8305    -0.9381 H       
  43 H43           -2.1430    -6.7591    -1.8905 H       
  44 H44           -3.7083    -5.9292    -2.0698 H       
  45 H45           -0.2190    -3.9695    -3.2967 H       
  46 H46           -0.0938    -5.6082    -2.6110 H       
  47 H47           -1.4415    -4.8495    -5.2436 H       
  48 H48            0.1049    -5.7137    -5.0623 H       
  49 H49           -3.3359    -7.6462    -3.8525 H       
  50 H50           -3.4963    -6.0035    -4.5212 H       
  51 H51            7.4522    -3.4603     2.5155 H       
  52 H52            4.5717    -5.8006     0.4142 H       
  53 H53            3.5009    -6.3995     2.5491 H       
  54 H54            4.4091    -5.5334     4.6677 H       
  55 H55            6.3843    -4.0631     4.6508 H       
  56 H56            6.1448    -6.1897    -0.9122 H       
  57 H57            6.5741    -4.8688    -2.1256 H       
  58 H58            8.7674    -4.4686    -0.9134 H       
  59 H59            8.3377    -5.7897     0.2996 H       
@<TRIPOS>BOND
   1    1    2 ar
   2    1    5 ar
   3    1   34 1
   4    2   17 ar
   5    2   20 1
   6    3    4 ar
   7    3    6 1
   8    3   17 ar
   9    4    5 ar
  10    4    8 1
  11    5   35 1
  12    6    7 2
  13    7    8 1
  14    7    9 1
  15    8   36 1
  16    9   10 1
  17    9   13 2
  18   10   11 2
  19   10   14 1
  20   11   12 1
  21   11   37 1
  22   12   13 1
  23   12   38 1
  24   14   15 am
  25   14   39 1
  26   15   16 2
  27   15   18 1
  28   17   40 1
  29   18   19 1
  30   18   32 1
  31   18   33 1
  32   19   27 ar
  33   19   28 ar
  34   20   21 1
  35   20   41 1
  36   20   42 1
  37   21   22 1
  38   21   23 1
  39   22   26 1
  40   22   43 1
  41   22   44 1
  42   23   24 1
  43   23   45 1
  44   23   46 1
  45   24   25 1
  46   24   47 1
  47   24   48 1
  48   25   26 1
  49   26   49 1
  50   26   50 1
  51   27   31 ar
  52   27   51 1
  53   28   29 ar
  54   28   52 1
  55   29   30 ar
  56   29   53 1
  57   30   31 ar
  58   30   54 1
  59   31   55 1
  60   32   33 1
  61   32   56 1
  62   32   57 1
  63   33   58 1
  64   33   59 1

#	End of record

