#	Name: ASD01917111
#	Creating user name:	WinNT
#	Creation time:	15. 06. 2019 20:08

#	Modifying user name:	WinNT
#	Modification time:	15. 06. 2019 20:08

#	Program:	/corina/corina34_cracker 3.40 0067  02.08.2006

@<TRIPOS>MOLECULE
ASD01917111
  42   43    0    0    0
SMALL
NO_CHARGES


@<TRIPOS>ATOM
   1 C1            -0.0184     1.5028     0.0103 C.3     
   2 C2             0.0021    -0.0041     0.0020 C.2     
   3 N3             0.0221    -0.7751     1.0570 N.2     
   4 C4             0.0362    -2.0604     0.6790 C.2     
   5 N5             0.0250    -2.1135    -0.6349 N.2     
   6 N6            -0.0030    -0.7860    -1.0925 N.pl3   
   7 C7            -0.0239    -0.3403    -2.4879 C.3     
   8 C8            -1.4516    -0.2136    -2.9534 C.2     
   9 O9            -1.7156     0.1834    -4.2082 O.3     
  10 O10           -2.3586    -0.4694    -2.1972 O.2     
  11 C11            0.0611    -3.2302     1.5917 C.ar    
  12 C12            0.0718    -3.0394     2.9717 C.ar    
  13 C13            0.0950    -4.1300     3.8169 C.ar    
  14 C14            0.1078    -5.4131     3.2949 C.ar    
  15 C15            0.0977    -5.6074     1.9230 C.ar    
  16 C16            0.0682    -4.5228     1.0709 C.ar    
  17 F17            0.1305    -6.4781     4.1259 F       
  18 C18            0.1121    -7.0056     1.3609 C.3     
  19 C19            1.4170     2.0324    -0.0006 C.3     
  20 C20            1.3963     3.5622     0.0079 C.3     
  21 C21            2.8317     4.0918    -0.0030 C.3     
  22 C22            2.8109     5.6216     0.0054 C.3     
  23 H23           -0.5455     1.8639    -0.8728 H       
  24 H24           -0.5286     1.8543     0.9071 H       
  25 H25            0.4715     0.6273    -2.5676 H       
  26 H26            0.4978    -1.0679    -3.1095 H       
  27 H27           -2.6466     0.2498    -4.4609 H       
  28 H28            0.0623    -2.0394     3.3795 H       
  29 H29            0.1037    -3.9830     4.8868 H       
  30 H30            0.0604    -4.6751     0.0017 H       
  31 H31           -0.9119    -7.3572     1.2350 H       
  32 H32            0.6170    -7.0037     0.3949 H       
  33 H33            0.6417    -7.6673     2.0463 H       
  34 H34            1.9442     1.6713     0.8825 H       
  35 H35            1.9272     1.6808    -0.8974 H       
  36 H36            0.8691     3.9233    -0.8752 H       
  37 H37            0.8861     3.9137     0.9047 H       
  38 H38            3.3588     3.7307     0.8801 H       
  39 H39            3.3418     3.7402    -0.8998 H       
  40 H40            2.2837     5.9827    -0.8777 H       
  41 H41            2.3007     5.9731     0.9022 H       
  42 H42            3.8335     5.9989    -0.0023 H       
@<TRIPOS>BOND
   1    1    2 1
   2    1   19 1
   3    1   23 1
   4    1   24 1
   5    2    3 2
   6    2    6 1
   7    3    4 1
   8    4    5 2
   9    4   11 1
  10    5    6 1
  11    6    7 1
  12    7    8 1
  13    7   25 1
  14    7   26 1
  15    8    9 1
  16    8   10 2
  17    9   27 1
  18   11   12 ar
  19   11   16 ar
  20   12   13 ar
  21   12   28 1
  22   13   14 ar
  23   13   29 1
  24   14   15 ar
  25   14   17 1
  26   15   16 ar
  27   15   18 1
  28   16   30 1
  29   18   31 1
  30   18   32 1
  31   18   33 1
  32   19   20 1
  33   19   34 1
  34   19   35 1
  35   20   21 1
  36   20   36 1
  37   20   37 1
  38   21   22 1
  39   21   38 1
  40   21   39 1
  41   22   40 1
  42   22   41 1
  43   22   42 1

#	End of record

