#	Name: ASD01882835
#	Creating user name:	WinNT
#	Creation time:	15. 06. 2019 19:45

#	Modifying user name:	WinNT
#	Modification time:	15. 06. 2019 19:45

#	Program:	/corina/corina34_cracker 3.40 0067  02.08.2006

@<TRIPOS>MOLECULE
ASD01882835
  59   62    0    0    0
SMALL
NO_CHARGES


@<TRIPOS>ATOM
   1 C1            -0.0166     1.3759     0.0096 C.ar    
   2 C2             0.0021    -0.0041     0.0020 C.ar    
   3 C3             1.2078    -0.6819    -0.0131 C.ar    
   4 C4             2.4007     0.0183    -0.0208 C.ar    
   5 C5             2.3938     1.3984    -0.0128 C.ar    
   6 C6             1.1821     2.0864     0.0020 C.ar    
   7 C7             1.1683     3.5701     0.0096 C.ar    
   8 C8             1.2218    -2.1888    -0.0209 C.3     
   9 C9            -0.0115     5.6569     0.0367 C.ar    
  10 C10           -0.0383     4.2761     0.0303 C.ar    
  11 C11            2.3600     4.2975     0.0021 C.ar    
  12 C12            2.3001     5.6868     0.0096 C.ar    
  13 N13            1.1304     6.3138     0.0241 N.ar    
  14 C14           -1.3085     6.4240     0.0590 C.3     
  15 C15            3.5566     6.4762     0.0018 C.ar    
  16 N16            4.7247     5.8498    -0.0176 N.ar    
  17 C17            3.4964     7.8680     0.0094 C.ar    
  18 C18            4.6749     8.5973     0.0020 C.ar    
  19 C19            5.8783     7.9123    -0.0126 C.ar    
  20 C20            5.8688     6.5180    -0.0252 C.ar    
  21 C21            7.1528     5.7752    -0.0466 C.ar    
  22 C22            9.5533     5.7719    -0.0689 C.ar    
  23 C23            8.3616     6.4682    -0.0489 C.ar    
  24 C24            7.1545     4.3815    -0.0587 C.ar    
  25 C25            8.3518     3.6957    -0.0787 C.ar    
  26 C26            9.5490     4.3890    -0.0862 C.ar    
  27 S27            8.3558     1.9338    -0.0940 S.o2    
  28 N28            8.3385     1.4573    -1.6799 N.am    
  29 O29            9.6128     1.5308     0.4323 O.2     
  30 O30            7.1135     1.5248     0.4614 O.2     
  31 C31            9.3864     1.7384    -2.4795 C.2     
  32 C32            9.3705     1.3048    -3.9227 C.3     
  33 O33           10.3421     2.3403    -2.0376 O.2     
  34 C34           10.6690     1.7451    -4.6017 C.3     
  35 F35            1.2133    -2.6485    -1.3422 F       
  36 F36            2.3747    -2.6478     0.6251 F       
  37 F37            0.0903    -2.6691     0.6473 F       
  38 H38           -0.9586     1.9042     0.0169 H       
  39 H39           -0.9264    -0.5558     0.0083 H       
  40 H40            3.3392    -0.5159    -0.0326 H       
  41 H41            3.3257     1.9442    -0.0181 H       
  42 H42           -0.9803     3.7478     0.0407 H       
  43 H43            3.3129     3.7894    -0.0090 H       
  44 H44           -1.6066     6.6039     1.0919 H       
  45 H45           -1.1754     7.3776    -0.4521 H       
  46 H46           -2.0815     5.8455    -0.4468 H       
  47 H47            2.5419     8.3731     0.0205 H       
  48 H48            4.6551     9.6771     0.0073 H       
  49 H49            6.8137     8.4520    -0.0187 H       
  50 H50           10.4909     6.3080    -0.0707 H       
  51 H51            8.3661     7.5481    -0.0354 H       
  52 H52            6.2205     3.8393    -0.0521 H       
  53 H53           10.4837     3.8482    -0.1026 H       
  54 H54            7.5741     0.9760    -2.0334 H       
  55 H55            9.2830     0.2196    -3.9751 H       
  56 H56            8.5216     1.7628    -4.4304 H       
  57 H57           11.5179     1.2871    -4.0941 H       
  58 H58           10.6576     1.4315    -5.6456 H       
  59 H59           10.7566     2.8303    -4.5493 H       
@<TRIPOS>BOND
   1    1    2 ar
   2    1    6 ar
   3    1   38 1
   4    2    3 ar
   5    2   39 1
   6    3    4 ar
   7    3    8 1
   8    4    5 ar
   9    4   40 1
  10    5    6 ar
  11    5   41 1
  12    6    7 1
  13    7   11 ar
  14    7   10 ar
  15    8   35 1
  16    8   36 1
  17    8   37 1
  18    9   10 ar
  19    9   13 ar
  20    9   14 1
  21   10   42 1
  22   11   12 ar
  23   11   43 1
  24   12   13 ar
  25   12   15 1
  26   14   44 1
  27   14   45 1
  28   14   46 1
  29   15   17 ar
  30   15   16 ar
  31   16   20 ar
  32   17   18 ar
  33   17   47 1
  34   18   19 ar
  35   18   48 1
  36   19   20 ar
  37   19   49 1
  38   20   21 1
  39   21   24 ar
  40   21   23 ar
  41   22   23 ar
  42   22   26 ar
  43   22   50 1
  44   23   51 1
  45   24   25 ar
  46   24   52 1
  47   25   26 ar
  48   25   27 1
  49   26   53 1
  50   27   28 am
  51   27   29 2
  52   27   30 2
  53   28   31 am
  54   28   54 1
  55   31   32 1
  56   31   33 2
  57   32   34 1
  58   32   55 1
  59   32   56 1
  60   34   57 1
  61   34   58 1
  62   34   59 1

#	End of record

