#	Name: ASD03082227
#	Creating user name:	WinNT
#	Creation time:	15. 06. 2019 20:27

#	Modifying user name:	WinNT
#	Modification time:	15. 06. 2019 20:27

#	Program:	/corina/corina34_cracker 3.40 0067  02.08.2006

@<TRIPOS>MOLECULE
ASD03082227
  44   46    0    0    0
SMALL
NO_CHARGES


@<TRIPOS>ATOM
   1 N1             0.1727     1.4132    -0.5525 N.am    
   2 N2             0.0605     0.0220    -0.3962 N.2     
   3 C3             1.1285    -0.3793     0.2517 C.2     
   4 N4             1.9078     0.6739     0.5137 N.2     
   5 C5             1.3518     1.7690     0.0377 C.2     
   6 N6             1.4062    -1.6973     0.6107 N.pl3   
   7 C7             0.4556    -2.6985     0.3860 C.ar    
   8 C8             0.8598    -4.0176     0.2235 C.ar    
   9 C9            -0.0804    -5.0043     0.0017 C.ar    
  10 C10           -1.4254    -4.6797    -0.0593 C.ar    
  11 C11           -1.8305    -3.3656     0.1020 C.ar    
  12 C12           -0.8940    -2.3762     0.3306 C.ar    
  13 C13            0.3574    -6.4355    -0.1747 C.3     
  14 F14            1.7506    -6.5128    -0.0737 F       
  15 F15           -0.2268    -7.2278     0.8194 F       
  16 F16           -0.0451    -6.8946    -1.4334 F       
  17 N17            3.7703     4.5740     0.0544 N.ar    
  18 C18            3.2740     3.3565    -0.0225 C.ar    
  19 C19            1.9047     3.1362     0.1257 C.ar    
  20 C20            1.0604     4.2310     0.3588 C.ar    
  21 C21            1.6227     5.4889     0.4325 C.ar    
  22 C22            2.9994     5.6293     0.2742 C.ar    
  23 C23           -0.7042     2.2319    -1.1667 C.2     
  24 N24           -1.7931     1.7196    -1.7735 N.am    
  25 F25           -2.3435    -5.6467    -0.2768 F       
  26 C26           -2.7463     2.6095    -2.4412 C.3     
  27 O27           -0.5130     3.4319    -1.1733 O.2     
  28 N28            3.5713     6.8913     0.3466 N.pl3   
  29 C29            2.7284     8.0647     0.5891 C.3     
  30 H30            2.2587    -1.9201     1.0163 H       
  31 H31            1.9085    -4.2711     0.2702 H       
  32 H32           -2.8798    -3.1147     0.0537 H       
  33 H33           -1.2108    -1.3521     0.4614 H       
  34 H34            3.9335     2.5206    -0.2031 H       
  35 H35           -0.0041     4.0932     0.4775 H       
  36 H36            1.0024     6.3549     0.6105 H       
  37 H37           -1.9457     0.7617    -1.7682 H       
  38 H38           -3.1554     3.3132    -1.7163 H       
  39 H39           -2.2372     3.1585    -3.2333 H       
  40 H40           -3.5554     2.0187    -2.8706 H       
  41 H41            4.5293     6.9967     0.2367 H       
  42 H42            3.3499     8.9599     0.6130 H       
  43 H43            1.9923     8.1547    -0.2098 H       
  44 H44            2.2158     7.9527     1.5445 H       
@<TRIPOS>BOND
   1    1    2 1
   2    1    5 1
   3    1   23 am
   4    2    3 2
   5    3    4 1
   6    3    6 1
   7    4    5 2
   8    5   19 1
   9    6    7 1
  10    6   30 1
  11    7    8 ar
  12    7   12 ar
  13    8    9 ar
  14    8   31 1
  15    9   10 ar
  16    9   13 1
  17   10   11 ar
  18   10   25 1
  19   11   12 ar
  20   11   32 1
  21   12   33 1
  22   13   14 1
  23   13   15 1
  24   13   16 1
  25   17   18 ar
  26   17   22 ar
  27   18   19 ar
  28   18   34 1
  29   19   20 ar
  30   20   21 ar
  31   20   35 1
  32   21   22 ar
  33   21   36 1
  34   22   28 1
  35   23   24 am
  36   23   27 2
  37   24   26 1
  38   24   37 1
  39   26   38 1
  40   26   39 1
  41   26   40 1
  42   28   29 1
  43   28   41 1
  44   29   42 1
  45   29   43 1
  46   29   44 1

#	End of record

