#	Name: ASD09740025
#	Creating user name:	WinNT
#	Creation time:	15. 06. 2019 21:22

#	Modifying user name:	WinNT
#	Modification time:	15. 06. 2019 21:22

#	Program:	/corina/corina34_cracker 3.40 0067  02.08.2006

@<TRIPOS>MOLECULE
ASD09740025
  48   49    0    0    0
SMALL
NO_CHARGES


@<TRIPOS>ATOM
   1 C1             4.9920     0.5156    -3.4480 C.ar    
   2 C2             4.7975     1.5086    -4.3898 C.ar    
   3 C3             4.3257     2.7544    -4.0005 C.ar    
   4 C4             4.0490     3.0037    -2.6655 C.ar    
   5 C5             4.2449     2.0053    -1.7206 C.ar    
   6 C6             4.7177     0.7594    -2.1168 C.ar    
   7 O7             4.1355     3.7296    -4.9278 O.3     
   8 S8             3.8952     2.3171    -0.0220 S.3     
   9 C9             3.4983     4.0338    -0.0077 C.ar    
  10 C10            1.8666     5.7895    -0.1033 C.ar    
  11 C11            2.1748     4.4433    -0.1153 C.ar    
  12 C12            4.5076     4.9809     0.1170 C.ar    
  13 C13            4.1924     6.3261     0.1283 C.ar    
  14 C14            2.8730     6.7301     0.0156 C.ar    
  15 Cl15           5.4518     7.5107     0.2847 Cl      
  16 C16            2.5325     8.1981     0.0283 C.3     
  17 C17            2.5323     8.7091     1.4704 C.3     
  18 C18            2.1866    10.1995     1.4833 C.3     
  19 C19            2.3080    10.7389     2.9099 C.3     
  20 N20            3.1140    10.9249     0.6049 N.3     
  21 C21            0.7534    10.3949     0.9844 C.3     
  22 O22           -0.1488     9.6893     1.8388 O.3     
  23 O23            1.9851    12.1309     2.9219 O.3     
  24 P24            2.0084    13.0249     4.2607 P.3     
  25 O25            1.4675    14.5043     3.9276 O.3     
  26 O26            1.1412    12.4017     5.2853 O.2     
  27 O27            3.5161    13.1176     4.8179 O.3     
  28 H28            5.3550    -0.4543    -3.7546 H       
  29 H29            5.0133     1.3148    -5.4301 H       
  30 H30            3.6821     3.9727    -2.3607 H       
  31 H31            4.8705    -0.0182    -1.3830 H       
  32 H32            3.2502     3.7351    -5.3168 H       
  33 H33            0.8381     6.1080    -0.1873 H       
  34 H34            1.3879     3.7096    -0.2086 H       
  35 H35            5.5369     4.6658     0.2053 H       
  36 H36            3.2735     8.7480    -0.5519 H       
  37 H37            1.5454     8.3459    -0.4097 H       
  38 H38            1.7913     8.1592     2.0506 H       
  39 H39            3.5194     8.5613     1.9084 H       
  40 H40            1.6198    10.2006     3.5616 H       
  41 H41            3.3289    10.5997     3.2653 H       
  42 H42            2.8669    11.9014     0.5457 H       
  43 H43            4.0679    10.8114     0.9137 H       
  44 H44            0.5071    11.4567     0.9936 H       
  45 H45            0.6670    10.0107    -0.0319 H       
  46 H46           -1.0776     9.7689     1.5817 H       
  47 H47            1.4539    15.0990     4.6900 H       
  48 H48            4.1409    13.5168     4.1972 H       
@<TRIPOS>BOND
   1    1    2 ar
   2    1    6 ar
   3    1   28 1
   4    2    3 ar
   5    2   29 1
   6    3    4 ar
   7    3    7 1
   8    4    5 ar
   9    4   30 1
  10    5    6 ar
  11    5    8 1
  12    6   31 1
  13    7   32 1
  14    8    9 1
  15    9   12 ar
  16    9   11 ar
  17   10   11 ar
  18   10   14 ar
  19   10   33 1
  20   11   34 1
  21   12   13 ar
  22   12   35 1
  23   13   14 ar
  24   13   15 1
  25   14   16 1
  26   16   17 1
  27   16   36 1
  28   16   37 1
  29   17   18 1
  30   17   38 1
  31   17   39 1
  32   18   19 1
  33   18   20 1
  34   18   21 1
  35   19   23 1
  36   19   40 1
  37   19   41 1
  38   20   42 1
  39   20   43 1
  40   21   22 1
  41   21   44 1
  42   21   45 1
  43   22   46 1
  44   23   24 1
  45   24   25 1
  46   24   26 2
  47   24   27 1
  48   25   47 1
  49   27   48 1

#	End of record

