#	Name: ASD01150954
#	Creating user name:	WinNT
#	Creation time:	15. 06. 2019 19:05

#	Modifying user name:	WinNT
#	Modification time:	15. 06. 2019 19:05

#	Program:	/corina/corina34_cracker 3.40 0067  02.08.2006

@<TRIPOS>MOLECULE
ASD01150954
  49   50    0    0    0
SMALL
NO_CHARGES


@<TRIPOS>ATOM
   1 N1            -0.0168     1.3865     0.0097 N.am    
   2 C2             0.0021    -0.0041     0.0020 C.2     
   3 N3             1.0916    -0.7758    -0.0121 N.2     
   4 C4             0.7450    -2.0469    -0.0158 C.2     
   5 N5            -0.6122    -2.1431    -0.0039 N.pl3   
   6 C6            -1.1094    -0.8378     0.0137 C.2     
   7 C7            -2.4630    -0.4461     0.0304 C.2     
   8 O8            -3.4367    -1.3818     0.0303 O.3     
   9 O9            -2.7546     0.7362     0.0448 O.2     
  10 C10           -4.7867    -0.9133     0.0476 C.3     
  11 S11            1.8633    -3.4083    -0.0338 S.3     
  12 C12            3.4402    -2.5197    -0.0431 C.3     
  13 C13           -1.3658    -3.3239    -0.0034 C.ar    
  14 C14           -1.3025    -4.1892     1.0808 C.ar    
  15 C15           -2.0467    -5.3527     1.0783 C.ar    
  16 C16           -2.8542    -5.6563    -0.0024 C.ar    
  17 C17           -2.9191    -4.7968    -1.0838 C.ar    
  18 C18           -2.1821    -3.6288    -1.0846 C.ar    
  19 C19            1.1411     2.0762     0.0023 C.2     
  20 O20            2.1995     1.4842    -0.0110 O.2     
  21 C21            1.1207     3.5830     0.0106 C.3     
  22 O22            2.4613     4.0776     0.0005 O.3     
  23 C23            2.5548     5.5036     0.0072 C.3     
  24 C24           -5.0437    -0.0524    -1.1908 C.3     
  25 C25           -5.7415    -2.1089     0.0448 C.3     
  26 C26           -5.0202    -0.0772     1.3075 C.3     
  27 H27           -0.8633     1.8600     0.0163 H       
  28 H28            3.4963    -1.8886    -0.9300 H       
  29 H29            3.5126    -1.8988     0.8499 H       
  30 H30            4.2612    -3.2366    -0.0547 H       
  31 H31           -0.6717    -3.9528     1.9250 H       
  32 H32           -1.9975    -6.0262     1.9211 H       
  33 H33           -3.4352    -6.5667    -0.0020 H       
  34 H34           -3.5502    -5.0370    -1.9267 H       
  35 H35           -2.2334    -2.9577    -1.9293 H       
  36 H36            0.5935     3.9441    -0.8725 H       
  37 H37            0.6105     3.9345     0.9074 H       
  38 H38            2.0574     5.9045    -0.8759 H       
  39 H39            2.0744     5.8949     0.9039 H       
  40 H40            3.6040     5.7989    -0.0012 H       
  41 H41           -4.8774    -0.6481    -2.0883 H       
  42 H42           -6.0734     0.3049    -1.1775 H       
  43 H43           -4.3635     0.7993    -1.1887 H       
  44 H44           -5.5584    -2.7222     0.9270 H       
  45 H45           -6.7711    -1.7515     0.0580 H       
  46 H46           -5.5751    -2.7046    -0.8528 H       
  47 H47           -4.3399     0.7745     1.3095 H       
  48 H48           -6.0498     0.2802     1.3207 H       
  49 H49           -4.8370    -0.6905     2.1897 H       
@<TRIPOS>BOND
   1    1    2 1
   2    1   19 am
   3    1   27 1
   4    2    3 1
   5    2    6 2
   6    3    4 2
   7    4    5 1
   8    4   11 1
   9    5    6 1
  10    5   13 1
  11    6    7 1
  12    7    8 1
  13    7    9 2
  14    8   10 1
  15   10   24 1
  16   10   25 1
  17   10   26 1
  18   11   12 1
  19   12   28 1
  20   12   29 1
  21   12   30 1
  22   13   14 ar
  23   13   18 ar
  24   14   15 ar
  25   14   31 1
  26   15   16 ar
  27   15   32 1
  28   16   17 ar
  29   16   33 1
  30   17   18 ar
  31   17   34 1
  32   18   35 1
  33   19   20 2
  34   19   21 1
  35   21   22 1
  36   21   36 1
  37   21   37 1
  38   22   23 1
  39   23   38 1
  40   23   39 1
  41   23   40 1
  42   24   41 1
  43   24   42 1
  44   24   43 1
  45   25   44 1
  46   25   45 1
  47   25   46 1
  48   26   47 1
  49   26   48 1
  50   26   49 1

#	End of record

