#	Name: ASD01883786
#	Creating user name:	WinNT
#	Creation time:	15. 06. 2019 19:47

#	Modifying user name:	WinNT
#	Modification time:	15. 06. 2019 19:47

#	Program:	/corina/corina34_cracker 3.40 0067  02.08.2006

@<TRIPOS>MOLECULE
ASD01883786
  61   65    0    0    0
SMALL
NO_CHARGES


@<TRIPOS>ATOM
   1 C1            -0.0168     1.3856     0.0097 C.ar    
   2 C2             0.0021    -0.0041     0.0020 C.ar    
   3 C3             1.2157    -0.6846    -0.0128 C.ar    
   4 C4             2.3947     0.0184    -0.0203 C.ar    
   5 C5             2.3848     1.4172    -0.0132 C.ar    
   6 C6             1.1631     2.0958     0.0022 C.ar    
   7 C7             3.8447    -0.3969    -0.0365 C.3     
   8 N8             4.6266     0.8448    -0.0379 N.am    
   9 C9             3.7803     1.8889    -0.0244 C.2     
  10 O10            4.1185     3.0567    -0.0214 O.2     
  11 O11           -1.1642    -0.6979     0.0095 O.3     
  12 C12           -2.3727     0.0646     0.0252 C.3     
  13 C13           -3.5557    -0.8689     0.0315 C.ar    
  14 C14           -4.0849    -1.3020     1.2301 C.ar    
  15 C15           -5.1791    -2.1649     1.2345 C.ar    
  16 C16           -5.7328    -2.5856     0.0273 C.ar    
  17 C17           -5.1954    -2.1461    -1.1659 C.ar    
  18 C18           -4.1127    -1.2857    -1.1643 C.ar    
  19 C19           -5.7522    -2.6343     2.5204 C.ar    
  20 C20           -5.1961    -2.2123     3.7278 C.ar    
  21 C21           -5.7261    -2.6473     4.9264 C.ar    
  22 C22           -6.8111    -3.5030     4.9385 C.ar    
  23 C23           -7.3776    -3.9327     3.7344 C.ar    
  24 C24           -6.8476    -3.4908     2.5226 C.ar    
  25 C25           -8.5371    -4.8471     3.7460 C.2     
  26 O26           -9.0812    -5.2597     2.5848 O.3     
  27 O27           -9.0002    -5.2272     4.8028 O.2     
  28 Cl28          -7.4709    -4.0455     6.4498 Cl      
  29 C29            6.0889     0.9321    -0.0517 C.3     
  30 C30            6.5765     0.9692    -1.4771 C.ar    
  31 C31            6.7285     2.1821    -2.1232 C.ar    
  32 C32            7.1753     2.2188    -3.4299 C.ar    
  33 C33            7.4716     1.0373    -4.0938 C.ar    
  34 C34            7.3183    -0.1785    -3.4434 C.ar    
  35 C35            6.8765    -0.2095    -2.1348 C.ar    
  36 O36            7.9109     1.0707    -5.3795 O.3     
  37 C37            8.1966    -0.1843    -6.0002 C.3     
  38 F38            7.0390    -0.9697    -6.0188 F       
  39 F39            8.6340     0.0328    -7.3113 F       
  40 F40            9.1966    -0.8447    -5.2783 F       
  41 H41           -0.9605     1.9106     0.0170 H       
  42 H42            1.2300    -1.7645    -0.0180 H       
  43 H43            1.1443     3.1757     0.0075 H       
  44 H44            4.0762    -0.9844     0.8519 H       
  45 H45            4.0588    -0.9754    -0.9352 H       
  46 H46           -2.3972     0.6883     0.9188 H       
  47 H47           -2.4142     0.6978    -0.8611 H       
  48 H48           -3.6515    -0.9731     2.1631 H       
  49 H49           -6.5806    -3.2545     0.0250 H       
  50 H50           -5.6237    -2.4719    -2.1023 H       
  51 H51           -3.6956    -0.9440    -2.1001 H       
  52 H52           -4.3480    -1.5436     3.7253 H       
  53 H53           -5.2907    -2.3176     5.8582 H       
  54 H54           -7.2809    -3.8192     1.5894 H       
  55 H55           -9.8388    -5.8579     2.6430 H       
  56 H56            6.4036     1.8395     0.4637 H       
  57 H57            6.5096     0.0628     0.4537 H       
  58 H58            6.4973     3.1016    -1.6060 H       
  59 H59            7.2935     3.1664    -3.9342 H       
  60 H60            7.5483    -1.0996    -3.9581 H       
  61 H61            6.7570    -1.1556    -1.6279 H       
@<TRIPOS>BOND
   1    1    2 ar
   2    1    6 ar
   3    1   41 1
   4    2    3 ar
   5    2   11 1
   6    3    4 ar
   7    3   42 1
   8    4    5 ar
   9    4    7 1
  10    5    6 ar
  11    5    9 1
  12    6   43 1
  13    7    8 1
  14    7   44 1
  15    7   45 1
  16    8    9 am
  17    8   29 1
  18    9   10 2
  19   11   12 1
  20   12   13 1
  21   12   46 1
  22   12   47 1
  23   13   14 ar
  24   13   18 ar
  25   14   15 ar
  26   14   48 1
  27   15   16 ar
  28   15   19 1
  29   16   17 ar
  30   16   49 1
  31   17   18 ar
  32   17   50 1
  33   18   51 1
  34   19   20 ar
  35   19   24 ar
  36   20   21 ar
  37   20   52 1
  38   21   22 ar
  39   21   53 1
  40   22   23 ar
  41   22   28 1
  42   23   24 ar
  43   23   25 1
  44   24   54 1
  45   25   26 1
  46   25   27 2
  47   26   55 1
  48   29   30 1
  49   29   56 1
  50   29   57 1
  51   30   31 ar
  52   30   35 ar
  53   31   32 ar
  54   31   58 1
  55   32   33 ar
  56   32   59 1
  57   33   34 ar
  58   33   36 1
  59   34   35 ar
  60   34   60 1
  61   35   61 1
  62   36   37 1
  63   37   38 1
  64   37   39 1
  65   37   40 1

#	End of record

