#	Name: ASD01028460
#	Creating user name:	WinNT
#	Creation time:	15. 06. 2019 18:57

#	Modifying user name:	WinNT
#	Modification time:	15. 06. 2019 18:57

#	Program:	/corina/corina34_cracker 3.40 0067  02.08.2006

@<TRIPOS>MOLECULE
ASD01028460
  53   58    0    0    0
SMALL
NO_CHARGES


@<TRIPOS>ATOM
   1 C1            -0.0171     1.4105     0.0098 C.ar    
   2 C2             0.0021    -0.0041     0.0020 C.ar    
   3 C3             1.2172     2.1062     0.0017 C.ar    
   4 C4             2.3840     1.3600    -0.0135 C.ar    
   5 C5             2.3156    -0.0268    -0.0203 C.ar    
   6 N6             1.1664    -0.6615    -0.0123 N.ar    
   7 N7             1.2559     3.4929     0.0084 N.pl3   
   8 C8             2.5445     4.1898    -0.0001 C.3     
   9 C9             2.3106     5.6785     0.0096 C.2     
  10 N10            2.1971     6.4603     1.1051 N.pl3   
  11 C11            1.9925     7.7372     0.6405 C.2     
  12 N12            1.9919     7.6685    -0.6809 N.2     
  13 N13            2.1863     6.4484    -1.0429 N.2     
  14 N14            2.2472     6.2146     2.4787 N.2     
  15 C15            2.0995     7.1988     3.3379 C.2     
  16 C16            1.8878     8.5209     2.8919 C.2     
  17 C17            1.8348     8.7907     1.5611 C.2     
  18 C18            2.1554     6.9162     4.7932 C.2     
  19 C19           -1.2223    -0.6977     0.0101 C.ar    
  20 C20           -2.3811     0.0331     0.0251 C.ar    
  21 C21           -2.3227     1.4307     0.0320 C.ar    
  22 N22           -1.1775     2.0678     0.0299 N.ar    
  23 O23           -3.5841    -0.5981     0.0329 O.3     
  24 C24           -4.7501     0.2280     0.0486 C.3     
  25 C25            2.3518     5.6951     5.3712 C.2     
  26 N26            2.3360     5.8692     6.7070 N.pl3   
  27 N27            2.1252     7.2282     6.9695 N.2     
  28 C28            2.0218     7.8601     5.8308 C.2     
  29 C29            2.5087     4.8173     7.7120 C.3     
  30 C30            1.2068     4.0752     8.0571 C.3     
  31 C31            2.0430     2.7850     8.0882 C.3     
  32 C32            3.0199     3.4883     7.1312 C.3     
  33 H33            3.3437     1.8552    -0.0203 H       
  34 H34            3.2319    -0.5984    -0.0326 H       
  35 H35            0.4298     4.0012     0.0188 H       
  36 H36            3.1169     3.9062     0.8831 H       
  37 H37            3.1002     3.9152    -0.8968 H       
  38 H38            1.7678     9.3193     3.6092 H       
  39 H39            1.6730     9.8005     1.2140 H       
  40 H40           -1.2479    -1.7774     0.0042 H       
  41 H41           -3.2420     1.9974     0.0439 H       
  42 H42           -4.7411     0.8522     0.9420 H       
  43 H43           -4.7579     0.8623    -0.8378 H       
  44 H44           -5.6406    -0.4006     0.0534 H       
  45 H45            2.4938     4.7590     4.8517 H       
  46 H46            1.8560     8.9201     5.7064 H       
  47 H47            3.0638     5.1552     8.5872 H       
  48 H48            0.7914     4.3499     9.0267 H       
  49 H49            0.4668     4.0967     7.2570 H       
  50 H50            2.4715     2.5659     9.0662 H       
  51 H51            1.5385     1.9269     7.6442 H       
  52 H52            2.7756     3.3494     6.0781 H       
  53 H53            4.0682     3.2892     7.3534 H       
@<TRIPOS>BOND
   1    1    2 ar
   2    1    3 ar
   3    1   22 ar
   4    2   19 ar
   5    2    6 ar
   6    3    4 ar
   7    3    7 1
   8    4    5 ar
   9    4   33 1
  10    5    6 ar
  11    5   34 1
  12    7    8 1
  13    7   35 1
  14    8    9 1
  15    8   36 1
  16    8   37 1
  17    9   10 1
  18    9   13 2
  19   10   11 1
  20   10   14 1
  21   11   12 2
  22   11   17 1
  23   12   13 1
  24   14   15 2
  25   15   16 1
  26   15   18 1
  27   16   17 2
  28   16   38 1
  29   17   39 1
  30   18   25 2
  31   18   28 1
  32   19   20 ar
  33   19   40 1
  34   20   21 ar
  35   20   23 1
  36   21   22 ar
  37   21   41 1
  38   23   24 1
  39   24   42 1
  40   24   43 1
  41   24   44 1
  42   25   26 1
  43   25   45 1
  44   26   27 1
  45   26   29 1
  46   27   28 2
  47   28   46 1
  48   29   30 1
  49   29   32 1
  50   29   47 1
  51   30   31 1
  52   30   48 1
  53   30   49 1
  54   31   32 1
  55   31   50 1
  56   31   51 1
  57   32   52 1
  58   32   53 1

#	End of record

