#	Name: ASD06620029
#	Creating user name:	WinNT
#	Creation time:	15. 06. 2019 21:07

#	Modifying user name:	WinNT
#	Modification time:	15. 06. 2019 21:07

#	Program:	/corina/corina34_cracker 3.40 0067  02.08.2006

@<TRIPOS>MOLECULE
ASD06620029
  41   44    0    0    0
SMALL
NO_CHARGES


@<TRIPOS>ATOM
   1 C1            -0.0510     1.3762     0.4587 C.ar    
   2 C2            -0.0100     0.0132     0.2074 C.ar    
   3 C3             1.2206    -0.6397     0.1123 C.ar    
   4 C4             2.3967     0.0776     0.2700 C.ar    
   5 C5             2.3459     1.4348     0.5204 C.ar    
   6 C6             1.1258     2.0823     0.6139 C.ar    
   7 C7            -0.3903    -2.1374    -0.1984 C.2     
   8 N8            -0.9943    -0.9520     0.0083 N.am    
   9 N9             0.9458    -1.9813    -0.1416 N.am    
  10 O10           -0.9647    -3.1901    -0.4048 O.2     
  11 C11           -2.4403    -0.7174     0.0219 C.3     
  12 C12           -3.4463    -0.1374     3.4574 C.2     
  13 C13           -3.6626     0.5285     4.6806 C.2     
  14 C14           -4.2228    -0.1493     5.7182 C.2     
  15 C15           -4.5772    -1.4992     5.5576 C.2     
  16 C16           -4.3639    -2.1238     4.3806 C.2     
  17 N17           -3.8026    -1.4555     3.3308 N.pl3   
  18 N18           -2.9260     0.2597     2.3049 N.2     
  19 C19           -2.9427    -0.7595     1.4421 C.2     
  20 C20           -3.4818    -1.8360     2.0562 C.2     
  21 I21           -3.7691    -3.7331     1.2152 I       
  22 C22            1.9411    -3.0419    -0.3175 C.3     
  23 C23            1.7333    -4.1183     0.7497 C.3     
  24 C24            1.7837    -3.6637    -1.7065 C.3     
  25 H25           -1.0009     1.8854     0.5285 H       
  26 H26            3.3504    -0.4240     0.1975 H       
  27 H27            3.2619     1.9936     0.6433 H       
  28 H28            1.0940     3.1440     0.8093 H       
  29 H29           -2.6539     0.2602    -0.4102 H       
  30 H30           -2.9393    -1.4901    -0.5630 H       
  31 H31           -3.3859     1.5664     4.7929 H       
  32 H32           -4.3942     0.3479     6.6615 H       
  33 H33           -5.0221    -2.0397     6.3800 H       
  34 H34           -4.6397    -3.1619     4.2680 H       
  35 H35            2.9418    -2.6210    -0.2191 H       
  36 H36            0.7327    -4.5392     0.6513 H       
  37 H37            2.4738    -4.9074     0.6189 H       
  38 H38            1.8455    -3.6753     1.7393 H       
  39 H39            2.5242    -4.4528    -1.8374 H       
  40 H40            0.7831    -4.0846    -1.8049 H       
  41 H41            1.9318    -2.8968    -2.4668 H       
@<TRIPOS>BOND
   1    1    2 ar
   2    1    6 ar
   3    1   25 1
   4    2    3 ar
   5    2    8 1
   6    3    4 ar
   7    3    9 1
   8    4    5 ar
   9    4   26 1
  10    5    6 ar
  11    5   27 1
  12    6   28 1
  13    7    8 am
  14    7    9 am
  15    7   10 2
  16    8   11 1
  17    9   22 1
  18   11   19 1
  19   11   29 1
  20   11   30 1
  21   12   13 1
  22   12   17 1
  23   12   18 2
  24   13   14 2
  25   13   31 1
  26   14   15 1
  27   14   32 1
  28   15   16 2
  29   15   33 1
  30   16   17 1
  31   16   34 1
  32   17   20 1
  33   18   19 1
  34   19   20 2
  35   20   21 1
  36   22   23 1
  37   22   24 1
  38   22   35 1
  39   23   36 1
  40   23   37 1
  41   23   38 1
  42   24   39 1
  43   24   40 1
  44   24   41 1

#	End of record

