#	Name: ASD07300740
#	Creating user name:	WinNT
#	Creation time:	15. 06. 2019 21:10

#	Modifying user name:	WinNT
#	Modification time:	15. 06. 2019 21:10

#	Program:	/corina/corina34_cracker 3.40 0067  02.08.2006

@<TRIPOS>MOLECULE
ASD07300740
  48   51    0    0    0
SMALL
NO_CHARGES


@<TRIPOS>ATOM
   1 C1             1.2174     2.2466    -0.2274 C.3     
   2 C2             1.0392     0.7558    -0.0971 C.2     
   3 C3             2.2373    -0.1554    -0.1689 C.3     
   4 C4             1.7837    -1.6079    -0.0095 C.3     
   5 O5            -0.0637     0.2915     0.0649 O.2     
   6 N6             2.9484    -2.4937    -0.0793 N.pl3   
   7 N7             3.8820    -2.5414    -1.1215 N.2     
   8 C8             4.7779    -3.4489    -0.8368 C.2     
   9 C9             4.4446    -4.0181     0.4092 C.2     
  10 C10            3.3098    -3.4006     0.8529 C.2     
  11 C11            6.3052    -6.9333     1.5643 C.2     
  12 C12            6.9114    -8.1762     1.2551 C.2     
  13 N13            5.6878    -6.2328     0.5569 N.pl3   
  14 N14            6.8705    -8.6300     0.0183 N.2     
  15 C15            6.2668    -7.9401    -0.9556 C.2     
  16 C16            5.6766    -6.7537    -0.7117 C.2     
  17 N17            6.1919    -6.2366     2.6825 N.2     
  18 C18            5.5192    -5.1145     2.4386 C.2     
  19 C19            5.1915    -5.0864     1.1114 C.2     
  20 N20            7.5436    -8.9097     2.2466 N.pl3   
  21 C21            7.4891    -8.4849     3.6544 C.3     
  22 C22            7.0494    -9.6826     4.5042 C.3     
  23 O23            7.8893   -10.8017     4.2107 O.3     
  24 C24            7.8101   -11.2538     2.8568 C.3     
  25 C25            8.2840   -10.1396     1.9235 C.3     
  26 C26            5.1807    -4.0521     3.4523 C.3     
  27 H27            2.2740     2.4754    -0.3666 H       
  28 H28            0.6514     2.6065    -1.0866 H       
  29 H29            0.8558     2.7362     0.6768 H       
  30 H30            2.7301    -0.0324    -1.1334 H       
  31 H31            2.9344     0.0973     0.6301 H       
  32 H32            1.2909    -1.7309     0.9550 H       
  33 H33            1.0866    -1.8606    -0.8085 H       
  34 H34            5.6262    -3.7165    -1.4493 H       
  35 H35            2.7940    -3.6030     1.7799 H       
  36 H36            6.2526    -8.3419    -1.9580 H       
  37 H37            5.1946    -6.2142    -1.5136 H       
  38 H38            8.4754    -8.1496     3.9752 H       
  39 H39            6.7707    -7.6727     3.7653 H       
  40 H40            7.1352    -9.4303     5.5611 H       
  41 H41            6.0144    -9.9335     4.2718 H       
  42 H42            8.4431   -12.1318     2.7285 H       
  43 H43            6.7778   -11.5104     2.6185 H       
  44 H44            8.0918   -10.4227     0.8885 H       
  45 H45            9.3517    -9.9738     2.0669 H       
  46 H46            5.9810    -3.3128     3.4849 H       
  47 H47            4.2473    -3.5649     3.1702 H       
  48 H48            5.0689    -4.5101     4.4351 H       
@<TRIPOS>BOND
   1    1    2 1
   2    1   27 1
   3    1   28 1
   4    1   29 1
   5    2    3 1
   6    2    5 2
   7    3    4 1
   8    3   30 1
   9    3   31 1
  10    4    6 1
  11    4   32 1
  12    4   33 1
  13    6    7 1
  14    6   10 1
  15    7    8 2
  16    8    9 1
  17    8   34 1
  18    9   10 2
  19    9   19 1
  20   10   35 1
  21   11   12 1
  22   11   13 1
  23   11   17 2
  24   12   14 2
  25   12   20 1
  26   13   16 1
  27   13   19 1
  28   14   15 1
  29   15   16 2
  30   15   36 1
  31   16   37 1
  32   17   18 1
  33   18   19 2
  34   18   26 1
  35   20   21 1
  36   20   25 1
  37   21   22 1
  38   21   38 1
  39   21   39 1
  40   22   23 1
  41   22   40 1
  42   22   41 1
  43   23   24 1
  44   24   25 1
  45   24   42 1
  46   24   43 1
  47   25   44 1
  48   25   45 1
  49   26   46 1
  50   26   47 1
  51   26   48 1

#	End of record

