#	Name: ASD02030242
#	Creating user name:	WinNT
#	Creation time:	15. 06. 2019 20:14

#	Modifying user name:	WinNT
#	Modification time:	15. 06. 2019 20:14

#	Program:	/corina/corina34_cracker 3.40 0067  02.08.2006

@<TRIPOS>MOLECULE
ASD02030242
  62   66    0    0    0
SMALL
NO_CHARGES


@<TRIPOS>ATOM
   1 N1            -0.0430     1.8297     0.0665 N.am    
   2 C2             0.1911     0.3980    -0.1686 C.3     
   3 C3            -0.5673    -0.4038     0.8964 C.3     
   4 N4            -1.9512     0.0871     0.9568 N.am    
   5 C5            -2.1852     1.5188     1.1918 C.3     
   6 C6            -1.4270     2.3197     0.1324 C.3     
   7 C7             0.9930     2.6773     0.2242 C.2     
   8 C8             2.3750     2.1546     0.2721 C.2     
   9 N9             3.4574     2.8526     0.5404 N.2     
  10 N10            2.7469     0.8797     0.0547 N.2     
  11 C11            4.0475     0.8256     0.1895 C.2     
  12 N12            4.4779     2.0673     0.4933 N.pl3   
  13 C13            5.8098     2.4404     0.7187 C.ar    
  14 O14            0.7910     3.8716     0.3271 O.2     
  15 C15           -2.9872    -0.7605     0.7991 C.2     
  16 C16           -2.7401    -2.1646     0.4420 C.2     
  17 O17           -4.1268    -0.3633     0.9523 O.2     
  18 C18            6.1207     3.7584     1.0249 C.ar    
  19 C19            7.4345     4.1230     1.2465 C.ar    
  20 C20            8.4394     3.1771     1.1636 C.ar    
  21 C21            8.1329     1.8634     0.8582 C.ar    
  22 C22            6.8208     1.4914     0.6417 C.ar    
  23 C23           -3.6823     1.8178     1.0904 C.3     
  24 C24           -3.7006    -3.0714     0.1262 C.2     
  25 C25            7.7728     5.5536     1.5785 C.3     
  26 C26           -2.9990    -4.3233    -0.1556 C.ar    
  27 C27           -1.6318    -4.0435     0.0231 C.ar    
  28 O28           -1.5243    -2.7458     0.3726 O.3     
  29 C29           -3.4098    -5.6052    -0.5304 C.ar    
  30 C30           -2.4656    -6.5935    -0.7237 C.ar    
  31 C31           -1.1127    -6.3138    -0.5461 C.ar    
  32 C32           -0.6979    -5.0537    -0.1764 C.ar    
  33 O33           -2.8574    -7.8435    -1.0881 O.3     
  34 C34           -5.1882    -2.8355     0.0769 C.3     
  35 C35           -1.8286    -8.8182    -1.2713 C.3     
  36 H36           -0.1726     0.1257    -1.1594 H       
  37 H37            1.2576     0.1850    -0.0963 H       
  38 H38           -0.5653    -1.4605     0.6291 H       
  39 H39           -0.0884    -0.2684     1.8662 H       
  40 H40           -1.8216     1.7911     2.1827 H       
  41 H41           -1.4297     3.3761     0.4010 H       
  42 H42           -1.9037     2.1852    -0.8385 H       
  43 H43            4.6642    -0.0542     0.0797 H       
  44 H44            5.3362     4.4978     1.0895 H       
  45 H45            9.4658     3.4646     1.3372 H       
  46 H46            8.9202     1.1269     0.7934 H       
  47 H47            6.5821     0.4655     0.4033 H       
  48 H48           -4.2069     1.3286     1.9111 H       
  49 H49           -3.8424     2.8945     1.1473 H       
  50 H50           -4.0641     1.4434     0.1406 H       
  51 H51            7.7428     5.6926     2.6592 H       
  52 H52            8.7721     5.7855     1.2100 H       
  53 H53            7.0484     6.2172     1.1065 H       
  54 H54           -4.4590    -5.8214    -0.6676 H       
  55 H55           -0.3813    -7.0936    -0.6993 H       
  56 H56            0.3542    -4.8499    -0.0422 H       
  57 H57           -5.4720    -2.5138    -0.9251 H       
  58 H58           -5.7110    -3.7596     0.3234 H       
  59 H59           -5.4576    -2.0625     0.7966 H       
  60 H60           -1.1476    -8.4849    -2.0544 H       
  61 H61           -1.2772    -8.9441    -0.3396 H       
  62 H62           -2.2763    -9.7692    -1.5598 H       
@<TRIPOS>BOND
   1    1    2 1
   2    1    7 am
   3    1    6 1
   4    2    3 1
   5    2   36 1
   6    2   37 1
   7    3    4 1
   8    3   38 1
   9    3   39 1
  10    4    5 1
  11    4   15 am
  12    5    6 1
  13    5   23 1
  14    5   40 1
  15    6   41 1
  16    6   42 1
  17    7    8 1
  18    7   14 2
  19    8    9 2
  20    8   10 1
  21    9   12 1
  22   10   11 2
  23   11   12 1
  24   11   43 1
  25   12   13 1
  26   13   18 ar
  27   13   22 ar
  28   15   16 1
  29   15   17 2
  30   16   24 2
  31   16   28 1
  32   18   19 ar
  33   18   44 1
  34   19   20 ar
  35   19   25 1
  36   20   21 ar
  37   20   45 1
  38   21   22 ar
  39   21   46 1
  40   22   47 1
  41   23   48 1
  42   23   49 1
  43   23   50 1
  44   24   26 1
  45   24   34 1
  46   25   51 1
  47   25   52 1
  48   25   53 1
  49   26   27 ar
  50   26   29 ar
  51   27   28 1
  52   27   32 ar
  53   29   30 ar
  54   29   54 1
  55   30   31 ar
  56   30   33 1
  57   31   32 ar
  58   31   55 1
  59   32   56 1
  60   33   35 1
  61   34   57 1
  62   34   58 1
  63   34   59 1
  64   35   60 1
  65   35   61 1
  66   35   62 1

#	End of record

