#	Name: ASD03092933
#	Creating user name:	WinNT
#	Creation time:	15. 06. 2019 20:33

#	Modifying user name:	WinNT
#	Modification time:	15. 06. 2019 20:33

#	Program:	/corina/corina34_cracker 3.40 0067  02.08.2006

@<TRIPOS>MOLECULE
ASD03092933
  53   56    0    0    0
SMALL
NO_CHARGES


@<TRIPOS>ATOM
   1 C1            -0.0071     1.4961     0.0276 C.3     
   2 C2             0.0088    -0.0108     0.0144 C.2     
   3 C3             0.0160    -0.8282    -1.1251 C.2     
   4 C4             0.0314    -2.1530    -0.6791 C.2     
   5 C5             0.0432    -3.3026    -1.4913 C.2     
   6 O6            -0.9995    -3.8631    -1.7661 O.2     
   7 C7             1.3487    -3.8382    -2.0200 C.3     
   8 C8             1.0985    -5.1555    -2.7570 C.3     
   9 C9             1.4031    -5.1954    -4.2558 C.3     
  10 C10            2.3199    -5.9215    -3.2692 C.3     
  11 N11            0.0334    -2.1310     0.7002 N.pl3   
  12 C12            0.0479    -3.3083     1.5719 C.3     
  13 C13            0.0249    -0.8328     1.1189 C.2     
  14 C14            0.0288    -0.3826     2.5264 C.ar    
  15 C15            0.8696     0.6575     2.9274 C.ar    
  16 C16            0.8683     1.0734     4.2423 C.ar    
  17 C17            0.0354     0.4617     5.1643 C.ar    
  18 Cl18           0.0391     0.9912     6.8175 Cl      
  19 C19           -0.8008    -0.5706     4.7726 C.ar    
  20 C20           -0.8124    -0.9919     3.4595 C.ar    
  21 C21            0.0082    -0.3737    -2.5351 C.ar    
  22 C22           -1.0862    -0.6511    -3.3541 C.ar    
  23 C23           -1.0876    -0.2251    -4.6665 C.ar    
  24 C24           -0.0062     0.4753    -5.1705 C.ar    
  25 C25            1.0822     0.7535    -4.3630 C.ar    
  26 C26            1.0926     0.3382    -3.0472 C.ar    
  27 S27           -0.0150     1.0149    -6.8478 S.o2    
  28 N28           -0.6931     2.5255    -6.8733 N.am    
  29 O29            1.3455     1.1794    -7.2236 O.2     
  30 O30           -0.9144     0.1596    -7.5398 O.2     
  31 H31            1.0167     1.8703     0.0243 H       
  32 H32           -0.5304     1.8617    -0.8559 H       
  33 H33           -0.5190     1.8462     0.9240 H       
  34 H34            1.7865    -3.1147    -2.7077 H       
  35 H35            2.0336    -4.0108    -1.1898 H       
  36 H36            0.2511    -5.7405    -2.3995 H       
  37 H37            0.7560    -5.8067    -4.8848 H       
  38 H38            1.7818    -4.2832    -4.7169 H       
  39 H39            3.3017    -5.4869    -3.0813 H       
  40 H40            2.2759    -7.0104    -3.2492 H       
  41 H41            1.0756    -3.6426     1.7140 H       
  42 H42           -0.3871    -3.0507     2.5376 H       
  43 H43           -0.5339    -4.1076     1.1129 H       
  44 H44            1.5198     1.1351     2.2094 H       
  45 H45            1.5185     1.8776     4.5537 H       
  46 H46           -1.4481    -1.0438     5.4962 H       
  47 H47           -1.4681    -1.7939     3.1543 H       
  48 H48           -1.9306    -1.1984    -2.9619 H       
  49 H49           -1.9344    -0.4393    -5.3017 H       
  50 H50            1.9234     1.3007    -4.7621 H       
  51 H51            1.9407     0.5602    -2.4165 H       
  52 H52           -0.4234     3.1668    -7.5492 H       
  53 H53           -1.3600     2.7689    -6.2124 H       
@<TRIPOS>BOND
   1    1    2 1
   2    1   31 1
   3    1   32 1
   4    1   33 1
   5    2   13 2
   6    2    3 1
   7    3    4 2
   8    3   21 1
   9    4    5 1
  10    4   11 1
  11    5    6 2
  12    5    7 1
  13    7    8 1
  14    7   34 1
  15    7   35 1
  16    8   10 1
  17    8    9 1
  18    8   36 1
  19    9   10 1
  20    9   37 1
  21    9   38 1
  22   10   39 1
  23   10   40 1
  24   11   12 1
  25   11   13 1
  26   12   41 1
  27   12   42 1
  28   12   43 1
  29   13   14 1
  30   14   20 ar
  31   14   15 ar
  32   15   16 ar
  33   15   44 1
  34   16   17 ar
  35   16   45 1
  36   17   18 1
  37   17   19 ar
  38   19   20 ar
  39   19   46 1
  40   20   47 1
  41   21   26 ar
  42   21   22 ar
  43   22   23 ar
  44   22   48 1
  45   23   24 ar
  46   23   49 1
  47   24   25 ar
  48   24   27 1
  49   25   26 ar
  50   25   50 1
  51   26   51 1
  52   27   28 am
  53   27   29 2
  54   27   30 2
  55   28   52 1
  56   28   53 1

#	End of record

