#	Name: ASD04882009
#	Creating user name:	WinNT
#	Creation time:	15. 06. 2019 20:53

#	Modifying user name:	WinNT
#	Modification time:	15. 06. 2019 20:53

#	Program:	/corina/corina34_cracker 3.40 0067  02.08.2006

@<TRIPOS>MOLECULE
ASD04882009
  74   78    0    0    0
SMALL
NO_CHARGES


@<TRIPOS>ATOM
   1 C1            -0.7130     2.6774     2.0387 C.ar    
   2 C2            -0.7511     1.3016     1.9074 C.ar    
   3 C3             0.4244     0.5817     1.7941 C.ar    
   4 C4             1.6406     1.2354     1.8117 C.ar    
   5 C5             1.6825     2.6178     1.9434 C.ar    
   6 C6             0.5001     3.3377     2.0570 C.ar    
   7 C7             0.5407     4.8373     2.2001 C.3     
   8 N8             2.9109     3.2822     1.9621 N.3     
   9 C9             3.0757     4.1184     0.7649 C.3     
  10 C10            4.3947     4.8886     0.8613 C.3     
  11 N11            5.5065     3.9365     0.9923 N.3     
  12 C12            5.3418     3.1003     2.1895 C.3     
  13 C13            4.0227     2.3301     2.0930 C.3     
  14 C14            6.7312     4.5989     1.0108 C.ar    
  15 C15            7.5067     4.5916     2.1641 C.ar    
  16 C16            8.7192     5.2452     2.1868 C.ar    
  17 C17            9.1728     5.9182     1.0494 C.ar    
  18 C18            8.3946     5.9271    -0.1121 C.ar    
  19 C19            7.1817     5.2654    -0.1325 C.ar    
  20 N20            6.3990     5.2719    -1.2944 N.am    
  21 C21            6.5080     6.2866    -2.1748 C.2     
  22 C22            5.6239     6.3424    -3.3410 C.2     
  23 O23            7.3414     7.1567    -2.0005 O.2     
  24 S24            4.3748     5.1682    -3.7313 S.3     
  25 C25            5.6337     7.3195    -4.2981 C.2     
  26 C26            4.6943     7.1234    -5.2839 C.2     
  27 C27            3.9404     6.0278    -5.1395 C.2     
  28 Br28           6.8190     8.7925    -4.2689 Br      
  29 C29           10.4708     6.6189     1.0742 C.2     
  30 N30           11.2200     6.6102     2.1945 N.am    
  31 O31           10.8647     7.2044     0.0839 O.2     
  32 C32           12.5090     7.3060     2.2192 C.3     
  33 C33           13.1509     7.1418     3.5983 C.3     
  34 C34           14.4970     7.8685     3.6240 C.3     
  35 N35           15.1116     7.7113     4.9446 N.am    
  36 C36           15.9363     6.7050     5.2824 C.2     
  37 C37           14.9111     8.6358     6.0666 C.3     
  38 C38           15.3682     7.8632     7.3239 C.3     
  39 C39           16.3738     6.8521     6.7231 C.3     
  40 O40           16.2791     5.8089     4.5404 O.2     
  41 H41           -1.6329     3.2370     2.1225 H       
  42 H42           -1.7010     0.7877     1.8937 H       
  43 H43            0.3911    -0.4930     1.6921 H       
  44 H44            2.5581     0.6727     1.7235 H       
  45 H45            0.5902     5.2953     1.2122 H       
  46 H46           -0.3584     5.1777     2.7137 H       
  47 H47            1.4196     5.1235     2.7778 H       
  48 H48            3.0884     3.4850    -0.1221 H       
  49 H49            2.2471     4.8233     0.6968 H       
  50 H50            4.5329     5.4874    -0.0389 H       
  51 H51            4.3712     5.5423     1.7332 H       
  52 H52            6.1703     2.3954     2.2575 H       
  53 H53            5.3290     3.7337     3.0765 H       
  54 H54            3.8845     1.7313     2.9933 H       
  55 H55            4.0462     1.6764     1.2211 H       
  56 H56            7.1578     4.0726     3.0447 H       
  57 H57            9.3195     5.2377     3.0846 H       
  58 H58            8.7426     6.4465    -0.9928 H       
  59 H59            5.7785     4.5462    -1.4653 H       
  60 H60            4.5731     7.8052    -6.1127 H       
  61 H61            3.1594     5.7282    -5.8227 H       
  62 H62           10.9058     6.1431     2.9845 H       
  63 H63           13.1657     6.8813     1.4599 H       
  64 H64           12.3540     8.3653     2.0143 H       
  65 H65           12.4941     7.5665     4.3576 H       
  66 H66           13.3058     6.0825     3.8032 H       
  67 H67           15.1537     7.4438     2.8648 H       
  68 H68           14.3421     8.9278     3.4192 H       
  69 H69           15.5192     9.5303     5.9317 H       
  70 H70           13.8579     8.9039     6.1508 H       
  71 H71           15.8623     8.5283     8.0322 H       
  72 H72           14.5287     7.3502     7.7931 H       
  73 H73           16.3085     5.8955     7.2413 H       
  74 H74           17.3885     7.2467     6.7749 H       
@<TRIPOS>BOND
   1    1    2 ar
   2    1    6 ar
   3    1   41 1
   4    2    3 ar
   5    2   42 1
   6    3    4 ar
   7    3   43 1
   8    4    5 ar
   9    4   44 1
  10    5    6 ar
  11    5    8 1
  12    6    7 1
  13    7   45 1
  14    7   46 1
  15    7   47 1
  16    8    9 1
  17    8   13 1
  18    9   10 1
  19    9   48 1
  20    9   49 1
  21   10   11 1
  22   10   50 1
  23   10   51 1
  24   11   12 1
  25   11   14 1
  26   12   13 1
  27   12   52 1
  28   12   53 1
  29   13   54 1
  30   13   55 1
  31   14   15 ar
  32   14   19 ar
  33   15   16 ar
  34   15   56 1
  35   16   17 ar
  36   16   57 1
  37   17   18 ar
  38   17   29 1
  39   18   19 ar
  40   18   58 1
  41   19   20 1
  42   20   21 am
  43   20   59 1
  44   21   22 1
  45   21   23 2
  46   22   24 1
  47   22   25 2
  48   24   27 1
  49   25   26 1
  50   25   28 1
  51   26   27 2
  52   26   60 1
  53   27   61 1
  54   29   30 am
  55   29   31 2
  56   30   32 1
  57   30   62 1
  58   32   33 1
  59   32   63 1
  60   32   64 1
  61   33   34 1
  62   33   65 1
  63   33   66 1
  64   34   35 1
  65   34   67 1
  66   34   68 1
  67   35   36 am
  68   35   37 1
  69   36   40 2
  70   36   39 1
  71   37   38 1
  72   37   69 1
  73   37   70 1
  74   38   39 1
  75   38   71 1
  76   38   72 1
  77   39   73 1
  78   39   74 1

#	End of record

