#	Name: ASD08710069
#	Creating user name:	WinNT
#	Creation time:	15. 06. 2019 21:19

#	Modifying user name:	WinNT
#	Modification time:	15. 06. 2019 21:19

#	Program:	/corina/corina34_cracker 3.40 0067  02.08.2006

@<TRIPOS>MOLECULE
ASD08710069
  61   63    0    0    0
SMALL
NO_CHARGES


@<TRIPOS>ATOM
   1 N1             0.4279     1.4469     0.3307 N.3     
   2 C2             0.9301     0.1023     0.6485 C.3     
   3 C3             1.7659    -0.4151    -0.5252 C.3     
   4 O4             2.8242     0.5086    -0.7941 O.3     
   5 C5             2.3708     1.8282    -1.1080 C.3     
   6 C6             1.5411     2.3682     0.0599 C.3     
   7 C7            -0.3785     1.9286     1.3479 C.ar    
   8 C8            -0.9515     3.1939     1.2299 C.ar    
   9 C9            -1.7484     3.6666     2.2371 C.ar    
  10 C10           -1.9609     2.8529     3.3607 C.ar    
  11 C11           -1.3554     1.5965     3.4117 C.ar    
  12 N12           -0.5995     1.1777     2.4182 N.ar    
  13 C13           -2.8119     3.3191     4.4721 C.2     
  14 O14           -2.9072     4.5083     4.7073 O.2     
  15 N15           -3.4835     2.4270     5.2267 N.am    
  16 C16           -4.2246     2.8631     6.4185 C.3     
  17 C17           -5.6795     2.3950     6.2894 C.3     
  18 N18           -5.6842     0.9688     5.9349 N.am    
  19 C19           -4.9431     0.5327     4.7431 C.3     
  20 C20           -3.4929     1.0016     4.8691 C.3     
  21 S21           -6.5095    -0.1274     6.8621 S.o2    
  22 O22           -5.9012    -1.3900     6.6273 O.2     
  23 O23           -6.6283     0.4496     8.1552 O.2     
  24 C24           -8.1440    -0.2341     6.2127 C.ar    
  25 C25           -8.4369    -1.1571     5.2262 C.ar    
  26 C26           -9.7192    -1.2407     4.7167 C.ar    
  27 C27          -10.7087    -0.4017     5.1941 C.ar    
  28 C28          -10.4160     0.5206     6.1812 C.ar    
  29 C29           -9.1347     0.6013     6.6938 C.ar    
  30 C30          -12.1064    -0.4922     4.6379 C.3     
  31 F31          -12.8484    -1.4103     5.3887 F       
  32 F32          -12.7166     0.7650     4.7033 F       
  33 F33          -12.0517    -0.9154     3.3056 F       
  34 C34           -4.1832     4.3892     6.5191 C.3     
  35 H35            1.5494     0.1474     1.5444 H       
  36 H36            0.0889    -0.5693     0.8202 H       
  37 H37            2.1875    -1.3876    -0.2712 H       
  38 H38            1.1336    -0.5111    -1.4079 H       
  39 H39            3.2297     2.4780    -1.2754 H       
  40 H40            1.7561     1.7974    -2.0076 H       
  41 H41            1.1459     3.3507    -0.1981 H       
  42 H42            2.1702     2.4495     0.9463 H       
  43 H43           -0.7678     3.7957     0.3521 H       
  44 H44           -2.2032     4.6439     2.1690 H       
  45 H45           -1.5114     0.9611     4.2710 H       
  46 H46           -3.7765     2.4230     7.3094 H       
  47 H47           -6.1953     2.5377     7.2390 H       
  48 H48           -6.1801     2.9677     5.5087 H       
  49 H49           -4.9726    -0.5545     4.6714 H       
  50 H50           -5.3912     0.9728     3.8523 H       
  51 H51           -2.9802     0.8598     3.9176 H       
  52 H52           -2.9914     0.4259     5.6470 H       
  53 H53           -7.6638    -1.8126     4.8533 H       
  54 H54           -9.9479    -1.9613     3.9455 H       
  55 H55          -11.1890     1.1764     6.5539 H       
  56 H56           -8.9069     1.3194     7.4676 H       
  57 H57           -4.6063     4.8246     5.6138 H       
  58 H58           -4.7637     4.7123     7.3833 H       
  59 H59           -3.1501     4.7180     6.6319 H       
  60 Cl60           8.2297     9.8246    13.1552 Cl      
  61 H61            8.2297    11.1946    13.1552 H       
@<TRIPOS>BOND
   1    1    2 1
   2    1    6 1
   3    1    7 1
   4    2    3 1
   5    2   35 1
   6    2   36 1
   7    3    4 1
   8    3   37 1
   9    3   38 1
  10    4    5 1
  11    5    6 1
  12    5   39 1
  13    5   40 1
  14    6   41 1
  15    6   42 1
  16    7    8 ar
  17    7   12 ar
  18    8    9 ar
  19    8   43 1
  20    9   10 ar
  21    9   44 1
  22   10   11 ar
  23   10   13 1
  24   11   12 ar
  25   11   45 1
  26   13   14 2
  27   13   15 am
  28   15   16 1
  29   15   20 1
  30   16   17 1
  31   16   34 1
  32   16   46 1
  33   17   18 1
  34   17   47 1
  35   17   48 1
  36   18   19 1
  37   18   21 am
  38   19   20 1
  39   19   49 1
  40   19   50 1
  41   20   51 1
  42   20   52 1
  43   21   22 2
  44   21   23 2
  45   21   24 1
  46   24   25 ar
  47   24   29 ar
  48   25   26 ar
  49   25   53 1
  50   26   27 ar
  51   26   54 1
  52   27   28 ar
  53   27   30 1
  54   28   29 ar
  55   28   55 1
  56   29   56 1
  57   30   31 1
  58   30   32 1
  59   30   33 1
  60   34   57 1
  61   34   58 1
  62   34   59 1
  63   60   61 1

#	End of record

