#	Name: ASD01910310
#	Creating user name:	WinNT
#	Creation time:	15. 06. 2019 19:55

#	Modifying user name:	WinNT
#	Modification time:	15. 06. 2019 19:55

#	Program:	/corina/corina34_cracker 3.40 0067  02.08.2006

@<TRIPOS>MOLECULE
ASD01910310
  45   47    0    0    0
SMALL
NO_CHARGES


@<TRIPOS>ATOM
   1 C1             0.0709     1.1976    -0.3493 C.ar    
   2 C2             0.0495    -0.0786     0.1854 C.ar    
   3 C3             1.2072    -0.6445     0.6898 C.ar    
   4 C4             2.3920     0.0609     0.6632 C.ar    
   5 C5             2.4214     1.3503     0.1247 C.ar    
   6 C6             1.2481     1.9151    -0.3831 C.ar    
   7 C7             3.6476     2.0894     0.0939 C.1     
   8 C8             4.6529     2.6953     0.0687 C.1     
   9 C9             5.8790     3.4343     0.0380 C.ar    
  10 C10            5.9050     4.7251    -0.5019 C.ar    
  11 C11            7.0748     5.4293    -0.5309 C.ar    
  12 C12            8.2462     4.8608    -0.0219 C.ar    
  13 C13            8.2210     3.5713     0.5175 C.ar    
  14 C14            7.0506     2.8683     0.5529 C.ar    
  15 C15            9.5105     5.6223    -0.0546 C.2     
  16 N16           10.6244     5.0576    -0.5612 N.am    
  17 O17            9.5469     6.7589     0.3756 O.2     
  18 C18           10.6172     3.6581    -1.0085 C.3     
  19 C19           11.1305     3.5987    -2.4506 C.3     
  20 C20           12.5005     4.2764    -2.5286 C.3     
  21 C21           12.3682     5.7462    -2.1231 C.3     
  22 C22           11.8674     5.8316    -0.6825 C.3     
  23 O23           13.4084     3.6181    -1.6430 O.3     
  24 C24           13.0319     4.1885    -3.9607 C.3     
  25 H25           -0.8357     1.6311    -0.7451 H       
  26 H26           -0.8755    -0.6356     0.2096 H       
  27 H27            1.1829    -1.6410     1.1055 H       
  28 H28            3.2946    -0.3818     1.0577 H       
  29 H29            1.2634     2.9109    -0.8010 H       
  30 H30            5.0003     5.1641    -0.8958 H       
  31 H31            7.0950     6.4256    -0.9475 H       
  32 H32            9.1263     3.1327     0.9106 H       
  33 H33            7.0312     1.8722     0.9697 H       
  34 H34           11.2670     3.0654    -0.3647 H       
  35 H35            9.6010     3.2661    -0.9659 H       
  36 H36           11.2212     2.5580    -2.7620 H       
  37 H37           10.4309     4.1157    -3.1074 H       
  38 H38           13.3398     6.2340    -2.2014 H       
  39 H39           11.6570     6.2430    -2.7830 H       
  40 H40           11.6776     6.8730    -0.4227 H       
  41 H41           12.6175     5.4159    -0.0096 H       
  42 H42           14.2986     3.9956    -1.6404 H       
  43 H43           12.3393     4.6901    -4.6366 H       
  44 H44           14.0076     4.6712    -4.0164 H       
  45 H45           13.1273     3.1418    -4.2492 H       
@<TRIPOS>BOND
   1    1    2 ar
   2    1    6 ar
   3    1   25 1
   4    2    3 ar
   5    2   26 1
   6    3    4 ar
   7    3   27 1
   8    4    5 ar
   9    4   28 1
  10    5    6 ar
  11    5    7 1
  12    6   29 1
  13    7    8 3
  14    8    9 1
  15    9   10 ar
  16    9   14 ar
  17   10   11 ar
  18   10   30 1
  19   11   12 ar
  20   11   31 1
  21   12   13 ar
  22   12   15 1
  23   13   14 ar
  24   13   32 1
  25   14   33 1
  26   15   16 am
  27   15   17 2
  28   16   18 1
  29   16   22 1
  30   18   19 1
  31   18   34 1
  32   18   35 1
  33   19   20 1
  34   19   36 1
  35   19   37 1
  36   20   21 1
  37   20   23 1
  38   20   24 1
  39   21   22 1
  40   21   38 1
  41   21   39 1
  42   22   40 1
  43   22   41 1
  44   23   42 1
  45   24   43 1
  46   24   44 1
  47   24   45 1

#	End of record

