#	Name: ASD01411291
#	Creating user name:	WinNT
#	Creation time:	15. 06. 2019 19:19

#	Modifying user name:	WinNT
#	Modification time:	15. 06. 2019 19:19

#	Program:	/corina/corina34_cracker 3.40 0067  02.08.2006

@<TRIPOS>MOLECULE
ASD01411291
 103  109    0    0    0
SMALL
NO_CHARGES


@<TRIPOS>ATOM
   1 C1             0.0646     2.0266     0.5859 C.ar    
   2 C2             0.0048     0.6199     0.5421 C.ar    
   3 C3            -1.2409    -0.0222     0.6055 C.ar    
   4 C4            -2.3803     0.7086     0.7129 C.ar    
   5 C5            -2.3362     2.1209     0.7593 C.ar    
   6 C6            -1.1078     2.7630     0.6816 C.ar    
   7 N7             1.3971     2.3854     0.5229 N.pl3   
   8 C8             2.1543     1.2436     0.4208 C.2     
   9 C9             1.3362     0.1578     0.4328 C.2     
  10 C10            1.9048     3.7586     0.5582 C.3     
  11 C11            1.3266     4.4933     1.7410 C.2     
  12 N12            1.4346     5.8464     1.7885 N.am    
  13 O13            0.7793     3.8859     2.6363 O.2     
  14 C14            0.8081     6.5473     2.9229 C.3     
  15 C15           -0.5194     7.1542     2.4595 C.3     
  16 C16           -1.5634     6.9488     3.5243 C.2     
  17 C17           -3.6129     2.8312     0.8878 C.2     
  18 O18           -4.6296     2.1418     0.8294 O.2     
  19 N19           -3.7979     4.1469     1.0834 N.am    
  20 C20           -2.7884     6.6123     3.2134 C.2     
  21 C21           -3.2004     6.4164     1.7784 C.3     
  22 C22           -2.6726     5.0705     1.2727 C.3     
  23 C23            3.6275     1.1809     0.3101 C.ar    
  24 C24            4.3011     2.0389    -0.5612 C.ar    
  25 C25            1.7770    -1.2808     0.3448 C.3     
  26 C26            1.3230    -2.0310     1.5986 C.3     
  27 C27            1.7705    -3.4914     1.5092 C.3     
  28 C28            1.1469    -4.1411     0.2723 C.3     
  29 C29            1.6009    -3.3909    -0.9815 C.3     
  30 C30            1.1534    -1.9306    -0.8921 C.3     
  31 C31            5.6744     1.9776    -0.6612 C.ar    
  32 C32            6.3880     1.0636     0.1030 C.ar    
  33 C33            5.7217     0.2083     0.9710 C.ar    
  34 C34            4.3490     0.2673     1.0809 C.ar    
  35 O35            7.7415     1.0056     0.0010 O.3     
  36 C36            8.4128     0.0424     0.8156 C.3     
  37 C37            9.8974     0.1238     0.5695 C.ar    
  38 C38           10.7696    -0.6485     1.3248 C.ar    
  39 C39           12.1377    -0.5736     1.0980 C.ar    
  40 C40           12.6304     0.2687     0.1212 C.ar    
  41 C41           11.7579     1.0409    -0.6346 C.ar    
  42 C42           10.3899     0.9624    -0.4111 C.ar    
  43 N43           10.2700    -1.5026     2.3153 N.3     
  44 C44           10.7200    -1.0821     3.6489 C.3     
  45 C45           10.0106    -1.9259     4.7133 C.3     
  46 N46           10.2271    -3.3473     4.4034 N.am    
  47 C47            9.9278    -3.8160     3.0418 C.3     
  48 C48           10.6404    -2.8978     2.0432 C.3     
  49 S49           10.7933    -4.3920     5.5568 S.o2    
  50 C50            9.2983    -5.0349     6.3583 C.3     
  51 O51           11.4407    -5.4162     4.8143 O.2     
  52 O52           11.5223    -3.5638     6.4522 O.2     
  53 N53           12.2575     1.8949    -1.6251 N.pl3   
  54 H54           -1.2938    -1.1006     0.5662 H       
  55 H55           -3.3356     0.2071     0.7625 H       
  56 H56           -1.0387     3.8391     0.6717 H       
  57 H57            2.9900     3.7619     0.6333 H       
  58 H58            1.6081     4.2728    -0.3586 H       
  59 H59            1.9112     6.3347     1.0980 H       
  60 H60            0.6260     5.8454     3.7353 H       
  61 H61            1.4694     7.3418     3.2691 H       
  62 H62           -0.3847     8.2226     2.2831 H       
  63 H63           -0.8311     6.6719     1.5340 H       
  64 H64           -1.2976     7.0840     4.5661 H       
  65 H65           -4.7137     4.4992     1.1012 H       
  66 H66           -3.5186     6.4731     4.0015 H       
  67 H67           -4.2887     6.4269     1.7076 H       
  68 H68           -2.7915     7.2189     1.1655 H       
  69 H69           -1.9792     4.6624     2.0085 H       
  70 H70           -2.1601     5.2254     0.3221 H       
  71 H71            3.7468     2.7495    -1.1564 H       
  72 H72            2.8635    -1.3239     0.2690 H       
  73 H73            1.7673    -1.5681     2.4797 H       
  74 H74            0.2365    -1.9879     1.6743 H       
  75 H75            2.8571    -3.5344     1.4335 H       
  76 H76            1.4471    -4.0258     2.4025 H       
  77 H77            1.4657    -5.1815     0.2087 H       
  78 H78            0.0604    -4.0980     0.3481 H       
  79 H79            2.6874    -3.4340    -1.0572 H       
  80 H80            1.1566    -3.8538    -1.8626 H       
  81 H81            0.0669    -1.8875    -0.8164 H       
  82 H82            1.4768    -1.3961    -1.7854 H       
  83 H83            6.1962     2.6410    -1.3350 H       
  84 H84            6.2801    -0.5011     1.5636 H       
  85 H85            3.8316    -0.3978     1.7563 H       
  86 H86            8.2068     0.2482     1.8660 H       
  87 H87            8.0571    -0.9569     0.5646 H       
  88 H88           12.8162    -1.1738     1.6860 H       
  89 H89           13.6943     0.3273    -0.0549 H       
  90 H90            9.7114     1.5629    -0.9989 H       
  91 H91           11.7976    -1.2242     3.7308 H       
  92 H92           10.4791    -0.0297     3.7990 H       
  93 H93           10.4236    -1.6984     5.6961 H       
  94 H94            8.9428    -1.7072     4.7022 H       
  95 H95           10.2860    -4.8382     2.9194 H       
  96 H96            8.8520    -3.7790     2.8700 H       
  97 H97           10.3418    -3.1622     1.0288 H       
  98 H98           11.7191    -3.0147     2.1474 H       
  99 H99            8.6790    -5.5422     5.6186 H       
 100 H100           9.5800    -5.7393     7.1409 H       
 101 H101           8.7377    -4.2094     6.7970 H       
 102 H102          13.2131     1.9473    -1.7834 H       
 103 H103          11.6481     2.4343    -2.1529 H       
@<TRIPOS>BOND
   1    1    2 ar
   2    1    7 1
   3    1    6 ar
   4    2    3 ar
   5    2    9 1
   6    3    4 ar
   7    3   54 1
   8    4    5 ar
   9    4   55 1
  10    5    6 ar
  11    5   17 1
  12    6   56 1
  13    7    8 1
  14    7   10 1
  15    8    9 2
  16    8   23 1
  17    9   25 1
  18   10   11 1
  19   10   57 1
  20   10   58 1
  21   11   12 am
  22   11   13 2
  23   12   14 1
  24   12   59 1
  25   14   15 1
  26   14   60 1
  27   14   61 1
  28   15   16 1
  29   15   62 1
  30   15   63 1
  31   16   20 2
  32   16   64 1
  33   17   18 2
  34   17   19 am
  35   19   22 1
  36   19   65 1
  37   20   21 1
  38   20   66 1
  39   21   22 1
  40   21   67 1
  41   21   68 1
  42   22   69 1
  43   22   70 1
  44   23   24 ar
  45   23   34 ar
  46   24   31 ar
  47   24   71 1
  48   25   26 1
  49   25   30 1
  50   25   72 1
  51   26   27 1
  52   26   73 1
  53   26   74 1
  54   27   28 1
  55   27   75 1
  56   27   76 1
  57   28   29 1
  58   28   77 1
  59   28   78 1
  60   29   30 1
  61   29   79 1
  62   29   80 1
  63   30   81 1
  64   30   82 1
  65   31   32 ar
  66   31   83 1
  67   32   33 ar
  68   32   35 1
  69   33   34 ar
  70   33   84 1
  71   34   85 1
  72   35   36 1
  73   36   37 1
  74   36   86 1
  75   36   87 1
  76   37   38 ar
  77   37   42 ar
  78   38   39 ar
  79   38   43 1
  80   39   40 ar
  81   39   88 1
  82   40   41 ar
  83   40   89 1
  84   41   42 ar
  85   41   53 1
  86   42   90 1
  87   43   44 1
  88   43   48 1
  89   44   45 1
  90   44   91 1
  91   44   92 1
  92   45   46 1
  93   45   93 1
  94   45   94 1
  95   46   47 1
  96   46   49 am
  97   47   48 1
  98   47   95 1
  99   47   96 1
 100   48   97 1
 101   48   98 1
 102   49   50 1
 103   49   51 2
 104   49   52 2
 105   50   99 1
 106   50  100 1
 107   50  101 1
 108   53  102 1
 109   53  103 1

#	End of record

