#	Name: ASD02690060
#	Creating user name:	WinNT
#	Creation time:	15. 06. 2019 20:26

#	Modifying user name:	WinNT
#	Modification time:	15. 06. 2019 20:26

#	Program:	/corina/corina34_cracker 3.40 0067  02.08.2006

@<TRIPOS>MOLECULE
ASD02690060
  59   61    0    0    0
SMALL
NO_CHARGES


@<TRIPOS>ATOM
   1 C1            -0.0182     1.4900     0.0102 C.2     
   2 C2             0.0021    -0.0041     0.0020 C.2     
   3 O3             1.0235     2.1105     0.0036 O.2     
   4 O4            -1.1924     2.1468     0.0194 O.3     
   5 O5            -1.0396    -0.6246     0.0086 O.2     
   6 O6             1.1762    -0.6609    -0.0127 O.3     
   7 H7            -1.1549     3.1131     0.0244 H       
   8 H8             1.1387    -1.6271    -0.0176 H       
   9 C9            10.4245     9.8852     7.2933 C.2     
  10 O10           10.4427     8.6718     7.3363 O.2     
  11 N11           12.9043    10.0698     7.1418 N.pl3   
  12 C12           11.6359    10.6072     7.1966 C.2     
  13 C13           11.7670    11.9841     7.1390 C.2     
  14 C14           13.1326    12.2591     7.0491 C.2     
  15 C15           13.7973    11.0768     7.0530 C.2     
  16 C16           13.2289     8.6418     7.1801 C.3     
  17 N17            9.7956    15.7522     7.1212 N.3     
  18 C18            9.7198    14.9773     8.3663 C.3     
  19 C19           10.8232    13.9169     8.3766 C.3     
  20 C20           10.6486    12.9938     7.1675 C.3     
  21 C21           10.6829    13.8317     5.8864 C.3     
  22 C22            9.5836    14.8946     5.9482 C.3     
  23 C23            9.0138    17.6757     8.4218 C.3     
  24 C24            8.8406    16.8683     7.1369 C.3     
  25 C25            9.1087    17.7942     5.9445 C.3     
  26 C26            7.9627    18.7994     5.8482 C.3     
  27 C27            7.7287    19.4648     7.1791 C.ar    
  28 C28            6.9970    20.6456     7.1922 C.ar    
  29 C29            6.7450    21.3011     8.3793 C.ar    
  30 C30            7.2234    20.7790     9.5669 C.ar    
  31 C31            7.9511    19.6073     9.5559 C.ar    
  32 C32            8.2080    18.9469     8.3611 C.ar    
  33 O33           10.3423    18.4880     6.1416 O.3     
  34 H34            9.4826    10.4126     7.3245 H       
  35 H35           13.5807    13.2398     6.9870 H       
  36 H36           14.8694    10.9603     6.9950 H       
  37 H37           13.2475     8.2460     6.1646 H       
  38 H38           14.2066     8.5036     7.6418 H       
  39 H39           12.4742     8.1131     7.7623 H       
  40 H40            9.8497    15.6449     9.2181 H       
  41 H41            8.7471    14.4899     8.4321 H       
  42 H42           11.7968    14.4043     8.3248 H       
  43 H43           10.7570    13.3317     9.2938 H       
  44 H44            9.6922    12.4760     7.2397 H       
  45 H45           11.6543    14.3177     5.7954 H       
  46 H46           10.5164    13.1856     5.0244 H       
  47 H47            8.6115    14.4076     6.0254 H       
  48 H48            9.6145    15.5021     5.0438 H       
  49 H49            8.6791    17.0780     9.2696 H       
  50 H50           10.0673    17.9237     8.5511 H       
  51 H51            7.8230    16.4816     7.0806 H       
  52 H52            9.1597    17.2068     5.0277 H       
  53 H53            8.2114    19.5579     5.1059 H       
  54 H54            7.0546    18.2808     5.5410 H       
  55 H55            6.6227    21.0539     6.2650 H       
  56 H56            6.1762    22.2192     8.3812 H       
  57 H57            7.0282    21.2869    10.4997 H       
  58 H58            8.3250    19.2004    10.4839 H       
  59 H59           10.5730    19.0921     5.4227 H       
@<TRIPOS>BOND
   1    1    2 1
   2    1    3 2
   3    1    4 1
   4    2    5 2
   5    2    6 1
   6    4    7 1
   7    6    8 1
   8    9   10 2
   9    9   12 1
  10    9   34 1
  11   11   12 1
  12   11   15 1
  13   11   16 1
  14   12   13 2
  15   13   14 1
  16   13   20 1
  17   14   15 2
  18   14   35 1
  19   15   36 1
  20   16   37 1
  21   16   38 1
  22   16   39 1
  23   17   18 1
  24   17   22 1
  25   17   24 1
  26   18   19 1
  27   18   40 1
  28   18   41 1
  29   19   20 1
  30   19   42 1
  31   19   43 1
  32   20   21 1
  33   20   44 1
  34   21   22 1
  35   21   45 1
  36   21   46 1
  37   22   47 1
  38   22   48 1
  39   23   24 1
  40   23   32 1
  41   23   49 1
  42   23   50 1
  43   24   25 1
  44   24   51 1
  45   25   26 1
  46   25   33 1
  47   25   52 1
  48   26   27 1
  49   26   53 1
  50   26   54 1
  51   27   28 ar
  52   27   32 ar
  53   28   29 ar
  54   28   55 1
  55   29   30 ar
  56   29   56 1
  57   30   31 ar
  58   30   57 1
  59   31   32 ar
  60   31   58 1
  61   33   59 1

#	End of record

