#	Name: ASD00960201
#	Creating user name:	WinNT
#	Creation time:	15. 06. 2019 18:53

#	Modifying user name:	WinNT
#	Modification time:	15. 06. 2019 18:53

#	Program:	/corina/corina34_cracker 3.40 0067  02.08.2006

@<TRIPOS>MOLECULE
ASD00960201
  38   41    0    0    0
SMALL
NO_CHARGES


@<TRIPOS>ATOM
   1 C1            -0.0170     1.4012     0.0097 C.2     
   2 C2             0.0021    -0.0041     0.0020 C.2     
   3 N3             1.2762     1.8418    -0.0002 N.pl3   
   4 C4             2.1134     0.7544    -0.0141 C.2     
   5 C5             1.3424    -0.3975    -0.0129 C.2     
   6 N6             1.8445     3.1238     0.0008 N.2     
   7 C7             3.1438     3.2643    -0.0112 C.2     
   8 N8             3.9678     2.2210    -0.0246 N.2     
   9 C9             3.5131     0.9804    -0.0262 C.2     
  10 N10            4.3913    -0.0843    -0.0405 N.pl3   
  11 C11           -1.1738    -0.8970     0.0092 C.2     
  12 S12           -1.1204    -2.6579    -0.0008 S.3     
  13 C13           -2.8822    -2.7064     0.0168 C.2     
  14 C14           -3.3353    -1.4475     0.0282 C.2     
  15 N15           -2.4177    -0.5092     0.0295 N.2     
  16 C16           -1.1731     2.2169     0.0199 C.2     
  17 O17           -2.2780     1.7065     0.0226 O.2     
  18 O18           -1.0506     3.5613     0.0266 O.3     
  19 C19           -2.2597     4.3228     0.0367 C.3     
  20 C20           -1.9275     5.7927     0.0431 C.ar    
  21 C21           -1.7811     6.4734    -1.1511 C.ar    
  22 C22           -1.4763     7.8217    -1.1453 C.ar    
  23 C23           -1.3184     8.4895     0.0547 C.ar    
  24 C24           -1.4657     7.8090     1.2489 C.ar    
  25 C25           -1.7748     6.4617     1.2431 C.ar    
  26 H26            1.7103    -1.4128    -0.0218 H       
  27 H27            3.5617     4.2602    -0.0105 H       
  28 H28            5.3479     0.0762    -0.0494 H       
  29 H29            4.0519    -0.9930    -0.0415 H       
  30 H30           -3.4910    -3.5984     0.0177 H       
  31 H31           -4.3905    -1.2178     0.0401 H       
  32 H32           -2.8454     4.0865    -0.8516 H       
  33 H33           -2.8366     4.0769     0.9283 H       
  34 H34           -1.9044     5.9517    -2.0887 H       
  35 H35           -1.3612     8.3534    -2.0783 H       
  36 H36           -1.0796     9.5427     0.0592 H       
  37 H37           -1.3420     8.3306     2.1865 H       
  38 H38           -1.8935     5.9309     2.1762 H       
@<TRIPOS>BOND
   1    1    2 2
   2    1    3 1
   3    1   16 1
   4    2   11 1
   5    2    5 1
   6    3    4 1
   7    3    6 1
   8    4    5 2
   9    4    9 1
  10    5   26 1
  11    6    7 2
  12    7    8 1
  13    7   27 1
  14    8    9 2
  15    9   10 1
  16   10   28 1
  17   10   29 1
  18   11   12 1
  19   11   15 2
  20   12   13 1
  21   13   14 2
  22   13   30 1
  23   14   15 1
  24   14   31 1
  25   16   17 2
  26   16   18 1
  27   18   19 1
  28   19   20 1
  29   19   32 1
  30   19   33 1
  31   20   21 ar
  32   20   25 ar
  33   21   22 ar
  34   21   34 1
  35   22   23 ar
  36   22   35 1
  37   23   24 ar
  38   23   36 1
  39   24   25 ar
  40   24   37 1
  41   25   38 1

#	End of record

