#	Name: ASD01884045
#	Creating user name:	WinNT
#	Creation time:	15. 06. 2019 19:47

#	Modifying user name:	WinNT
#	Modification time:	15. 06. 2019 19:47

#	Program:	/corina/corina34_cracker 3.40 0067  02.08.2006

@<TRIPOS>MOLECULE
ASD01884045
  44   47    0    0    0
SMALL
NO_CHARGES


@<TRIPOS>ATOM
   1 C1            -0.3350     2.3501    -2.8807 C.3     
   2 C2            -0.3686     1.3343    -1.7370 C.3     
   3 H3            -1.3850     0.9610    -1.6124 H       
   4 O4             0.0592     1.9642    -0.5278 O.3     
   5 C5            -0.8796     2.6525     0.1754 C.ar    
   6 C6            -2.1780     2.7397    -0.3016 C.ar    
   7 C7            -3.1316     3.4391     0.4141 C.ar    
   8 C8            -2.7913     4.0532     1.6070 C.ar    
   9 F9            -3.7250     4.7362     2.3047 F       
  10 C10           -1.4948     3.9678     2.0863 C.ar    
  11 C11           -0.5397     3.2641     1.3757 C.ar    
  12 F12            0.7239     3.1758     1.8455 F       
  13 C13            0.5526     0.1856    -2.0581 C.2     
  14 C14            1.9296     0.4113    -2.2257 C.2     
  15 C15            2.7589    -0.6138    -2.5134 C.2     
  16 N16            2.2731    -1.8813    -2.6454 N.pl3   
  17 C17            2.8471    -3.0830    -2.9241 C.2     
  18 C18            4.3108    -3.3333    -3.1808 C.3     
  19 C19            5.0145    -3.6453    -1.8585 C.3     
  20 C20            5.6326    -5.0356    -1.6981 C.3     
  21 C21            6.5347    -3.8148    -1.8901 C.3     
  22 N22            1.8965    -3.9816    -2.9281 N.2     
  23 N23            0.7617    -3.4319    -2.6714 N.2     
  24 C24            0.9323    -2.1328    -2.4873 C.2     
  25 C25            0.0553    -1.0744    -2.1813 C.2     
  26 C26           -1.4179    -1.3337    -1.9984 C.3     
  27 F27           -2.1512    -0.4045    -2.7441 F       
  28 F28           -1.7217    -2.6271    -2.4366 F       
  29 F29           -1.7486    -1.2103    -0.6447 F       
  30 H30            0.6815     2.7234    -3.0054 H       
  31 H31           -0.6613     1.8696    -3.8031 H       
  32 H32           -1.0012     3.1809    -2.6484 H       
  33 H33           -2.4445     2.2616    -1.2326 H       
  34 H34           -4.1432     3.5068     0.0420 H       
  35 H35           -1.2307     4.4474     3.0172 H       
  36 H36            2.3263     1.4107    -2.1241 H       
  37 H37            3.8154    -0.4289    -2.6405 H       
  38 H38            4.4213    -4.1789    -3.8595 H       
  39 H39            4.7578    -2.4462    -3.6297 H       
  40 H40            4.5779    -3.1831    -0.9731 H       
  41 H41            5.6027    -5.4885    -0.7071 H       
  42 H42            5.5380    -5.7280    -2.5346 H       
  43 H43            7.0336    -3.7041    -2.8528 H       
  44 H44            7.0982    -3.4645    -1.0253 H       
@<TRIPOS>BOND
   1    1    2 1
   2    1   30 1
   3    1   31 1
   4    1   32 1
   5    2    3 1
   6    2    4 1
   7    2   13 1
   8    4    5 1
   9    5   11 ar
  10    5    6 ar
  11    6    7 ar
  12    6   33 1
  13    7    8 ar
  14    7   34 1
  15    8    9 1
  16    8   10 ar
  17   10   11 ar
  18   10   35 1
  19   11   12 1
  20   13   25 2
  21   13   14 1
  22   14   15 2
  23   14   36 1
  24   15   16 1
  25   15   37 1
  26   16   24 1
  27   16   17 1
  28   17   18 1
  29   17   22 2
  30   18   19 1
  31   18   38 1
  32   18   39 1
  33   19   21 1
  34   19   20 1
  35   19   40 1
  36   20   21 1
  37   20   41 1
  38   20   42 1
  39   21   43 1
  40   21   44 1
  41   22   23 1
  42   23   24 2
  43   24   25 1
  44   25   26 1
  45   26   27 1
  46   26   28 1
  47   26   29 1

#	End of record

