#	Name: ASD01918016
#	Creating user name:	WinNT
#	Creation time:	15. 06. 2019 20:10

#	Modifying user name:	WinNT
#	Modification time:	15. 06. 2019 20:10

#	Program:	/corina/corina34_cracker 3.40 0067  02.08.2006

@<TRIPOS>MOLECULE
ASD01918016
  40   43    0    0    0
SMALL
NO_CHARGES


@<TRIPOS>ATOM
   1 N1             4.8189    -0.4146    -2.1411 N.ar    
   2 C2             5.2861     0.2836    -3.1573 C.ar    
   3 C3             5.1751     1.6615    -3.1827 C.ar    
   4 C4             4.5631     2.3103    -2.1228 C.ar    
   5 C5             4.0809     1.5426    -1.0669 C.ar    
   6 C6             4.2300     0.1641    -1.1133 C.ar    
   7 O7             3.4736     2.1348    -0.0053 O.3     
   8 C8             3.4560     3.4940     0.0438 C.2     
   9 N9             2.2077     5.5082    -0.0221 N.pl3   
  10 C10            2.2740     4.1523    -0.0660 C.2     
  11 C11            4.6565     4.1941     0.2127 C.2     
  12 C12            4.6303     5.5834     0.2624 C.2     
  13 C13            3.3387     6.2580     0.1350 C.2     
  14 C14            5.8714     6.3561     0.4394 C.2     
  15 N15            5.8263     7.7024     0.4852 N.am    
  16 C16            6.9839     8.4297     0.7581 C.ar    
  17 N17            8.1435     7.8003     0.8638 N.ar    
  18 C18            6.9097     9.8093     0.9107 C.ar    
  19 C19            8.0658    10.5202     1.1813 C.ar    
  20 C20            9.2626     9.8223     1.2905 C.ar    
  21 C21            9.2627     8.4495     1.1210 C.ar    
  22 O22            6.9371     5.7794     0.5442 O.2     
  23 N23            1.1460     6.4205    -0.1087 N.2     
  24 C24            1.6622     7.6227    -0.0118 C.2     
  25 N25            2.9772     7.5313     0.1405 N.2     
  26 C26            5.7140     2.4483    -4.3496 C.3     
  27 F27           10.4142    10.4781     1.5534 F       
  28 H28            5.7623    -0.2277    -3.9808 H       
  29 H29            4.4629     3.3857    -2.1159 H       
  30 H30            3.8595    -0.4412    -0.2992 H       
  31 H31            1.3642     3.5841    -0.1917 H       
  32 H32            5.5917     3.6615     0.3037 H       
  33 H33            4.9884     8.1652     0.3283 H       
  34 H34            5.9624    10.3198     0.8189 H       
  35 H35            8.0386    11.5929     1.3046 H       
  36 H36           10.1905     7.9024     1.2002 H       
  37 H37            1.1017     8.5454    -0.0434 H       
  38 H38            4.9361     2.5561    -5.1054 H       
  39 H39            6.0284     3.4347    -4.0085 H       
  40 H40            6.5674     1.9233    -4.7787 H       
@<TRIPOS>BOND
   1    1    2 ar
   2    1    6 ar
   3    2    3 ar
   4    2   28 1
   5    3    4 ar
   6    3   26 1
   7    4    5 ar
   8    4   29 1
   9    5    6 ar
  10    5    7 1
  11    6   30 1
  12    7    8 1
  13    8   11 1
  14    8   10 2
  15    9   10 1
  16    9   23 1
  17    9   13 1
  18   10   31 1
  19   11   12 2
  20   11   32 1
  21   12   13 1
  22   12   14 1
  23   13   25 2
  24   14   15 am
  25   14   22 2
  26   15   16 1
  27   15   33 1
  28   16   18 ar
  29   16   17 ar
  30   17   21 ar
  31   18   19 ar
  32   18   34 1
  33   19   20 ar
  34   19   35 1
  35   20   21 ar
  36   20   27 1
  37   21   36 1
  38   23   24 2
  39   24   25 1
  40   24   37 1
  41   26   38 1
  42   26   39 1
  43   26   40 1

#	End of record

