#	Name: ASD03331005
#	Creating user name:	WinNT
#	Creation time:	15. 06. 2019 20:38

#	Modifying user name:	WinNT
#	Modification time:	15. 06. 2019 20:38

#	Program:	/corina/corina34_cracker 3.40 0067  02.08.2006

@<TRIPOS>MOLECULE
ASD03331005
  64   67    0    0    0
SMALL
NO_CHARGES


@<TRIPOS>ATOM
   1 N1            -0.8728     1.7440    -0.4479 N.pl3   
   2 C2            -0.6914     0.4231    -0.1800 C.2     
   3 C3             0.6246    -0.2338     0.1454 C.3     
   4 N4             1.3261     0.5683     1.1598 N.3     
   5 C5             2.1613     1.5974     0.5376 C.3     
   6 C6             1.5216     2.1166    -0.7469 C.3     
   7 C7             0.1740     2.7697    -0.4278 C.3     
   8 C8            -2.1969     1.9273    -0.7223 C.2     
   9 N9            -2.8114     0.7728    -0.6110 N.2     
  10 C10           -1.9102    -0.1763    -0.2743 C.2     
  11 C11           -2.1956    -1.6043    -0.0496 C.2     
  12 O12           -1.2950    -2.3645     0.2507 O.2     
  13 N13           -3.4546    -2.0681    -0.1769 N.am    
  14 C14            2.1213    -0.2876     2.0502 C.3     
  15 C15           -2.8333     3.2121    -1.0837 C.ar    
  16 C16           -2.5616     4.3618    -0.3408 C.ar    
  17 C17           -3.1575     5.5575    -0.6818 C.ar    
  18 C18           -4.0259     5.6205    -1.7607 C.ar    
  19 C19           -4.3006     4.4838    -2.5028 C.ar    
  20 C20           -3.7047     3.2810    -2.1740 C.ar    
  21 C21           -4.9809    -3.8773    -0.7122 C.2     
  22 C22           -3.7384    -3.4879     0.0465 C.3     
  23 C23           -3.9545    -3.7358     1.5408 C.3     
  24 C24           -4.3845    -5.1877     1.7599 C.3     
  25 C25           -2.6504    -3.4706     2.2956 C.3     
  26 C26           -5.0448    -2.7969     2.0610 C.3     
  27 N27           -5.1157    -5.1318    -1.1860 N.am    
  28 C28           -6.1686    -5.8982    -1.8691 C.3     
  29 C29           -5.5629    -7.1701    -1.2596 C.3     
  30 C30           -4.2722    -6.3346    -1.2534 C.3     
  31 F31           -6.0527    -7.4861     0.0122 F       
  32 F32           -5.5306    -8.2644    -2.1305 F       
  33 O33           -5.8595    -3.0618    -0.8963 O.2     
  34 F34           -4.6069     6.7951    -2.0892 F       
  35 F35           -3.9682     2.1735    -2.9013 F       
  36 H36            0.4452    -1.2364     0.5338 H       
  37 H37            1.2341    -0.2949    -0.7562 H       
  38 H38            2.2879     2.4257     1.2347 H       
  39 H39            3.1382     1.1735     0.3051 H       
  40 H40            2.1806     2.8522    -1.2082 H       
  41 H41            1.3678     1.2865    -1.4364 H       
  42 H42           -0.0478     3.5315    -1.1751 H       
  43 H43            0.2161     3.2281     0.5602 H       
  44 H44           -4.1729    -1.4618    -0.4164 H       
  45 H45            2.8127    -0.8861     1.4570 H       
  46 H46            2.6842     0.3351     2.7456 H       
  47 H47            1.4571    -0.9471     2.6089 H       
  48 H48           -1.8857     4.3150     0.5003 H       
  49 H49           -2.9476     6.4472    -0.1067 H       
  50 H50           -4.9781     4.5384    -3.3421 H       
  51 H51           -2.8968    -4.0860    -0.3030 H       
  52 H52           -3.5956    -5.8562     1.4154 H       
  53 H53           -4.5661    -5.3566     2.8213 H       
  54 H54           -5.2983    -5.3846     1.1991 H       
  55 H55           -2.3441    -2.4363     2.1395 H       
  56 H56           -2.8044    -3.6472     3.3601 H       
  57 H57           -1.8736    -4.1395     1.9250 H       
  58 H58           -5.9739    -2.9858     1.5233 H       
  59 H59           -5.1988    -2.9735     3.1255 H       
  60 H60           -4.7385    -1.7625     1.9049 H       
  61 H61           -7.1719    -5.6775    -1.5048 H       
  62 H62           -6.0968    -5.8611    -2.9561 H       
  63 H63           -3.7004    -6.4125    -2.1781 H       
  64 H64           -3.6598    -6.4857    -0.3645 H       
@<TRIPOS>BOND
   1    1    2 1
   2    1    7 1
   3    1    8 1
   4    2    3 1
   5    2   10 2
   6    3    4 1
   7    3   36 1
   8    3   37 1
   9    4    5 1
  10    4   14 1
  11    5    6 1
  12    5   38 1
  13    5   39 1
  14    6    7 1
  15    6   40 1
  16    6   41 1
  17    7   42 1
  18    7   43 1
  19    8    9 2
  20    8   15 1
  21    9   10 1
  22   10   11 1
  23   11   12 2
  24   11   13 am
  25   13   22 1
  26   13   44 1
  27   14   45 1
  28   14   46 1
  29   14   47 1
  30   15   16 ar
  31   15   20 ar
  32   16   17 ar
  33   16   48 1
  34   17   18 ar
  35   17   49 1
  36   18   19 ar
  37   18   34 1
  38   19   20 ar
  39   19   50 1
  40   20   35 1
  41   21   27 am
  42   21   33 2
  43   21   22 1
  44   22   23 1
  45   22   51 1
  46   23   24 1
  47   23   25 1
  48   23   26 1
  49   24   52 1
  50   24   53 1
  51   24   54 1
  52   25   55 1
  53   25   56 1
  54   25   57 1
  55   26   58 1
  56   26   59 1
  57   26   60 1
  58   27   28 1
  59   27   30 1
  60   28   29 1
  61   28   61 1
  62   28   62 1
  63   29   30 1
  64   29   31 1
  65   29   32 1
  66   30   63 1
  67   30   64 1

#	End of record

