#	Name: ASD03092095
#	Creating user name:	WinNT
#	Creation time:	15. 06. 2019 20:31

#	Modifying user name:	WinNT
#	Modification time:	15. 06. 2019 20:31

#	Program:	/corina/corina34_cracker 3.40 0067  02.08.2006

@<TRIPOS>MOLECULE
ASD03092095
  47   49    0    0    0
SMALL
NO_CHARGES


@<TRIPOS>ATOM
   1 N1             0.1399     1.5185     0.0346 N.am    
   2 C2             0.1271     0.1499    -0.0406 C.2     
   3 C3            -1.1776    -0.2428    -0.0882 C.2     
   4 C4            -1.9758     0.9115    -0.0410 C.2     
   5 N5            -1.1897     1.9591     0.0382 N.2     
   6 N6            -3.3727     0.9394    -0.0674 N.pl3   
   7 C7            -4.0502     2.1518     0.0845 C.ar    
   8 C8            -3.5040     3.3217    -0.4251 C.ar    
   9 C9            -4.1792     4.5226    -0.2723 C.ar    
  10 C10           -5.3988     4.5527     0.3893 C.ar    
  11 C11           -5.2747     2.1872     0.7411 C.ar    
  12 C12            1.3101    -0.7370    -0.0655 C.ar    
  13 C13            1.2358     2.3002     0.0993 C.2     
  14 C14            1.3012    -1.9670     0.6026 C.ar    
  15 C15            2.4266    -2.7629     0.5531 C.ar    
  16 N16            3.4997    -2.3785    -0.1114 N.ar    
  17 C17            3.5502    -1.2274    -0.7545 C.ar    
  18 C18            2.4679    -0.3725    -0.7625 C.ar    
  19 C19            4.8054    -0.8444    -1.4953 C.3     
  20 C20           -5.9413     3.3868     0.8961 C.ar    
  21 N21            1.1104     3.6415     0.0560 N.am    
  22 O22            2.3371     1.7958     0.1966 O.2     
  23 C23            2.3017     4.4912     0.1263 C.3     
  24 C24            2.4308    -4.0894     1.2683 C.3     
  25 O25           -3.6471     5.6699    -0.7696 O.3     
  26 C26           -4.3974     6.8704    -0.5756 C.3     
  27 F27           -4.5675     7.0979     0.7942 F       
  28 F28           -3.7097     7.9473    -1.1453 F       
  29 F29           -5.6496     6.7414    -1.1860 F       
  30 H30           -1.5338    -1.2604    -0.1510 H       
  31 H31           -3.8720     0.1170    -0.1912 H       
  32 H32           -2.5546     3.2965    -0.9393 H       
  33 H33           -5.9246     5.4885     0.5086 H       
  34 H34           -5.7029     1.2770     1.1341 H       
  35 H35            0.4265    -2.2879     1.1487 H       
  36 H36            2.5161     0.5680    -1.2913 H       
  37 H37            4.7479    -1.2094    -2.5207 H       
  38 H38            4.9070     0.2409    -1.5010 H       
  39 H39            5.6693    -1.2875    -0.9998 H       
  40 H40           -6.8904     3.4133     1.4108 H       
  41 H41            0.2314     4.0441    -0.0217 H       
  42 H42            2.8254     4.3058     1.0642 H       
  43 H43            2.9619     4.2613    -0.7100 H       
  44 H44            2.0043     5.5387     0.0772 H       
  45 H45            2.0711    -4.8667     0.5942 H       
  46 H46            3.4456    -4.3266     1.5879 H       
  47 H47            1.7789    -4.0342     2.1401 H       
@<TRIPOS>BOND
   1    1    2 1
   2    1   13 am
   3    1    5 1
   4    2    3 2
   5    2   12 1
   6    3    4 1
   7    3   30 1
   8    4    5 2
   9    4    6 1
  10    6    7 1
  11    6   31 1
  12    7    8 ar
  13    7   11 ar
  14    8    9 ar
  15    8   32 1
  16    9   10 ar
  17    9   25 1
  18   10   20 ar
  19   10   33 1
  20   11   20 ar
  21   11   34 1
  22   12   14 ar
  23   12   18 ar
  24   13   21 am
  25   13   22 2
  26   14   15 ar
  27   14   35 1
  28   15   16 ar
  29   15   24 1
  30   16   17 ar
  31   17   18 ar
  32   17   19 1
  33   18   36 1
  34   19   37 1
  35   19   38 1
  36   19   39 1
  37   20   40 1
  38   21   23 1
  39   21   41 1
  40   23   42 1
  41   23   43 1
  42   23   44 1
  43   24   45 1
  44   24   46 1
  45   24   47 1
  46   25   26 1
  47   26   27 1
  48   26   28 1
  49   26   29 1

#	End of record

