#	Name: ASD01209400
#	Creating user name:	WinNT
#	Creation time:	15. 06. 2019 19:11

#	Modifying user name:	WinNT
#	Modification time:	15. 06. 2019 19:11

#	Program:	/corina/corina34_cracker 3.40 0067  02.08.2006

@<TRIPOS>MOLECULE
ASD01209400
  57   59    0    0    0
SMALL
NO_CHARGES


@<TRIPOS>ATOM
   1 C1             0.0807     1.4195     0.3860 C.2     
   2 C2            -0.0016    -0.0513     0.3163 C.ar    
   3 C3            -1.2488    -0.6939     0.2842 C.ar    
   4 C4            -1.2771    -2.0613     0.2195 C.ar    
   5 C5            -0.0780    -2.7691     0.1876 C.ar    
   6 N6             1.0870    -2.1380     0.2195 N.ar    
   7 C7             1.1601    -0.8246     0.2754 C.ar    
   8 O8            -0.9360     2.0841     0.4161 O.2     
   9 O9             1.2834     2.0261     0.4219 O.3     
  10 N10           -0.1035    -4.1568     0.1220 N.am    
  11 C11            1.0462    -4.8460    -0.0177 C.2     
  12 O12            2.0924    -4.2541    -0.1783 O.2     
  13 C13            1.0318    -6.3523     0.0257 C.3     
  14 O14            2.3618    -6.8466    -0.1442 O.3     
  15 N15            2.0593    -8.9530    -1.2020 N.am    
  16 C16            2.4821    -8.2607     0.0225 C.3     
  17 C17            3.9298    -8.6396     0.2315 C.2     
  18 C18            4.2677    -9.4502    -0.7663 C.2     
  19 C19            3.1187    -9.6488    -1.6557 C.2     
  20 O20            3.1223   -10.3407    -2.6558 O.2     
  21 C21            5.6273   -10.0722    -0.9550 C.3     
  22 C22            4.8219    -8.1842     1.3575 C.3     
  23 C23            0.7289    -8.9009    -1.8131 C.3     
  24 C24           -0.1719    -9.9055    -1.1418 C.ar    
  25 C25           -0.8389    -9.5659     0.0207 C.ar    
  26 C26           -1.6652   -10.4850     0.6379 C.ar    
  27 C27           -1.8254   -11.7496     0.0903 C.ar    
  28 C28           -1.1550   -12.0878    -1.0762 C.ar    
  29 C29           -0.3343   -11.1632    -1.6927 C.ar    
  30 O30           -2.6374   -12.6556     0.6959 O.3     
  31 C31           -2.7547   -13.9378     0.0761 C.3     
  32 C32            1.2884     3.4764     0.4902 C.3     
  33 H33           -2.1652    -0.1230     0.3103 H       
  34 H34           -2.2206    -2.5863     0.1938 H       
  35 H35            2.1261    -0.3420     0.2950 H       
  36 H36           -0.9488    -4.6295     0.1766 H       
  37 H37            0.6409    -6.6844     0.9875 H       
  38 H38            0.3977    -6.7328    -0.7751 H       
  39 H39            1.8798    -8.5917     0.8686 H       
  40 H40            5.6618   -11.0329    -0.4411 H       
  41 H41            5.8139   -10.2220    -2.0184 H       
  42 H42            6.3895    -9.4116    -0.5419 H       
  43 H43            4.7440    -8.8850     2.1888 H       
  44 H44            5.8544    -8.1457     1.0103 H       
  45 H45            4.5124    -7.1927     1.6880 H       
  46 H46            0.3121    -7.9011    -1.6917 H       
  47 H47            0.8072    -9.1355    -2.8747 H       
  48 H48           -0.7136    -8.5815     0.4468 H       
  49 H49           -2.1857   -10.2194     1.5462 H       
  50 H50           -1.2781   -13.0716    -1.5044 H       
  51 H51            0.1841   -11.4244    -2.6034 H       
  52 H52           -3.1497   -13.8189    -0.9329 H       
  53 H53           -1.7732   -14.4097     0.0287 H       
  54 H54           -3.4306   -14.5629     0.6595 H       
  55 H55            0.7813     3.8831    -0.3848 H       
  56 H56            0.7704     3.7995     1.3932 H       
  57 H57            2.3173     3.8355     0.5134 H       
@<TRIPOS>BOND
   1    1    2 1
   2    1    8 2
   3    1    9 1
   4    2    3 ar
   5    2    7 ar
   6    3    4 ar
   7    3   33 1
   8    4    5 ar
   9    4   34 1
  10    5    6 ar
  11    5   10 1
  12    6    7 ar
  13    7   35 1
  14    9   32 1
  15   10   11 am
  16   10   36 1
  17   11   12 2
  18   11   13 1
  19   13   14 1
  20   13   37 1
  21   13   38 1
  22   14   16 1
  23   15   16 1
  24   15   19 am
  25   15   23 1
  26   16   17 1
  27   16   39 1
  28   17   18 2
  29   17   22 1
  30   18   19 1
  31   18   21 1
  32   19   20 2
  33   21   40 1
  34   21   41 1
  35   21   42 1
  36   22   43 1
  37   22   44 1
  38   22   45 1
  39   23   24 1
  40   23   46 1
  41   23   47 1
  42   24   25 ar
  43   24   29 ar
  44   25   26 ar
  45   25   48 1
  46   26   27 ar
  47   26   49 1
  48   27   28 ar
  49   27   30 1
  50   28   29 ar
  51   28   50 1
  52   29   51 1
  53   30   31 1
  54   31   52 1
  55   31   53 1
  56   31   54 1
  57   32   55 1
  58   32   56 1
  59   32   57 1

#	End of record

