#	Name: ASD01814708
#	Creating user name:	WinNT
#	Creation time:	15. 06. 2019 19:32

#	Modifying user name:	WinNT
#	Modification time:	15. 06. 2019 19:32

#	Program:	/corina/corina34_cracker 3.40 0067  02.08.2006

@<TRIPOS>MOLECULE
ASD01814708
  52   56    0    0    0
SMALL
NO_CHARGES


@<TRIPOS>ATOM
   1 O1            -0.0173     1.4248     0.0099 O.3     
   2 C2             0.0021    -0.0041     0.0020 C.3     
   3 H3             0.5123    -0.3556    -0.8948 H       
   4 C4             0.7421    -0.5109     1.2415 C.3     
   5 C5             0.7628    -2.0407     1.2331 C.3     
   6 C6            -0.6726    -2.5703     1.2440 C.3     
   7 C7            -1.4126    -2.0635     0.0045 C.3     
   8 C8            -1.4333    -0.5336     0.0129 C.3     
   9 H9            -1.9435    -0.1821     0.9097 H       
  10 N10           -2.1419    -0.0483    -1.1740 N.am    
  11 N11           -1.6664    -0.3834    -2.4436 N.2     
  12 C12           -2.2503     0.0161    -3.5358 C.2     
  13 C13           -3.4099     0.8195    -3.4821 C.ar    
  14 C14           -3.9350     1.1888    -2.2295 C.ar    
  15 C15           -5.0872     1.9876    -2.1516 C.ar    
  16 C16           -5.7198     2.4208    -3.2679 C.ar    
  17 C17           -6.9533     3.2762    -3.1342 C.3     
  18 C18           -8.1799     2.4039    -3.2075 C.ar    
  19 C19           -8.7779     2.1351    -4.4294 C.ar    
  20 C20           -9.9041     1.3274    -4.4496 C.ar    
  21 C21          -10.3908     0.8197    -3.2582 C.ar    
  22 Cl22         -11.8003    -0.1938    -3.2690 Cl      
  23 N23           -9.7952     1.0969    -2.1135 N.ar    
  24 C24           -8.7192     1.8574    -2.0585 C.ar    
  25 C25           -5.2452     2.0864    -4.5535 C.ar    
  26 C26           -5.9035     2.5379    -5.7075 C.ar    
  27 C27           -5.4221     2.1995    -6.9371 C.ar    
  28 C28           -4.2841     1.4102    -7.0675 C.ar    
  29 C29           -3.6197     0.9543    -5.9662 C.ar    
  30 C30           -4.0866     1.2834    -4.6901 C.ar    
  31 C31           -3.2482     0.7118    -1.0237 C.2     
  32 O32           -3.6634     0.9977     0.0858 O.2     
  33 H33            0.8606     1.8301     0.0037 H       
  34 H34            1.7647    -0.1336     1.2338 H       
  35 H35            0.2319    -0.1594     2.1383 H       
  36 H36            1.2730    -2.3923     0.3363 H       
  37 H37            1.2900    -2.4018     2.1162 H       
  38 H38           -0.6578    -3.6602     1.2380 H       
  39 H39           -1.1828    -2.2188     2.1408 H       
  40 H40           -0.9024    -2.4150    -0.8923 H       
  41 H41           -2.4352    -2.4408     0.0122 H       
  42 H42           -1.8430    -0.2700    -4.4942 H       
  43 H43           -5.4767     2.2616    -1.1823 H       
  44 H44           -6.9333     3.7953    -2.1759 H       
  45 H45           -6.9782     4.0068    -3.9427 H       
  46 H46           -8.3758     2.5458    -5.3438 H       
  47 H47          -10.3957     1.0975    -5.3834 H       
  48 H48           -8.2565     2.0589    -1.1037 H       
  49 H49           -6.7886     3.1509    -5.6219 H       
  50 H50           -5.9317     2.5490    -7.8228 H       
  51 H51           -3.9222     1.1547    -8.0525 H       
  52 H52           -2.7372     0.3421    -6.0798 H       
@<TRIPOS>BOND
   1    1    2 1
   2    1   33 1
   3    2    3 1
   4    2    8 1
   5    2    4 1
   6    4    5 1
   7    4   34 1
   8    4   35 1
   9    5    6 1
  10    5   36 1
  11    5   37 1
  12    6    7 1
  13    6   38 1
  14    6   39 1
  15    7    8 1
  16    7   40 1
  17    7   41 1
  18    8    9 1
  19    8   10 1
  20   10   31 am
  21   10   11 1
  22   11   12 2
  23   12   13 1
  24   12   42 1
  25   13   30 ar
  26   13   14 ar
  27   14   15 ar
  28   14   31 1
  29   15   16 ar
  30   15   43 1
  31   16   17 1
  32   16   25 ar
  33   17   18 1
  34   17   44 1
  35   17   45 1
  36   18   24 ar
  37   18   19 ar
  38   19   20 ar
  39   19   46 1
  40   20   21 ar
  41   20   47 1
  42   21   22 1
  43   21   23 ar
  44   23   24 ar
  45   24   48 1
  46   25   30 ar
  47   25   26 ar
  48   26   27 ar
  49   26   49 1
  50   27   28 ar
  51   27   50 1
  52   28   29 ar
  53   28   51 1
  54   29   30 ar
  55   29   52 1
  56   31   32 2

#	End of record

