#	Name: ASD02030676
#	Creating user name:	WinNT
#	Creation time:	15. 06. 2019 20:15

#	Modifying user name:	WinNT
#	Modification time:	15. 06. 2019 20:15

#	Program:	/corina/corina34_cracker 3.40 0067  02.08.2006

@<TRIPOS>MOLECULE
ASD02030676
  44   46    0    0    0
SMALL
NO_CHARGES


@<TRIPOS>ATOM
   1 N1            -0.0436     1.4272     0.1812 N.am    
   2 C2            -0.1954     0.0880     0.1735 C.2     
   3 C3            -1.5446    -0.5025     0.2716 C.ar    
   4 O4             0.7793    -0.6338     0.0856 O.2     
   5 C5            -1.7041    -1.8906     0.2638 C.ar    
   6 C6            -2.9648    -2.4375     0.3555 C.ar    
   7 C7            -4.0773    -1.6108     0.4553 C.ar    
   8 C8            -3.9231    -0.2298     0.4630 C.ar    
   9 C9            -2.6654     0.3251     0.3784 C.ar    
  10 O10           -5.3185    -2.1540     0.5451 O.3     
  11 C11           -5.5970    -2.8627     1.6562 C.2     
  12 N12           -6.7715    -3.5151     1.7627 N.am    
  13 O13           -4.7893    -2.9138     2.5626 O.2     
  14 C14            1.2391     1.9859     0.2107 C.ar    
  15 C15            2.2591     1.3504     0.8975 C.ar    
  16 C16            3.5337     1.8969     0.9322 C.ar    
  17 C17            3.8044     3.0721     0.2895 C.ar    
  18 C18            2.7914     3.7326    -0.4106 C.ar    
  19 C19            1.4982     3.1848    -0.4575 C.ar    
  20 C20           -7.0744    -4.2859     2.9711 C.3     
  21 C21           -7.7453    -3.4535     0.6699 C.3     
  22 C22           -7.7757    -3.3841     3.9888 C.3     
  23 C23            2.7339     4.9728    -1.1881 C.2     
  24 C24            1.4734     5.0998    -1.6324 C.2     
  25 N25            0.7204     4.0404    -1.2066 N.pl3   
  26 H26           -0.8234     2.0038     0.1623 H       
  27 H27           -0.8400    -2.5337     0.1855 H       
  28 H28           -3.0889    -3.5103     0.3495 H       
  29 H29           -4.7904     0.4093     0.5400 H       
  30 H30           -2.5464     1.3985     0.3844 H       
  31 H31            2.0609     0.4213     1.4111 H       
  32 H32            4.3191     1.3891     1.4724 H       
  33 H33            4.7987     3.4922     0.3266 H       
  34 H34           -7.7265    -5.1210     2.7155 H       
  35 H35           -6.1479    -4.6668     3.4009 H       
  36 H36           -7.5623    -4.2719    -0.0264 H       
  37 H37           -8.7531    -3.5405     1.0760 H       
  38 H38           -7.6451    -2.5024     0.1471 H       
  39 H39           -8.7022    -3.0033     3.5591 H       
  40 H40           -8.0011    -3.9576     4.8880 H       
  41 H41           -7.1235    -2.5490     4.2445 H       
  42 H42            3.5507     5.6557    -1.3693 H       
  43 H43            1.1089     5.9157    -2.2389 H       
  44 H44           -0.2208     3.9112    -1.4020 H       
@<TRIPOS>BOND
   1    1    2 am
   2    1   14 1
   3    1   26 1
   4    2    3 1
   5    2    4 2
   6    3    5 ar
   7    3    9 ar
   8    5    6 ar
   9    5   27 1
  10    6    7 ar
  11    6   28 1
  12    7    8 ar
  13    7   10 1
  14    8    9 ar
  15    8   29 1
  16    9   30 1
  17   10   11 1
  18   11   12 am
  19   11   13 2
  20   12   20 1
  21   12   21 1
  22   14   15 ar
  23   14   19 ar
  24   15   16 ar
  25   15   31 1
  26   16   17 ar
  27   16   32 1
  28   17   18 ar
  29   17   33 1
  30   18   19 ar
  31   18   23 1
  32   19   25 1
  33   20   22 1
  34   20   34 1
  35   20   35 1
  36   21   36 1
  37   21   37 1
  38   21   38 1
  39   22   39 1
  40   22   40 1
  41   22   41 1
  42   23   24 2
  43   23   42 1
  44   24   25 1
  45   24   43 1
  46   25   44 1

#	End of record

