#	Name: ASD02408008
#	Creating user name:	WinNT
#	Creation time:	15. 06. 2019 20:20

#	Modifying user name:	WinNT
#	Modification time:	15. 06. 2019 20:20

#	Program:	/corina/corina34_cracker 3.40 0067  02.08.2006

@<TRIPOS>MOLECULE
ASD02408008
  44   46    0    0    0
SMALL
NO_CHARGES


@<TRIPOS>ATOM
   1 C1            -0.1274     1.5721     0.0063 C.ar    
   2 C2            -0.1713     0.1914     0.0487 C.ar    
   3 C3             1.2010     2.2839    -0.0007 C.3     
   4 C4             1.6598     2.4771    -1.4230 C.2     
   5 N5             2.8336     3.0979    -1.6499 N.am    
   6 N6             0.9092     2.0326    -2.3941 N.2     
   7 C7             1.2664     2.1757    -3.6768 C.2     
   8 C8             2.4765     2.8187    -3.9854 C.2     
   9 C9             3.2754     3.2874    -2.9110 C.2     
  10 N10            0.4585     1.6984    -4.6796 N.pl3   
  11 O11            4.3347     3.8524    -3.1221 O.2     
  12 C12           -1.3899    -0.4616     0.0551 C.ar    
  13 C13           -2.5642     0.2664     0.0198 C.ar    
  14 C14           -2.5203     1.6476    -0.0217 C.ar    
  15 C15           -1.3020     2.3002    -0.0353 C.ar    
  16 C16            0.2910     2.3080    -6.0114 C.3     
  17 C17           -1.4378    -1.9672     0.1003 C.3     
  18 C18           -1.0956     1.8193    -6.4996 C.3     
  19 C19           -1.1263     0.3690    -5.9490 C.3     
  20 C20           -0.3776     0.4914    -4.6050 C.3     
  21 C21            0.4977    -0.7436    -4.3826 C.3     
  22 O22            1.3463    -0.9364    -5.5161 O.3     
  23 C23            2.8938     2.9913    -5.3444 C.1     
  24 N24            3.2249     3.1282    -6.4224 N.1     
  25 H25            0.7463    -0.3775     0.0763 H       
  26 H26            1.0951     3.2554     0.4821 H       
  27 H27            1.9356     1.6875     0.5403 H       
  28 H28            3.3651     3.4113    -0.9014 H       
  29 H29           -3.5162    -0.2437     0.0241 H       
  30 H30           -3.4379     2.2165    -0.0497 H       
  31 H31           -1.2676     3.3792    -0.0677 H       
  32 H32            0.3048     3.3953    -5.9354 H       
  33 H33            1.0740     1.9642    -6.6872 H       
  34 H34           -1.4606    -2.2990     1.1383 H       
  35 H35           -2.3332    -2.3178    -0.4130 H       
  36 H36           -0.5542    -2.3737    -0.3918 H       
  37 H37           -1.8960     2.4188    -6.0661 H       
  38 H38           -1.1508     1.8252    -7.5882 H       
  39 H39           -2.1528     0.0376    -5.7926 H       
  40 H40           -0.5989    -0.3093    -6.6197 H       
  41 H41           -1.0939     0.5924    -3.7896 H       
  42 H42            1.1088    -0.6001    -3.4914 H       
  43 H43           -0.1370    -1.6198    -4.2507 H       
  44 H44            1.9304    -1.7036    -5.4441 H       
@<TRIPOS>BOND
   1    1    2 ar
   2    1    3 1
   3    1   15 ar
   4    2   12 ar
   5    2   25 1
   6    3    4 1
   7    3   26 1
   8    3   27 1
   9    4    5 1
  10    4    6 2
  11    5    9 am
  12    5   28 1
  13    6    7 1
  14    7    8 2
  15    7   10 1
  16    8    9 1
  17    8   23 1
  18    9   11 2
  19   10   16 1
  20   10   20 1
  21   12   13 ar
  22   12   17 1
  23   13   14 ar
  24   13   29 1
  25   14   15 ar
  26   14   30 1
  27   15   31 1
  28   16   18 1
  29   16   32 1
  30   16   33 1
  31   17   34 1
  32   17   35 1
  33   17   36 1
  34   18   19 1
  35   18   37 1
  36   18   38 1
  37   19   20 1
  38   19   39 1
  39   19   40 1
  40   20   21 1
  41   20   41 1
  42   21   22 1
  43   21   42 1
  44   21   43 1
  45   22   44 1
  46   23   24 3

#	End of record

