#	Name: ASD06170159
#	Creating user name:	WinNT
#	Creation time:	15. 06. 2019 21:05

#	Modifying user name:	WinNT
#	Modification time:	15. 06. 2019 21:05

#	Program:	/corina/corina34_cracker 3.40 0067  02.08.2006

@<TRIPOS>MOLECULE
ASD06170159
  58   61    0    0    0
SMALL
NO_CHARGES


@<TRIPOS>ATOM
   1 N1            -0.0295     1.1861     0.0772 N.pl3   
   2 N2             0.2488    -0.1790    -0.0396 N.am    
   3 C3             1.5867    -0.3494    -0.0017 C.2     
   4 C4             2.1748     0.9911     0.1478 C.2     
   5 C5             1.1189     1.8805     0.1887 C.2     
   6 C6             3.6029     1.3187     0.2366 C.2     
   7 O7             3.9550     2.4771     0.3598 O.2     
   8 N8             4.5243     0.3366     0.1816 N.am    
   9 C9            -0.7006    -1.1974    -0.1730 C.ar    
  10 C10           -1.6909    -1.1030    -1.1422 C.ar    
  11 C11           -2.6269    -2.1103    -1.2713 C.ar    
  12 C12           -2.5791    -3.2118    -0.4366 C.ar    
  13 C13           -1.5944    -3.3088     0.5294 C.ar    
  14 C14           -0.6517    -2.3079     0.6596 C.ar    
  15 O15            2.1886    -1.4043    -0.0763 O.2     
  16 C16            1.2328     3.3763     0.3331 C.3     
  17 C17           -1.3712     1.7744     0.0726 C.3     
  18 C18           -1.8829     1.8885     1.5100 C.3     
  19 C19           -3.2841     2.5029     1.5053 C.3     
  20 O20           -1.9347     0.5887     2.1017 O.3     
  21 C21            5.8876     0.6558     0.1626 C.ar    
  22 C22            6.3567     1.7426     0.8891 C.ar    
  23 C23            7.7026     2.0568     0.8697 C.ar    
  24 C24            8.5851     1.2851     0.1235 C.ar    
  25 C25            8.1157     0.2005    -0.6013 C.ar    
  26 C26            6.7715    -0.1175    -0.5777 C.ar    
  27 F27            8.1599     3.1141     1.5756 F       
  28 O28            9.9095     1.5943     0.1038 O.3     
  29 C29           10.8972    -0.0078     3.1040 C.ar    
  30 N30           10.1476     0.4585     2.1257 N.ar    
  31 C31           10.6888     1.1188     1.1055 C.ar    
  32 C32           12.0643     1.3137     1.0811 C.ar    
  33 C33           12.8214     0.8056     2.1334 C.ar    
  34 N34           12.2042     0.1558     3.1181 N.ar    
  35 N35           14.1972     0.9733     2.1552 N.pl3   
  36 H36            4.2430    -0.5914     0.1551 H       
  37 H37           -1.7292    -0.2427    -1.7940 H       
  38 H38           -3.3972    -2.0375    -2.0248 H       
  39 H39           -3.3126    -3.9978    -0.5391 H       
  40 H40           -1.5600    -4.1701     1.1800 H       
  41 H41            0.1200    -2.3865     1.4111 H       
  42 H42            1.2188     3.6413     1.3903 H       
  43 H43            2.1676     3.7143    -0.1139 H       
  44 H44            0.3942     3.8550    -0.1726 H       
  45 H45           -1.3317     2.7658    -0.3787 H       
  46 H46           -2.0444     1.1395    -0.5034 H       
  47 H47           -1.2098     2.5234     2.0861 H       
  48 H48           -3.6487     2.5841     2.5293 H       
  49 H49           -3.2446     3.4942     1.0539 H       
  50 H50           -3.9573     1.8680     0.9292 H       
  51 H51           -2.2511     0.5849     3.0155 H       
  52 H52            5.6701     2.3421     1.4685 H       
  53 H53            8.8020    -0.3986    -1.1813 H       
  54 H54            6.4075    -0.9655    -1.1388 H       
  55 H55           10.4259    -0.5356     3.9199 H       
  56 H56           12.5341     1.8453     0.2668 H       
  57 H57           14.6395     1.4476     1.4339 H       
  58 H58           14.7176     0.6164     2.8918 H       
@<TRIPOS>BOND
   1    1    2 1
   2    1    5 1
   3    1   17 1
   4    2    3 am
   5    2    9 1
   6    3    4 1
   7    3   15 2
   8    4    5 2
   9    4    6 1
  10    5   16 1
  11    6    7 2
  12    6    8 am
  13    8   21 1
  14    8   36 1
  15    9   10 ar
  16    9   14 ar
  17   10   11 ar
  18   10   37 1
  19   11   12 ar
  20   11   38 1
  21   12   13 ar
  22   12   39 1
  23   13   14 ar
  24   13   40 1
  25   14   41 1
  26   16   42 1
  27   16   43 1
  28   16   44 1
  29   17   18 1
  30   17   45 1
  31   17   46 1
  32   18   19 1
  33   18   20 1
  34   18   47 1
  35   19   48 1
  36   19   49 1
  37   19   50 1
  38   20   51 1
  39   21   22 ar
  40   21   26 ar
  41   22   23 ar
  42   22   52 1
  43   23   24 ar
  44   23   27 1
  45   24   25 ar
  46   24   28 1
  47   25   26 ar
  48   25   53 1
  49   26   54 1
  50   28   31 1
  51   29   30 ar
  52   29   34 ar
  53   29   55 1
  54   30   31 ar
  55   31   32 ar
  56   32   33 ar
  57   32   56 1
  58   33   34 ar
  59   33   35 1
  60   35   57 1
  61   35   58 1

#	End of record

