#	Name: ASD01870250
#	Creating user name:	WinNT
#	Creation time:	15. 06. 2019 19:38

#	Modifying user name:	WinNT
#	Modification time:	15. 06. 2019 19:38

#	Program:	/corina/corina34_cracker 3.40 0067  02.08.2006

@<TRIPOS>MOLECULE
ASD01870250
  51   54    0    0    0
SMALL
NO_CHARGES


@<TRIPOS>ATOM
   1 N1            -0.0128     1.3117     0.1736 N.ar    
   2 C2             0.0044    -0.0066     0.1277 C.ar    
   3 C3            -1.2962    -0.7678     0.1364 C.3     
   4 C4             1.1973    -0.6978     0.0714 C.ar    
   5 C5             2.3967     0.0195     0.0635 C.ar    
   6 C6             2.3321     1.4147     0.1133 C.ar    
   7 C7             1.0963     2.0260     0.1680 C.ar    
   8 C8             1.0124     3.5297     0.2220 C.3     
   9 C9             3.7034    -0.6812     0.0042 C.ar    
  10 C10            3.7469    -2.0743    -0.0444 C.ar    
  11 C11            4.9618    -2.7306    -0.0992 C.ar    
  12 C12            6.1405    -2.0137    -0.1066 C.ar    
  13 C13            4.8858     0.0505    -0.0085 C.ar    
  14 C14            6.1112    -0.6160    -0.0586 C.ar    
  15 C15            7.3692     0.1499    -0.0659 C.2     
  16 N16            7.3213     1.4292    -0.1572 N.2     
  17 C17            8.3842     2.2726    -0.2106 C.ar    
  18 C18            8.3051     3.3388    -1.1224 C.ar    
  19 C19            9.3364     4.2427    -1.2341 C.ar    
  20 C20            9.2371     5.3815    -2.2161 C.3     
  21 C21            8.6778    -0.5881     0.0400 C.3     
  22 C22            9.3602    -0.1554     1.3131 C.2     
  23 O23            9.6014    -0.9760     2.1730 O.2     
  24 N24            9.7016     1.1193     1.5036 N.am    
  25 C25            9.5247     2.1357     0.5797 C.ar    
  26 C26           10.5589     3.0642     0.4531 C.ar    
  27 C27           10.4650     4.1064    -0.4443 C.ar    
  28 C28           11.5927     5.0987    -0.5657 C.3     
  29 F29           12.6140     4.7554     0.3266 F       
  30 F30           12.0903     5.0816    -1.8731 F       
  31 F31           11.1205     6.3804    -0.2632 F       
  32 H32           -1.6374    -0.9160    -0.8881 H       
  33 H33           -1.1470    -1.7365     0.6134 H       
  34 H34           -2.0449    -0.2016     0.6904 H       
  35 H35            1.2040    -1.7771     0.0345 H       
  36 H36            3.2360     2.0057     0.1086 H       
  37 H37            1.0202     3.8569     1.2617 H       
  38 H38            1.8665     3.9603    -0.3008 H       
  39 H39            0.0899     3.8596    -0.2558 H       
  40 H40            2.8282    -2.6420    -0.0390 H       
  41 H41            4.9886    -3.8096    -0.1360 H       
  42 H42            7.0869    -2.5322    -0.1491 H       
  43 H43            4.8563     1.1296     0.0246 H       
  44 H44            7.4267     3.4500    -1.7409 H       
  45 H45            8.7780     6.2419    -1.7294 H       
  46 H46           10.2348     5.6499    -2.5633 H       
  47 H47            8.6266     5.0762    -3.0659 H       
  48 H48            8.4932    -1.6620     0.0683 H       
  49 H49            9.3075    -0.3449    -0.8158 H       
  50 H50           10.1054     1.3527     2.3542 H       
  51 H51           11.4428     2.9655     1.0658 H       
@<TRIPOS>BOND
   1    1    2 ar
   2    1    7 ar
   3    2    3 1
   4    2    4 ar
   5    3   32 1
   6    3   33 1
   7    3   34 1
   8    4    5 ar
   9    4   35 1
  10    5    6 ar
  11    5    9 1
  12    6    7 ar
  13    6   36 1
  14    7    8 1
  15    8   37 1
  16    8   38 1
  17    8   39 1
  18    9   10 ar
  19    9   13 ar
  20   10   11 ar
  21   10   40 1
  22   11   12 ar
  23   11   41 1
  24   12   14 ar
  25   12   42 1
  26   13   14 ar
  27   13   43 1
  28   14   15 1
  29   15   16 2
  30   15   21 1
  31   16   17 1
  32   17   18 ar
  33   17   25 ar
  34   18   19 ar
  35   18   44 1
  36   19   20 1
  37   19   27 ar
  38   20   45 1
  39   20   46 1
  40   20   47 1
  41   21   22 1
  42   21   48 1
  43   21   49 1
  44   22   23 2
  45   22   24 am
  46   24   25 1
  47   24   50 1
  48   25   26 ar
  49   26   27 ar
  50   26   51 1
  51   27   28 1
  52   28   29 1
  53   28   30 1
  54   28   31 1

#	End of record

