#	Name: ASD01870500
#	Creating user name:	WinNT
#	Creation time:	15. 06. 2019 19:39

#	Modifying user name:	WinNT
#	Modification time:	15. 06. 2019 19:39

#	Program:	/corina/corina34_cracker 3.40 0067  02.08.2006

@<TRIPOS>MOLECULE
ASD01870500
  40   43    0    0    0
SMALL
NO_CHARGES


@<TRIPOS>ATOM
   1 C1            -0.0305     1.4002    -0.2322 C.ar    
   2 C2            -0.0275     0.0162    -0.1040 C.ar    
   3 C3             1.1507    -0.6608     0.1413 C.ar    
   4 C4             2.3475     0.0296     0.2633 C.ar    
   5 C5             2.3622     1.4087     0.1379 C.ar    
   6 C6             1.1606     2.1035    -0.1127 C.ar    
   7 C7             3.4184     2.4404     0.2060 C.2     
   8 N8             2.8535     3.6449     0.0064 N.am    
   9 C9             1.5272     3.5314    -0.1872 C.2     
  10 O10            0.7595     4.4505    -0.3911 O.2     
  11 O11            4.5982     2.2352     0.4086 O.2     
  12 C12            3.5553     4.8602     0.0029 C.ar    
  13 C13            4.0864     5.3516    -1.1819 C.ar    
  14 C14            4.7772     6.5467    -1.1858 C.ar    
  15 C15            4.9412     7.2584    -0.0041 C.ar    
  16 C16            4.4098     6.7677     1.1814 C.ar    
  17 C17            3.7136     5.5743     1.1840 C.ar    
  18 Cl18           3.0429     4.9638     2.6643 Cl      
  19 N19            5.6424     8.4695    -0.0082 N.am    
  20 C20            6.4148     8.8046     1.0442 C.2     
  21 C21            7.2330    10.0293     0.9974 C.2     
  22 O22            6.4365     8.0962     2.0326 O.2     
  23 N23            8.0554    10.4810     1.9912 N.pl3   
  24 C24            8.6203    11.6351     1.5467 C.2     
  25 C25            8.1350    11.8619     0.3014 C.2     
  26 N26            7.3014    10.8725    -0.0109 N.2     
  27 C27            8.2846     9.8428     3.2898 C.3     
  28 F28           -1.1854     2.0571    -0.4772 F       
  29 H29           -0.9527    -0.5331    -0.1965 H       
  30 H30            1.1401    -1.7363     0.2393 H       
  31 H31            3.2650    -0.5067     0.4559 H       
  32 H32            3.9594     4.7984    -2.1008 H       
  33 H33            5.1905     6.9284    -2.1077 H       
  34 H34            4.5375     7.3206     2.1003 H       
  35 H35            5.5725     9.0678    -0.7685 H       
  36 H36            9.3227    12.2547     2.0845 H       
  37 H37            8.3854    12.7006    -0.3313 H       
  38 H38            9.1208     9.1481     3.2107 H       
  39 H39            8.5148    10.6053     4.0338 H       
  40 H40            7.3885     9.3001     3.5910 H       
@<TRIPOS>BOND
   1    1    2 ar
   2    1    6 ar
   3    1   28 1
   4    2    3 ar
   5    2   29 1
   6    3    4 ar
   7    3   30 1
   8    4    5 ar
   9    4   31 1
  10    5    7 1
  11    5    6 ar
  12    6    9 1
  13    7    8 am
  14    7   11 2
  15    8    9 am
  16    8   12 1
  17    9   10 2
  18   12   13 ar
  19   12   17 ar
  20   13   14 ar
  21   13   32 1
  22   14   15 ar
  23   14   33 1
  24   15   16 ar
  25   15   19 1
  26   16   17 ar
  27   16   34 1
  28   17   18 1
  29   19   20 am
  30   19   35 1
  31   20   21 1
  32   20   22 2
  33   21   23 1
  34   21   26 2
  35   23   24 1
  36   23   27 1
  37   24   25 2
  38   24   36 1
  39   25   26 1
  40   25   37 1
  41   27   38 1
  42   27   39 1
  43   27   40 1

#	End of record

