#	Name: ASD00311461
#	Creating user name:	WinNT
#	Creation time:	15. 06. 2019 18:34

#	Modifying user name:	WinNT
#	Modification time:	15. 06. 2019 18:34

#	Program:	/corina/corina34_cracker 3.40 0067  02.08.2006

@<TRIPOS>MOLECULE
ASD00311461
  49   53    0    0    0
SMALL
NO_CHARGES


@<TRIPOS>ATOM
   1 C1            -0.0167     1.3777     0.0096 C.2     
   2 C2             0.0021    -0.0041     0.0020 C.2     
   3 C3             1.2588    -0.6767    -0.0143 C.2     
   4 C4             2.4315     0.0672    -0.0223 C.2     
   5 C5             2.3574     1.4751    -0.0140 C.2     
   6 N6             1.1648     2.0902     0.0022 N.am    
   7 C7            -1.3432    -0.5752     0.0126 C.2     
   8 C8            -2.3228     0.3262     0.0274 C.2     
   9 S9            -1.6792     1.9563     0.0358 S.3     
  10 O10            3.3822     2.1373    -0.0204 O.2     
  11 C11           -2.0690    -4.7662    -0.0034 C.ar    
  12 C12           -2.7056    -3.9520     0.9332 C.ar    
  13 C13           -2.4705    -2.5951     0.9390 C.ar    
  14 C14           -1.5956    -2.0347     0.0074 C.ar    
  15 C15           -0.9589    -2.8497    -0.9296 C.ar    
  16 C16           -1.1942    -4.2066    -0.9344 C.ar    
  17 C17           -2.3178    -6.2282    -0.0054 C.ar    
  18 C18           -1.6831    -7.0445    -0.9401 C.ar    
  19 C19           -1.9184    -8.4044    -0.9373 C.ar    
  20 C20           -2.7826    -8.9575    -0.0095 C.ar    
  21 C21           -3.4153    -8.1522     0.9205 C.ar    
  22 C22           -3.1828    -6.7919     0.9310 C.ar    
  23 C23           -3.0362   -10.4430    -0.0122 C.3     
  24 F24           -2.1080   -11.0761     0.8213 F       
  25 F25           -4.3306   -10.6959     0.4544 F       
  26 F26           -2.9055   -10.9360    -1.3149 F       
  27 C27            3.7476    -0.6120    -0.0388 C.ar    
  28 C28            4.5927    -0.4746    -1.1398 C.ar    
  29 C29            5.8176    -1.1099    -1.1493 C.ar    
  30 C30            6.2077    -1.8823    -0.0699 C.ar    
  31 C31            5.3739    -2.0224     1.0251 C.ar    
  32 C32            4.1493    -1.3870     1.0491 C.ar    
  33 O33            1.3087    -2.0292    -0.0217 O.3     
  34 H34            1.1326     3.0597     0.0073 H       
  35 H35           -3.3754     0.0847     0.0363 H       
  36 H36           -3.3832    -4.3857     1.6537 H       
  37 H37           -2.9637    -1.9646     1.6640 H       
  38 H38           -0.2815    -2.4165    -1.6505 H       
  39 H39           -0.7015    -4.8374    -1.6594 H       
  40 H40           -1.0087    -6.6137    -1.6653 H       
  41 H41           -1.4272    -9.0379    -1.6610 H       
  42 H42           -4.0893    -8.5894     1.6422 H       
  43 H43           -3.6738    -6.1647     1.6604 H       
  44 H44            4.2889     0.1275    -1.9833 H       
  45 H45            6.4728    -1.0043    -2.0013 H       
  46 H46            7.1671    -2.3782    -0.0822 H       
  47 H47            5.6838    -2.6270     1.8647 H       
  48 H48            3.5012    -1.4932     1.9065 H       
  49 H49            2.2059    -2.3896    -0.0327 H       
@<TRIPOS>BOND
   1    1    2 2
   2    1    6 1
   3    1    9 1
   4    2    3 1
   5    2    7 1
   6    3    4 2
   7    3   33 1
   8    4    5 1
   9    4   27 1
  10    5    6 am
  11    5   10 2
  12    6   34 1
  13    7    8 2
  14    7   14 1
  15    8    9 1
  16    8   35 1
  17   11   12 ar
  18   11   16 ar
  19   11   17 1
  20   12   13 ar
  21   12   36 1
  22   13   14 ar
  23   13   37 1
  24   14   15 ar
  25   15   16 ar
  26   15   38 1
  27   16   39 1
  28   17   18 ar
  29   17   22 ar
  30   18   19 ar
  31   18   40 1
  32   19   20 ar
  33   19   41 1
  34   20   21 ar
  35   20   23 1
  36   21   22 ar
  37   21   42 1
  38   22   43 1
  39   23   24 1
  40   23   25 1
  41   23   26 1
  42   27   28 ar
  43   27   32 ar
  44   28   29 ar
  45   28   44 1
  46   29   30 ar
  47   29   45 1
  48   30   31 ar
  49   30   46 1
  50   31   32 ar
  51   31   47 1
  52   32   48 1
  53   33   49 1

#	End of record

