#	Name: ASD01150066
#	Creating user name:	WinNT
#	Creation time:	15. 06. 2019 19:03

#	Modifying user name:	WinNT
#	Modification time:	15. 06. 2019 19:03

#	Program:	/corina/corina34_cracker 3.40 0067  02.08.2006

@<TRIPOS>MOLECULE
ASD01150066
  43   45    0    0    0
SMALL
NO_CHARGES


@<TRIPOS>ATOM
   1 C1            -0.0168     1.3850     0.0097 C.2     
   2 C2             0.0021    -0.0041     0.0020 C.2     
   3 N3            -1.2678    -0.4172     0.0119 N.2     
   4 C4            -2.0703     0.6165     0.0251 C.2     
   5 N5            -1.3471     1.7532     0.0298 N.pl3   
   6 C6            -1.8728     3.1206     0.0440 C.3     
   7 C7            -3.5756     0.5459     0.0391 C.3     
   8 C8            -4.0713     0.5149     1.4862 C.3     
   9 C9             1.2064     2.0895     0.0018 C.2     
  10 N10            2.3649     1.3979    -0.0130 N.am    
  11 C11            2.3684     0.0537    -0.0207 C.2     
  12 N12            1.2244    -0.6561    -0.0127 N.am    
  13 O13            3.4318    -0.5360    -0.0348 O.2     
  14 C14            3.6379     2.1228    -0.0213 C.3     
  15 O15            1.2160     3.3074     0.0078 O.2     
  16 C16            4.0880     2.3638     1.3966 C.ar    
  17 C17            4.8868     1.4338     2.0355 C.ar    
  18 C18            5.2999     1.6542     3.3359 C.ar    
  19 C19            4.9138     2.8059     3.9982 C.ar    
  20 C20            4.1144     3.7363     3.3584 C.ar    
  21 C21            3.7066     3.5174     2.0560 C.ar    
  22 Cl22           5.4318     3.0832     5.6318 Cl      
  23 C23            1.2722    -2.1203    -0.0215 C.3     
  24 C24            1.3035    -2.6304     1.3961 C.2     
  25 O25            1.3491    -3.9508     1.6335 O.3     
  26 O26            1.2875    -1.8509     2.3192 O.2     
  27 H27           -1.9973     3.4513     1.0751 H       
  28 H28           -1.1755     3.7833    -0.4685 H       
  29 H29           -2.8368     3.1445    -0.4642 H       
  30 H30           -3.9851     1.4204    -0.4666 H       
  31 H31           -3.9018    -0.3576    -0.4762 H       
  32 H32           -3.7452     1.4183     2.0014 H       
  33 H33           -5.1601     0.4638     1.4963 H       
  34 H34           -3.6619    -0.3597     1.9918 H       
  35 H35            4.3891     1.5320    -0.5455 H       
  36 H36            3.5084     3.0787    -0.5288 H       
  37 H37            5.1878     0.5346     1.5184 H       
  38 H38            5.9236     0.9274     3.8350 H       
  39 H39            3.8127     4.6355     3.8749 H       
  40 H40            3.0825     4.2436     1.5564 H       
  41 H41            0.3892    -2.5096    -0.5284 H       
  42 H42            2.1681    -2.4515    -0.5467 H       
  43 H43            1.3678    -4.2301     2.5591 H       
@<TRIPOS>BOND
   1    1    2 2
   2    1    9 1
   3    1    5 1
   4    2    3 1
   5    2   12 1
   6    3    4 2
   7    4    5 1
   8    4    7 1
   9    5    6 1
  10    6   27 1
  11    6   28 1
  12    6   29 1
  13    7    8 1
  14    7   30 1
  15    7   31 1
  16    8   32 1
  17    8   33 1
  18    8   34 1
  19    9   10 am
  20    9   15 2
  21   10   11 am
  22   10   14 1
  23   11   12 am
  24   11   13 2
  25   12   23 1
  26   14   16 1
  27   14   35 1
  28   14   36 1
  29   16   17 ar
  30   16   21 ar
  31   17   18 ar
  32   17   37 1
  33   18   19 ar
  34   18   38 1
  35   19   20 ar
  36   19   22 1
  37   20   21 ar
  38   20   39 1
  39   21   40 1
  40   23   24 1
  41   23   41 1
  42   23   42 1
  43   24   25 1
  44   24   26 2
  45   25   43 1

#	End of record

