#	Name: ASD00840362
#	Creating user name:	WinNT
#	Creation time:	15. 06. 2019 18:38

#	Modifying user name:	WinNT
#	Modification time:	15. 06. 2019 18:38

#	Program:	/corina/corina34_cracker 3.40 0067  02.08.2006

@<TRIPOS>MOLECULE
ASD00840362
  89   94    0    0    0
SMALL
NO_CHARGES


@<TRIPOS>ATOM
   1 F1            -0.0976    -3.1401     4.7227 F       
   2 N2            -0.0065     1.3225     0.0259 N.ar    
   3 C3             0.0082     0.0001     0.0130 C.ar    
   4 C4             1.2113    -0.6942    -0.0055 C.ar    
   5 C5             2.3987     0.0164    -0.0103 C.ar    
   6 C6             2.3403     1.4034     0.0036 C.ar    
   7 C7             1.1091     2.0274     0.0217 C.ar    
   8 C8             1.2231    -2.2011    -0.0196 C.3     
   9 C9             0.4754    -2.7258    -1.2266 C.2     
  10 N10            2.5997    -2.7022    -0.0111 N.am    
  11 C11            3.4464    -2.3633    -1.0034 C.2     
  12 N12            4.7400    -2.7368    -0.9424 N.am    
  13 O13            3.0433    -1.7206    -1.9535 O.2     
  14 C14            5.2742    -3.4166     0.2474 C.3     
  15 C15            6.0035    -4.6865    -0.2038 C.3     
  16 N16            7.0039    -4.3374    -1.2213 N.3     
  17 C17            6.3692    -3.7824    -2.4243 C.3     
  18 C18            5.6533    -2.4809    -2.0665 C.3     
  19 C19            7.8417    -5.4969    -1.5555 C.3     
  20 C20            8.7865    -5.1316    -2.7037 C.3     
  21 C21            9.6980    -6.3231    -3.0065 C.3     
  22 N22           10.4690    -6.6688    -1.8055 N.3     
  23 C23            9.5845    -7.0687    -0.7036 C.3     
  24 C24            8.6697    -5.8995    -0.3321 C.3     
  25 C25           11.4547    -7.7183    -2.0968 C.3     
  26 O26            0.7558    -2.5267    -2.3897 O.2     
  27 N27           -0.5566    -3.4538    -0.7684 N.am    
  28 C28            0.4501    -2.7478     1.1592 C.ar    
  29 C29           -0.6012    -3.4877     0.6275 C.ar    
  30 C30            0.6196    -2.6303     2.5211 C.ar    
  31 C31           -0.2625    -3.2534     3.3866 C.ar    
  32 C32           -1.3253    -4.0014     2.8700 C.ar    
  33 C33           -1.4910    -4.1167     1.4901 C.ar    
  34 C34           -1.0248    -5.8412    -2.0551 C.ar    
  35 C35           -1.3570    -6.8835    -1.2100 C.ar    
  36 C36           -0.2070    -6.0696    -3.1458 C.ar    
  37 C37            0.2787    -7.3403    -3.3916 C.ar    
  38 C38           -0.0531    -8.3825    -2.5463 C.ar    
  39 C39           -0.8710    -8.1541    -1.4554 C.ar    
  40 H40            0.3263    -9.3752    -2.7383 H       
  41 H41           -1.9960    -6.7051    -0.3577 H       
  42 C42           12.3199    -7.9631    -0.8589 C.3     
  43 C43           10.7275    -9.0104    -2.4743 C.3     
  44 C44           -2.2429    -4.6496     3.7580 C.1     
  45 N45           -2.9709    -5.1638     4.4624 N.1     
  46 S46           -1.6498    -4.2230    -1.7459 S.o2    
  47 O47           -2.8309    -4.3898    -0.9736 O.2     
  48 O48           -1.6255    -3.5389    -2.9912 O.2     
  49 O49           -1.1629    -0.6849     0.0183 O.3     
  50 C50           -3.5737    -0.8523     0.0413 C.3     
  51 C51           -2.3657     0.0865     0.0380 C.3     
  52 H52            3.3491    -0.4964    -0.0242 H       
  53 H53            3.2485     1.9879     0.0007 H       
  54 H54            1.0582     3.1061     0.0322 H       
  55 H55            2.9018    -3.2780     0.7088 H       
  56 H56            5.9721    -2.7572     0.7634 H       
  57 H57            4.4552    -3.6826     0.9158 H       
  58 H58            6.4996    -5.1445     0.6519 H       
  59 H59            5.2845    -5.3882    -0.6264 H       
  60 H60            7.1304    -3.5847    -3.1789 H       
  61 H61            5.6450    -4.4967    -2.8159 H       
  62 H62            5.0867    -2.1261    -2.9273 H       
  63 H63            6.3857    -1.7293    -1.7716 H       
  64 H64            7.2069    -6.3301    -1.8571 H       
  65 H65            8.2030    -4.8851    -3.5908 H       
  66 H66            9.3934    -4.2729    -2.4165 H       
  67 H67            9.0913    -7.1773    -3.3070 H       
  68 H68           10.3816    -6.0613    -3.8141 H       
  69 H69            8.9784    -7.9195    -1.0149 H       
  70 H70           10.1858    -7.3485     0.1614 H       
  71 H71            9.2747    -5.0529    -0.0075 H       
  72 H72            8.0027    -6.2017     0.4754 H       
  73 H73           12.0878    -7.4022    -2.9259 H       
  74 H74            1.4423    -2.0513     2.9141 H       
  75 H75           -2.3119    -4.6944     1.0916 H       
  76 H76            0.0523    -5.2553    -3.8063 H       
  77 H77            0.9171    -7.5188    -4.2442 H       
  78 H78           -1.1305    -8.9684    -0.7952 H       
  79 H79           12.8380    -7.0426    -0.5900 H       
  80 H80           11.6868    -8.2792    -0.0299 H       
  81 H81           13.0513    -8.7418    -1.0750 H       
  82 H82           10.1111    -8.8361    -3.3562 H       
  83 H83           11.4589    -9.7892    -2.6904 H       
  84 H84           10.0944    -9.3266    -1.6453 H       
  85 H85           -3.5544    -1.4724    -0.8549 H       
  86 H86           -3.5363    -1.4895     0.9248 H       
  87 H87           -4.4911    -0.2639     0.0563 H       
  88 H88           -2.3850     0.7066     0.9342 H       
  89 H89           -2.4031     0.7237    -0.8455 H       
@<TRIPOS>BOND
   1    1   31 1
   2    2    3 ar
   3    2    7 ar
   4    3    4 ar
   5    3   49 1
   6    4    5 ar
   7    4    8 1
   8    5    6 ar
   9    5   52 1
  10    6    7 ar
  11    6   53 1
  12    7   54 1
  13    8    9 1
  14    8   10 1
  15    8   28 1
  16    9   26 2
  17    9   27 am
  18   10   11 am
  19   10   55 1
  20   11   12 am
  21   11   13 2
  22   12   14 1
  23   12   18 1
  24   14   15 1
  25   14   56 1
  26   14   57 1
  27   15   16 1
  28   15   58 1
  29   15   59 1
  30   16   17 1
  31   16   19 1
  32   17   18 1
  33   17   60 1
  34   17   61 1
  35   18   62 1
  36   18   63 1
  37   19   20 1
  38   19   24 1
  39   19   64 1
  40   20   21 1
  41   20   65 1
  42   20   66 1
  43   21   22 1
  44   21   67 1
  45   21   68 1
  46   22   23 1
  47   22   25 1
  48   23   24 1
  49   23   69 1
  50   23   70 1
  51   24   71 1
  52   24   72 1
  53   25   42 1
  54   25   43 1
  55   25   73 1
  56   27   46 am
  57   27   29 1
  58   28   29 ar
  59   28   30 ar
  60   29   33 ar
  61   30   31 ar
  62   30   74 1
  63   31   32 ar
  64   32   33 ar
  65   32   44 1
  66   33   75 1
  67   34   35 ar
  68   34   36 ar
  69   34   46 1
  70   35   41 1
  71   35   39 ar
  72   36   37 ar
  73   36   76 1
  74   37   38 ar
  75   37   77 1
  76   38   39 ar
  77   38   40 1
  78   39   78 1
  79   42   79 1
  80   42   80 1
  81   42   81 1
  82   43   82 1
  83   43   83 1
  84   43   84 1
  85   44   45 3
  86   46   47 2
  87   46   48 2
  88   49   51 1
  89   50   51 1
  90   50   85 1
  91   50   86 1
  92   50   87 1
  93   51   88 1
  94   51   89 1

#	End of record

