#	Name: ASD00844679
#	Creating user name:	WinNT
#	Creation time:	15. 06. 2019 18:50

#	Modifying user name:	WinNT
#	Modification time:	15. 06. 2019 18:50

#	Program:	/corina/corina34_cracker 3.40 0067  02.08.2006

@<TRIPOS>MOLECULE
ASD00844679
  95  100    0    0    0
SMALL
NO_CHARGES


@<TRIPOS>ATOM
   1 C1             0.7859     1.2409    -0.4442 C.ar    
   2 C2             1.0205    -0.1030    -0.6955 C.ar    
   3 C3             0.9066    -1.0286     0.3319 C.ar    
   4 C4             0.5600    -0.6101     1.6017 C.ar    
   5 C5             0.3261     0.7302     1.8495 C.ar    
   6 C6             0.4395     1.6545     0.8277 C.ar    
   7 C7             1.1603    -2.4894     0.0623 C.3     
   8 C8             0.8423    -3.3183     1.2886 C.2     
   9 C9             0.3340    -2.9639    -1.1347 C.3     
  10 C10           -1.1222    -2.6614    -0.8916 C.2     
  11 N11           -2.0543    -3.0877    -1.7667 N.am    
  12 O12           -1.4553    -2.0342     0.0916 O.2     
  13 C13           -3.4665    -2.7075    -1.6104 C.3     
  14 C14           -3.9678    -2.1388    -2.9421 C.3     
  15 N15           -3.6999    -3.1052    -4.0155 N.3     
  16 C16           -2.2577    -3.3279    -4.1842 C.3     
  17 C17           -1.6853    -3.9404    -2.9069 C.3     
  18 C18           -4.3174    -2.6752    -5.2771 C.3     
  19 C19           -3.9147    -3.6376    -6.3980 C.3     
  20 C20           -4.6092    -3.2202    -7.6962 C.3     
  21 N21           -6.0649    -3.2457    -7.5041 N.3     
  22 C22           -6.4801    -2.2947    -6.4652 C.3     
  23 C23           -5.8414    -2.6845    -5.1302 C.3     
  24 C24           -6.7672    -2.9849    -8.7677 C.3     
  25 O25           -0.2376    -3.4152     1.8320 O.2     
  26 N26            1.9803    -3.9271     1.6615 N.am    
  27 C27            2.6328    -2.7366    -0.1750 C.ar    
  28 C28            3.0487    -3.6095     0.8275 C.ar    
  29 C29            3.5121    -2.2783    -1.1230 C.ar    
  30 C30            4.8493    -2.6897    -1.0888 C.ar    
  31 C31            5.2746    -3.5671    -0.0840 C.ar    
  32 C32            4.3809    -4.0215     0.8621 C.ar    
  33 F33            6.5633    -3.9702    -0.0423 F       
  34 C34            1.7577    -6.5710     2.3926 C.ar    
  35 C35            0.4972    -6.8867     1.9073 C.ar    
  36 C36            2.7473    -7.5349     2.4205 C.ar    
  37 C37            2.4820    -8.8129     1.9650 C.ar    
  38 C38            1.2262    -9.1301     1.4808 C.ar    
  39 C39            0.2334    -8.1703     1.4512 C.ar    
  40 H40            1.0214   -10.1293     1.1255 H       
  41 O41           -0.4780    -5.9406     1.8792 O.3     
  42 C42           -1.7516    -6.3367     1.3664 C.3     
  43 C43           -8.2742    -3.1423    -8.5554 C.3     
  44 C44           -6.4641    -1.5599    -9.2349 C.3     
  45 C45            5.7751    -2.2175    -2.0740 C.1     
  46 N46            6.5095    -1.8429    -2.8555 N.1     
  47 S47            2.0988    -4.9402     2.9660 S.o2    
  48 O48            3.4644    -4.9305     3.3589 O.2     
  49 O49            1.0355    -4.5924     3.8421 O.2     
  50 O50            1.3610    -0.5123    -1.9458 O.3     
  51 C51            1.3898     0.4844    -2.9694 C.3     
  52 C52            1.8711    -0.1433    -4.2791 C.3     
  53 F53            3.1180    -0.7449    -4.0773 F       
  54 F54            0.9501    -1.1088    -4.6996 F       
  55 H55            0.8783     1.9638    -1.2412 H       
  56 H56            0.4711    -1.3302     2.4017 H       
  57 H57            0.0545     1.0554     2.8429 H       
  58 H58            0.2563     2.7006     1.0238 H       
  59 H59            0.6673    -2.4464    -2.0343 H       
  60 H60            0.4652    -4.0382    -1.2639 H       
  61 H61           -4.0545    -3.5854    -1.3426 H       
  62 H62           -3.5578    -1.9506    -0.8314 H       
  63 H63           -5.0402    -1.9542    -2.8781 H       
  64 H64           -3.4497    -1.2041    -3.1565 H       
  65 H65           -2.0899    -4.0058    -5.0211 H       
  66 H66           -1.7634    -2.3767    -4.3813 H       
  67 H67           -0.5998    -4.0012    -2.9845 H       
  68 H68           -2.1012    -4.9373    -2.7606 H       
  69 H69           -3.9803    -1.6682    -5.5230 H       
  70 H70           -2.8340    -3.6034    -6.5362 H       
  71 H71           -4.2164    -4.6510    -6.1334 H       
  72 H72           -4.2963    -2.2119    -7.9675 H       
  73 H73           -4.3358    -3.9119    -8.4930 H       
  74 H74           -6.1585    -1.2907    -6.7422 H       
  75 H75           -7.5656    -2.3142    -6.3679 H       
  76 H76           -6.1735    -3.6829    -4.8457 H       
  77 H77           -6.1374    -1.9694    -4.3626 H       
  78 H78           -6.4307    -3.6944    -9.5236 H       
  79 H79            3.1732    -1.6020    -1.8939 H       
  80 H80            4.7143    -4.6983     1.6349 H       
  81 H81            3.7289    -7.2896     2.7982 H       
  82 H82            3.2571    -9.5647     1.9870 H       
  83 H83           -0.7475    -8.4188     1.0735 H       
  84 H84           -2.4363    -5.4892     1.4001 H       
  85 H85           -1.6398    -6.6727     0.3356 H       
  86 H86           -2.1503    -7.1502     1.9725 H       
  87 H87           -8.7954    -2.9488    -9.4930 H       
  88 H88           -8.4902    -4.1575    -8.2225 H       
  89 H89           -8.6107    -2.4328    -7.7995 H       
  90 H90           -5.3905    -1.4477    -9.3862 H       
  91 H91           -6.9853    -1.3663   -10.1725 H       
  92 H92           -6.8006    -0.8503    -8.4790 H       
  93 H93            0.3883     0.8916    -3.1082 H       
  94 H94            2.0703     1.2846    -2.6784 H       
  95 H95            1.9601     0.6304    -5.0417 H       
@<TRIPOS>BOND
   1    1    2 ar
   2    1    6 ar
   3    1   55 1
   4    2    3 ar
   5    2   50 1
   6    3    4 ar
   7    3    7 1
   8    4    5 ar
   9    4   56 1
  10    5    6 ar
  11    5   57 1
  12    6   58 1
  13    7    8 1
  14    7    9 1
  15    7   27 1
  16    8   25 2
  17    8   26 am
  18    9   10 1
  19    9   59 1
  20    9   60 1
  21   10   11 am
  22   10   12 2
  23   11   13 1
  24   11   17 1
  25   13   14 1
  26   13   61 1
  27   13   62 1
  28   14   15 1
  29   14   63 1
  30   14   64 1
  31   15   16 1
  32   15   18 1
  33   16   17 1
  34   16   65 1
  35   16   66 1
  36   17   67 1
  37   17   68 1
  38   18   19 1
  39   18   23 1
  40   18   69 1
  41   19   20 1
  42   19   70 1
  43   19   71 1
  44   20   21 1
  45   20   72 1
  46   20   73 1
  47   21   22 1
  48   21   24 1
  49   22   23 1
  50   22   74 1
  51   22   75 1
  52   23   76 1
  53   23   77 1
  54   24   43 1
  55   24   44 1
  56   24   78 1
  57   26   47 am
  58   26   28 1
  59   27   28 ar
  60   27   29 ar
  61   28   32 ar
  62   29   30 ar
  63   29   79 1
  64   30   31 ar
  65   30   45 1
  66   31   32 ar
  67   31   33 1
  68   32   80 1
  69   34   35 ar
  70   34   36 ar
  71   34   47 1
  72   35   41 1
  73   35   39 ar
  74   36   37 ar
  75   36   81 1
  76   37   38 ar
  77   37   82 1
  78   38   39 ar
  79   38   40 1
  80   39   83 1
  81   41   42 1
  82   42   84 1
  83   42   85 1
  84   42   86 1
  85   43   87 1
  86   43   88 1
  87   43   89 1
  88   44   90 1
  89   44   91 1
  90   44   92 1
  91   45   46 3
  92   47   48 2
  93   47   49 2
  94   50   51 1
  95   51   52 1
  96   51   93 1
  97   51   94 1
  98   52   53 1
  99   52   54 1
 100   52   95 1

#	End of record

