#	Name: ASD01720130
#	Creating user name:	WinNT
#	Creation time:	15. 06. 2019 19:23

#	Modifying user name:	WinNT
#	Modification time:	15. 06. 2019 19:23

#	Program:	/corina/corina34_cracker 3.40 0067  02.08.2006

@<TRIPOS>MOLECULE
ASD01720130
 107  111    0    0    0
SMALL
NO_CHARGES


@<TRIPOS>ATOM
   1 C1             1.2281     1.1916     4.2784 C.ar    
   2 C2            -0.0109     0.8039     3.8119 C.ar    
   3 C3            -0.2002     0.5993     2.4576 C.ar    
   4 C4             0.8482     0.7895     1.5820 C.ar    
   5 C5             2.0960     1.1855     2.0486 C.ar    
   6 C6             2.2856     1.3782     3.3985 C.ar    
   7 C7             3.6204     1.7762     3.9768 C.3     
   8 C8             3.1859     1.4003     1.0318 C.3     
   9 C9             4.5633     1.3428     1.6904 C.3     
  10 N10            4.5240     2.1868     2.8968 N.am    
  11 C11            5.2882     3.2917     3.0048 C.2     
  12 C12            5.1184     4.2129     4.1853 C.3     
  13 O13            6.1125     3.5447     2.1518 O.2     
  14 C14            6.0992     5.3811     4.0659 C.3     
  15 C15            5.9295     6.3022     5.2465 C.2     
  16 C16            6.7639     7.5087     5.3644 C.ar    
  17 O17            5.1054     6.0493     6.0992 O.2     
  18 C18            8.3340     9.7801     5.5859 C.ar    
  19 C19            8.4892     8.9394     4.4974 C.ar    
  20 C20            7.7115     7.8069     4.3800 C.ar    
  21 C21            6.6094     8.3660     6.4585 C.ar    
  22 C22            7.3947     9.4947     6.5616 C.ar    
  23 C23            5.6064     1.8658     0.7368 C.2     
  24 N24            6.7864     1.2266     0.6120 N.am    
  25 O25            5.3841     2.8620     0.0816 O.2     
  26 C26            7.8004     1.7350    -0.3150 C.3     
  27 C27            8.6155     2.8026     0.3683 C.2     
  28 C28            8.7187     0.5892    -0.7449 C.3     
  29 N29            9.6137     3.4173    -0.2967 N.am    
  30 O30            8.3732     3.1087     1.5165 O.2     
  31 C31           10.4061     4.4552     0.3676 C.3     
  32 C32           11.4652     4.9862    -0.6006 C.3     
  33 C33           10.7882     5.6791    -1.7550 C.ar    
  34 C34           12.3580     5.9642     0.1187 C.ar    
  35 C35           11.8048     7.0260     0.8096 C.ar    
  36 C36           12.6238     7.9232     1.4694 C.ar    
  37 C37           13.9960     7.7583     1.4385 C.ar    
  38 C38           14.5491     6.6960     0.7483 C.ar    
  39 C39           13.7299     5.7963     0.0922 C.ar    
  40 C40            9.2336     7.3055    -2.5739 C.ar    
  41 C41            9.8546     6.6699    -1.5150 C.ar    
  42 C42           11.1049     5.3278    -3.0539 C.ar    
  43 C43           10.4839     5.9634    -4.1128 C.ar    
  44 C44            9.5458     6.9499    -3.8728 C.ar    
  45 C45            7.9142    -0.4355    -1.5472 C.3     
  46 C46            8.8325    -1.5813    -1.9771 C.3     
  47 C47            8.0281    -2.6060    -2.7795 C.3     
  48 N48            8.9073    -3.7032    -3.1911 N.am    
  49 C49            8.4132    -4.7279    -3.9137 C.2     
  50 O50            7.2384    -4.7418    -4.2238 O.2     
  51 O51            9.2212    -5.7362    -4.2920 O.3     
  52 C52            8.6208    -6.8063    -5.0683 C.3     
  53 C53            8.0432    -6.2341    -6.3643 C.3     
  54 C54            9.6855    -7.8529    -5.4028 C.3     
  55 C55            7.5011    -7.4596    -4.2556 C.3     
  56 H56            1.3754     1.3557     5.3357 H       
  57 H57           -0.8295     0.6603     4.5016 H       
  58 H58           -1.1664     0.2910     2.0865 H       
  59 H59            0.6983     0.6291     0.5246 H       
  60 H60            3.4825     2.6063     4.6696 H       
  61 H61            4.0525     0.9286     4.5086 H       
  62 H62            3.1212     0.6256     0.2678 H       
  63 H63            3.0526     2.3758     0.5641 H       
  64 H64            4.7974     0.3146     1.9662 H       
  65 H65            4.0980     4.5956     4.2038 H       
  66 H66            5.3173     3.6641     5.1059 H       
  67 H67            7.1197     4.9983     4.0475 H       
  68 H68            5.9003     5.9298     3.1454 H       
  69 H69            8.9461    10.6657     5.6722 H       
  70 H70            9.2240     9.1691     3.7400 H       
  71 H71            7.8341     7.1516     3.5303 H       
  72 H72            5.8767     8.1448     7.2204 H       
  73 H73            7.2797    10.1553     7.4081 H       
  74 H74            6.9641     0.4299     1.1360 H       
  75 H75            7.3112     2.1574    -1.1927 H       
  76 H76            9.5255     0.9826    -1.3634 H       
  77 H77            9.1393     0.1095     0.1389 H       
  78 H78            9.8076     3.1725    -1.2151 H       
  79 H79            9.7519     5.2715     0.6738 H       
  80 H80           10.8953     4.0328     1.2453 H       
  81 H81           12.0636     4.1558    -0.9756 H       
  82 H82           10.7328     7.1549     0.8338 H       
  83 H83           12.1917     8.7532     2.0086 H       
  84 H84           14.6359     8.4596     1.9533 H       
  85 H85           15.6211     6.5673     0.7239 H       
  86 H86           14.1618     4.9642    -0.4440 H       
  87 H87            8.5037     8.0791    -2.3864 H       
  88 H88            9.6101     6.9472    -0.5002 H       
  89 H89           11.8379     4.5570    -3.2414 H       
  90 H90           10.7319     5.6894    -5.1276 H       
  91 H91            9.0607     7.4465    -4.7001 H       
  92 H92            7.1075    -0.8289    -0.9288 H       
  93 H93            7.4937     0.0442    -2.4311 H       
  94 H94            9.6393    -1.1879    -2.5956 H       
  95 H95            9.2531    -2.0610    -1.0933 H       
  96 H96            7.2213    -2.9994    -2.1610 H       
  97 H97            7.6075    -2.1263    -3.6633 H       
  98 H98            9.8451    -3.6921    -2.9435 H       
  99 H99            8.8409    -5.7687    -6.9432 H       
 100 H100           7.5925    -7.0374    -6.9471 H       
 101 H101           7.2847    -5.4884    -6.1260 H       
 102 H102          10.0970    -8.2606    -4.4795 H       
 103 H103           9.2348    -8.6563    -5.9856 H       
 104 H104          10.4832    -7.3875    -5.9818 H       
 105 H105           6.7426    -6.7140    -4.0173 H       
 106 H106           7.0504    -8.2630    -4.8384 H       
 107 H107           7.9126    -7.8673    -3.3323 H       
@<TRIPOS>BOND
   1    1    2 ar
   2    1    6 ar
   3    1   56 1
   4    2    3 ar
   5    2   57 1
   6    3    4 ar
   7    3   58 1
   8    4    5 ar
   9    4   59 1
  10    5    6 ar
  11    5    8 1
  12    6    7 1
  13    7   10 1
  14    7   60 1
  15    7   61 1
  16    8    9 1
  17    8   62 1
  18    8   63 1
  19    9   10 1
  20    9   23 1
  21    9   64 1
  22   10   11 am
  23   11   12 1
  24   11   13 2
  25   12   14 1
  26   12   65 1
  27   12   66 1
  28   14   15 1
  29   14   67 1
  30   14   68 1
  31   15   16 1
  32   15   17 2
  33   16   21 ar
  34   16   20 ar
  35   18   19 ar
  36   18   22 ar
  37   18   69 1
  38   19   20 ar
  39   19   70 1
  40   20   71 1
  41   21   22 ar
  42   21   72 1
  43   22   73 1
  44   23   24 am
  45   23   25 2
  46   24   26 1
  47   24   74 1
  48   26   27 1
  49   26   28 1
  50   26   75 1
  51   27   29 am
  52   27   30 2
  53   28   45 1
  54   28   76 1
  55   28   77 1
  56   29   31 1
  57   29   78 1
  58   31   32 1
  59   31   79 1
  60   31   80 1
  61   32   33 1
  62   32   34 1
  63   32   81 1
  64   33   42 ar
  65   33   41 ar
  66   34   35 ar
  67   34   39 ar
  68   35   36 ar
  69   35   82 1
  70   36   37 ar
  71   36   83 1
  72   37   38 ar
  73   37   84 1
  74   38   39 ar
  75   38   85 1
  76   39   86 1
  77   40   41 ar
  78   40   44 ar
  79   40   87 1
  80   41   88 1
  81   42   43 ar
  82   42   89 1
  83   43   44 ar
  84   43   90 1
  85   44   91 1
  86   45   46 1
  87   45   92 1
  88   45   93 1
  89   46   47 1
  90   46   94 1
  91   46   95 1
  92   47   48 1
  93   47   96 1
  94   47   97 1
  95   48   49 am
  96   48   98 1
  97   49   50 2
  98   49   51 1
  99   51   52 1
 100   52   53 1
 101   52   54 1
 102   52   55 1
 103   53   99 1
 104   53  100 1
 105   53  101 1
 106   54  102 1
 107   54  103 1
 108   54  104 1
 109   55  105 1
 110   55  106 1
 111   55  107 1

#	End of record

