#	Name: ASD01917246
#	Creating user name:	WinNT
#	Creation time:	15. 06. 2019 20:08

#	Modifying user name:	WinNT
#	Modification time:	15. 06. 2019 20:08

#	Program:	/corina/corina34_cracker 3.40 0067  02.08.2006

@<TRIPOS>MOLECULE
ASD01917246
  47   50    0    0    0
SMALL
NO_CHARGES


@<TRIPOS>ATOM
   1 C1            -0.0171     1.4084     0.0098 C.ar    
   2 C2             0.0021    -0.0041     0.0020 C.ar    
   3 C3            -1.1925    -0.7196     0.0400 C.ar    
   4 C4            -2.3902    -0.0393     0.0716 C.ar    
   5 C5            -2.4136     1.3494     0.0659 C.ar    
   6 C6            -1.2441     2.0748     0.0361 C.ar    
   7 N7             1.1593     2.0732     0.0021 N.2     
   8 C8             2.3195     1.4657    -0.0392 C.2     
   9 N9             2.4203     0.1177    -0.1560 N.am    
  10 C10            1.3102    -0.6646    -0.0612 C.2     
  11 C11           -3.7362     2.0712     0.0928 C.3     
  12 O12            1.4007    -1.8781    -0.0293 O.2     
  13 C13            3.5352     2.3436     0.1019 C.3     
  14 C14            4.7917     1.6909    -0.4307 C.3     
  15 C15            4.8967     0.2349    -0.0255 C.3     
  16 C16            3.6799    -0.5639    -0.4341 C.3     
  17 C17            6.1350    -0.3754    -0.6852 C.3     
  18 C18            5.0563     0.1533     1.4939 C.3     
  19 C19           -4.4762     1.7857    -1.1472 C.1     
  20 F20           -4.4831     1.6352     1.1925 F       
  21 C21           -5.0664     1.5580    -2.1362 C.1     
  22 C22           -5.7864     1.2802    -3.3426 C.ar    
  23 N23           -6.9860     1.8173    -3.5325 N.ar    
  24 C24           -7.6800     1.5864    -4.6282 C.ar    
  25 C25           -7.1806     0.7705    -5.6266 C.ar    
  26 C26           -5.9303     0.1884    -5.4694 C.ar    
  27 C27           -5.2195     0.4520    -4.3120 C.ar    
  28 H28           -1.1799    -1.7995     0.0441 H       
  29 H29           -3.3185    -0.5905     0.1008 H       
  30 H30           -1.2753     3.1544     0.0327 H       
  31 H31           -3.5630     3.1443     0.1736 H       
  32 H32            3.3635     3.2725    -0.4420 H       
  33 H33            3.6800     2.5773     1.1566 H       
  34 H34            4.7901     1.7560    -1.5188 H       
  35 H35            5.6591     2.2282    -0.0472 H       
  36 H36            3.6891    -1.5133     0.1012 H       
  37 H37            3.7384    -0.7678    -1.5033 H       
  38 H38            7.0240     0.1632    -0.3573 H       
  39 H39            6.2193    -1.4239    -0.3995 H       
  40 H40            6.0436    -0.3003    -1.7688 H       
  41 H41            4.1904     0.6080     1.9751 H       
  42 H42            5.1328    -0.8914     1.7956 H       
  43 H43            5.9594     0.6850     1.7935 H       
  44 H44           -8.6525     2.0404    -4.7482 H       
  45 H45           -7.7584     0.5875    -6.5205 H       
  46 H46           -5.5195    -0.4524    -6.2355 H       
  47 H47           -4.2436     0.0160    -4.1573 H       
@<TRIPOS>BOND
   1    1    2 ar
   2    1    7 1
   3    1    6 ar
   4    2    3 ar
   5    2   10 1
   6    3    4 ar
   7    3   28 1
   8    4    5 ar
   9    4   29 1
  10    5    6 ar
  11    5   11 1
  12    6   30 1
  13    7    8 2
  14    8    9 1
  15    8   13 1
  16    9   10 am
  17    9   16 1
  18   10   12 2
  19   11   19 1
  20   11   20 1
  21   11   31 1
  22   13   14 1
  23   13   32 1
  24   13   33 1
  25   14   15 1
  26   14   34 1
  27   14   35 1
  28   15   16 1
  29   15   17 1
  30   15   18 1
  31   16   36 1
  32   16   37 1
  33   17   38 1
  34   17   39 1
  35   17   40 1
  36   18   41 1
  37   18   42 1
  38   18   43 1
  39   19   21 3
  40   21   22 1
  41   22   23 ar
  42   22   27 ar
  43   23   24 ar
  44   24   25 ar
  45   24   44 1
  46   25   26 ar
  47   25   45 1
  48   26   27 ar
  49   26   46 1
  50   27   47 1

#	End of record

