#	Name: ASD01028652
#	Creating user name:	WinNT
#	Creation time:	15. 06. 2019 18:57

#	Modifying user name:	WinNT
#	Modification time:	15. 06. 2019 18:57

#	Program:	/corina/corina34_cracker 3.40 0067  02.08.2006

@<TRIPOS>MOLECULE
ASD01028652
  42   46    0    0    0
SMALL
NO_CHARGES


@<TRIPOS>ATOM
   1 N1            -0.0157     1.3066     0.0092 N.ar    
   2 C2             0.0021    -0.0041     0.0020 C.ar    
   3 C3             1.1967    -0.7211    -0.0128 C.ar    
   4 C4             2.3902    -0.0572    -0.0206 C.ar    
   5 C5             2.3672     1.3504    -0.0132 C.ar    
   6 C6             3.5535     2.1011    -0.0200 C.ar    
   7 C7             3.4892     3.4613    -0.0122 C.ar    
   8 C8             2.2611     4.1187     0.0030 C.ar    
   9 C9             1.0917     3.4224     0.0100 C.ar    
  10 C10            1.1167     2.0170     0.0022 C.ar    
  11 C11            4.7634     4.2659    -0.0195 C.3     
  12 C12            6.1359     4.4133    -3.4172 C.2     
  13 C13            6.9845     3.8638    -4.3982 C.2     
  14 C14            7.7070     2.7507    -4.1041 C.2     
  15 C15            7.6032     2.1572    -2.8291 C.2     
  16 N16            6.8120     2.6692    -1.9126 N.2     
  17 N17            6.0561     3.8136    -2.1852 N.pl3   
  18 N18            5.3260     5.4626    -3.4158 N.2     
  19 C19            4.7366     5.5573    -2.2233 C.2     
  20 C20            5.1751     4.5418    -1.4427 C.2     
  21 C21            8.3954     0.9418    -2.5187 C.ar    
  22 C22            8.3004     0.3472    -1.2620 C.ar    
  23 C23            9.0394    -0.7836    -0.9789 C.ar    
  24 C24            9.8734    -1.3264    -1.9397 C.ar    
  25 C25            9.9716    -0.7403    -3.1887 C.ar    
  26 C26            9.2329     0.3874    -3.4847 C.ar    
  27 H27           -0.9341    -0.5425     0.0081 H       
  28 H28            1.1789    -1.8009    -0.0177 H       
  29 H29            3.3255    -0.5970    -0.0317 H       
  30 H30            4.5116     1.6027    -0.0311 H       
  31 H31            2.2365     5.1984     0.0097 H       
  32 H32            0.1481     3.9476     0.0221 H       
  33 H33            4.6001     5.2097     0.5009 H       
  34 H34            5.5504     3.7047     0.4842 H       
  35 H35            7.0600     4.3217    -5.3734 H       
  36 H36            8.3611     2.3201    -4.8478 H       
  37 H37            4.0254     6.3154    -1.9304 H       
  38 H38            7.6501     0.7706    -0.5109 H       
  39 H39            8.9665    -1.2453    -0.0053 H       
  40 H40           10.4504    -2.2109    -1.7136 H       
  41 H41           10.6247    -1.1681    -3.9350 H       
  42 H42            9.3072     0.8418    -4.4616 H       
@<TRIPOS>BOND
   1    1    2 ar
   2    1   10 ar
   3    2    3 ar
   4    2   27 1
   5    3    4 ar
   6    3   28 1
   7    4    5 ar
   8    4   29 1
   9    5    6 ar
  10    5   10 ar
  11    6    7 ar
  12    6   30 1
  13    7    8 ar
  14    7   11 1
  15    8    9 ar
  16    8   31 1
  17    9   10 ar
  18    9   32 1
  19   11   20 1
  20   11   33 1
  21   11   34 1
  22   12   13 1
  23   12   17 1
  24   12   18 2
  25   13   14 2
  26   13   35 1
  27   14   15 1
  28   14   36 1
  29   15   16 2
  30   15   21 1
  31   16   17 1
  32   17   20 1
  33   18   19 1
  34   19   20 2
  35   19   37 1
  36   21   22 ar
  37   21   26 ar
  38   22   23 ar
  39   22   38 1
  40   23   24 ar
  41   23   39 1
  42   24   25 ar
  43   24   40 1
  44   25   26 ar
  45   25   41 1
  46   26   42 1

#	End of record

