#	Name: ASD01940369
#	Creating user name:	WinNT
#	Creation time:	15. 06. 2019 20:12

#	Modifying user name:	WinNT
#	Modification time:	15. 06. 2019 20:12

#	Program:	/corina/corina34_cracker 3.40 0067  02.08.2006

@<TRIPOS>MOLECULE
ASD01940369
  41   43    0    0    0
SMALL
NO_CHARGES


@<TRIPOS>ATOM
   1 C1            -4.4242    -4.7055     4.7786 C.3     
   2 C2            -3.5307    -5.6300     5.6079 C.3     
   3 C3            -2.1222    -5.0384     5.6908 C.3     
   4 O4            -2.1945    -3.7061     6.2026 O.3     
   5 N5            -0.9374    -3.0650     6.3194 N.am    
   6 C6            -0.8651    -1.8040     6.7897 C.2     
   7 O7            -1.8811    -1.2160     7.1142 O.2     
   8 C8             0.3926    -1.1626     6.9065 C.2     
   9 C9             0.5866     0.1536     7.2724 C.2     
  10 C10            2.0390     0.3611     7.2555 C.ar    
  11 C11            2.8801     1.4390     7.5201 C.ar    
  12 N12            4.1857     1.3018     7.4126 N.ar    
  13 C13            4.7454     0.1575     7.0564 C.ar    
  14 C14            3.9863    -0.9602     6.7766 C.ar    
  15 C15            2.5977    -0.8741     6.8733 C.ar    
  16 O16            1.5931    -1.7461     6.6825 O.3     
  17 N17           -0.3876     1.0856     7.5898 N.pl3   
  18 C18           -0.8894     1.1565     8.8933 C.ar    
  19 C19           -0.4976     0.2212     9.8414 C.ar    
  20 C20           -0.9946     0.2938    11.1286 C.ar    
  21 C21           -1.8821     1.2966    11.4741 C.ar    
  22 C22           -2.2756     2.2313    10.5326 C.ar    
  23 C23           -1.7780     2.1680     9.2445 C.ar    
  24 O24           -4.0712    -5.7596     6.9244 O.3     
  25 F25            4.5786    -2.1190     6.4140 F       
  26 F26           -2.1580     3.0835     8.3266 F       
  27 I27           -2.6329     1.4004    13.4271 I       
  28 H28           -4.0120    -4.6067     3.7744 H       
  29 H29           -5.4277    -5.1270     4.7195 H       
  30 H30           -4.4696    -3.7242     5.2509 H       
  31 H31           -3.4854    -6.6113     5.1356 H       
  32 H32           -1.5098    -5.6495     6.3538 H       
  33 H33           -1.6760    -5.0219     4.6965 H       
  34 H34           -0.1282    -3.5333     6.0609 H       
  35 H35            2.4608     2.3899     7.8138 H       
  36 H36            5.8211     0.0968     6.9824 H       
  37 H37           -0.7219     1.6892     6.9080 H       
  38 H38            0.1948    -0.5629     9.5729 H       
  39 H39           -0.6897    -0.4339    11.8661 H       
  40 H40           -2.9688     3.0132    10.8055 H       
  41 H41           -4.9644    -6.1293     6.9483 H       
@<TRIPOS>BOND
   1    1    2 1
   2    1   28 1
   3    1   29 1
   4    1   30 1
   5    2    3 1
   6    2   24 1
   7    2   31 1
   8    3    4 1
   9    3   32 1
  10    3   33 1
  11    4    5 1
  12    5    6 am
  13    5   34 1
  14    6    7 2
  15    6    8 1
  16    8    9 2
  17    8   16 1
  18    9   10 1
  19    9   17 1
  20   10   11 ar
  21   10   15 ar
  22   11   12 ar
  23   11   35 1
  24   12   13 ar
  25   13   14 ar
  26   13   36 1
  27   14   15 ar
  28   14   25 1
  29   15   16 1
  30   17   18 1
  31   17   37 1
  32   18   19 ar
  33   18   23 ar
  34   19   20 ar
  35   19   38 1
  36   20   21 ar
  37   20   39 1
  38   21   22 ar
  39   21   27 1
  40   22   23 ar
  41   22   40 1
  42   23   26 1
  43   24   41 1

#	End of record

