#	Name: ASD01170006
#	Creating user name:	WinNT
#	Creation time:	15. 06. 2019 19:06

#	Modifying user name:	WinNT
#	Modification time:	15. 06. 2019 19:06

#	Program:	/corina/corina34_cracker 3.40 0067  02.08.2006

@<TRIPOS>MOLECULE
ASD01170006
  36   39    0    0    0
SMALL
NO_CHARGES


@<TRIPOS>ATOM
   1 C1            -0.0167     1.3794     0.0096 C.ar    
   2 C2             0.0021    -0.0041     0.0020 C.ar    
   3 C3            -1.1799    -0.7182     0.0099 C.ar    
   4 C4            -2.4017    -0.0490     0.0252 C.ar    
   5 C5            -2.4079     1.3403     0.0328 C.ar    
   6 C6            -1.2280     2.0514     0.0306 C.ar    
   7 Cl7           -1.2590     3.7870     0.0401 Cl      
   8 H8             0.9102     1.9337     0.0038 H       
   9 Cl9            1.5197    -0.8467    -0.0182 Cl      
  10 H10           -1.1571    -1.7980     0.0039 H       
  11 N11           -3.7088    -0.5372     0.0356 N.am    
  12 C12           -4.6205     0.4498     0.0499 C.2     
  13 C13           -3.8600     1.7589     0.0494 C.3     
  14 O14           -4.1517     2.5078     1.2310 O.3     
  15 C15           -4.1972     2.5743    -1.2006 C.3     
  16 O16           -5.8260     0.3170     0.0611 O.2     
  17 C17           -5.6692     2.8974    -1.2076 C.2     
  18 C18           -6.2445     3.6773    -2.3110 C.ar    
  19 O19           -6.3787     2.5133    -0.3019 O.2     
  20 C20           -7.6119     3.9789    -2.3199 C.ar    
  21 C21           -8.1475     4.7125    -3.3590 C.ar    
  22 C22           -7.3264     5.1526    -4.3991 C.ar    
  23 C23           -5.9696     4.8533    -4.3900 C.ar    
  24 C24           -5.4266     4.1268    -3.3547 C.ar    
  25 O25           -9.4230     5.1343    -3.6034 O.3     
  26 C26           -9.2995     6.1797    -4.5857 C.3     
  27 O27           -8.0891     5.8469    -5.2904 O.3     
  28 H28           -3.9336    -1.4808     0.0322 H       
  29 H29           -5.0831     2.7510     1.3226 H       
  30 H30           -3.6220     3.5001    -1.1966 H       
  31 H31           -3.9481     1.9956    -2.0900 H       
  32 H32           -8.2463     3.6377    -1.5152 H       
  33 H33           -5.3378     5.1957    -5.1963 H       
  34 H34           -4.3714     3.8963    -3.3516 H       
  35 H35          -10.1525     6.1703    -5.2641 H       
  36 H36           -9.2054     7.1514    -4.1008 H       
@<TRIPOS>BOND
   1    1    2 ar
   2    1    8 1
   3    1    6 ar
   4    2    3 ar
   5    2    9 1
   6    3    4 ar
   7    3   10 1
   8    4    5 ar
   9    4   11 1
  10    5    6 ar
  11    5   13 1
  12    6    7 1
  13   11   12 am
  14   11   28 1
  15   12   13 1
  16   12   16 2
  17   13   14 1
  18   13   15 1
  19   14   29 1
  20   15   17 1
  21   15   30 1
  22   15   31 1
  23   17   18 1
  24   17   19 2
  25   18   20 ar
  26   18   24 ar
  27   20   21 ar
  28   20   32 1
  29   21   22 ar
  30   21   25 1
  31   22   23 ar
  32   22   27 1
  33   23   24 ar
  34   23   33 1
  35   24   34 1
  36   25   26 1
  37   26   27 1
  38   26   35 1
  39   26   36 1

#	End of record

