#	Name: ASD01816527
#	Creating user name:	WinNT
#	Creation time:	15. 06. 2019 19:35

#	Modifying user name:	WinNT
#	Modification time:	15. 06. 2019 19:35

#	Program:	/corina/corina34_cracker 3.40 0067  02.08.2006

@<TRIPOS>MOLECULE
ASD01816527
  52   57    0    0    0
SMALL
NO_CHARGES


@<TRIPOS>ATOM
   1 C1            -0.0167     1.3813     0.0096 C.ar    
   2 C2             0.0021    -0.0041     0.0020 C.ar    
   3 C3             1.1983    -0.6909    -0.0131 C.ar    
   4 C4             2.4015     0.0059    -0.0203 C.ar    
   5 C5             2.3790     1.4106    -0.0126 C.ar    
   6 C6             1.1663     2.0917     0.0022 C.ar    
   7 N7             3.6053    -0.6772    -0.0345 N.pl3   
   8 C8             4.7970    -0.0585    -0.0420 C.2     
   9 C9             4.8999     1.3103    -0.0356 C.2     
  10 C10            3.6670     2.1301    -0.0205 C.2     
  11 C11            5.9971     2.2730    -0.0397 C.2     
  12 N12            5.4246     3.4961    -0.0280 N.am    
  13 N13            4.0323     3.3800    -0.0167 N.2     
  14 C14            6.1239     4.7037    -0.0271 C.ar    
  15 O15            7.1913     2.0230    -0.0510 O.2     
  16 C16            3.5779    -2.1419    -0.0411 C.3     
  17 C17            3.5555    -2.6375    -1.4641 C.ar    
  18 C18            4.7433    -2.8868    -2.1267 C.ar    
  19 C19            4.7261    -3.3406    -3.4310 C.ar    
  20 C20            3.5144    -3.5470    -4.0768 C.ar    
  21 C21            2.3235    -3.2962    -3.4087 C.ar    
  22 C22            2.3471    -2.8475    -2.1027 C.ar    
  23 N23            3.4937    -4.0071    -5.4008 N.pl3   
  24 C24            2.3888    -4.2483    -6.1422 C.2     
  25 C25            2.7955    -4.6778    -7.3593 C.2     
  26 C26            4.1945    -4.7001    -7.3630 C.2     
  27 N27            4.6138    -4.2927    -6.1920 N.2     
  28 C28            6.4669     5.3206    -1.2392 C.ar    
  29 C29            7.1672     6.5296    -1.2249 C.ar    
  30 C30            7.5165     7.1084    -0.0240 C.ar    
  31 C31            7.1774     6.4977     1.1724 C.ar    
  32 C32            6.4793     5.3046     1.1751 C.ar    
  33 F33            6.1524     4.7162     2.3465 F       
  34 C34            6.1018     4.7146    -2.4842 C.1     
  35 N35            5.8122     4.2338    -3.4719 N.1     
  36 H36           -0.9602     1.9068     0.0169 H       
  37 H37           -0.9289    -0.5515     0.0083 H       
  38 H38            1.2003    -1.7709    -0.0189 H       
  39 H39            1.1506     3.1715     0.0077 H       
  40 H40            5.6982    -0.6535    -0.0531 H       
  41 H41            4.4656    -2.5242     0.4629 H       
  42 H42            2.6860    -2.4910     0.4793 H       
  43 H43            5.6855    -2.7261    -1.6238 H       
  44 H44            5.6541    -3.5345    -3.9483 H       
  45 H45            1.3794    -3.4555    -3.9086 H       
  46 H46            1.4210    -2.6523    -1.5825 H       
  47 H47            1.3656    -4.1217    -5.8206 H       
  48 H48            2.1535    -4.9544    -8.1826 H       
  49 H49            4.8207    -4.9978    -8.1911 H       
  50 H50            7.4349     7.0100    -2.1544 H       
  51 H51            8.0578     8.0430    -0.0154 H       
  52 H52            7.4559     6.9588     2.1085 H       
@<TRIPOS>BOND
   1    1    2 ar
   2    1    6 ar
   3    1   36 1
   4    2    3 ar
   5    2   37 1
   6    3    4 ar
   7    3   38 1
   8    4    5 ar
   9    4    7 1
  10    5    6 ar
  11    5   10 1
  12    6   39 1
  13    7    8 1
  14    7   16 1
  15    8    9 2
  16    8   40 1
  17    9   10 1
  18    9   11 1
  19   10   13 2
  20   11   12 am
  21   11   15 2
  22   12   13 1
  23   12   14 1
  24   14   28 ar
  25   14   32 ar
  26   16   17 1
  27   16   41 1
  28   16   42 1
  29   17   18 ar
  30   17   22 ar
  31   18   19 ar
  32   18   43 1
  33   19   20 ar
  34   19   44 1
  35   20   21 ar
  36   20   23 1
  37   21   22 ar
  38   21   45 1
  39   22   46 1
  40   23   24 1
  41   23   27 1
  42   24   25 2
  43   24   47 1
  44   25   26 1
  45   25   48 1
  46   26   27 2
  47   26   49 1
  48   28   29 ar
  49   28   34 1
  50   29   30 ar
  51   29   50 1
  52   30   31 ar
  53   30   51 1
  54   31   32 ar
  55   31   52 1
  56   32   33 1
  57   34   35 3

#	End of record

