#	Name: ASD04882151
#	Creating user name:	WinNT
#	Creation time:	15. 06. 2019 20:54

#	Modifying user name:	WinNT
#	Modification time:	15. 06. 2019 20:54

#	Program:	/corina/corina34_cracker 3.40 0067  02.08.2006

@<TRIPOS>MOLECULE
ASD04882151
  78   82    0    0    0
SMALL
NO_CHARGES


@<TRIPOS>ATOM
   1 C1             0.1529     1.1604    -0.9954 C.ar    
   2 C2             0.0884    -0.1197    -0.4448 C.ar    
   3 C3            -1.1794    -0.8792    -0.4794 C.2     
   4 N4            -1.2389    -2.1158     0.0533 N.am    
   5 C5            -2.4659    -2.7879     0.1283 C.ar    
   6 C6            -2.5120    -4.1775    -0.0142 C.ar    
   7 C7            -3.7288    -4.8457     0.0600 C.ar    
   8 C8            -4.8927    -4.1415     0.2745 C.ar    
   9 C9            -4.8537    -2.7517     0.4178 C.ar    
  10 C10           -3.6311    -2.0780     0.3488 C.ar    
  11 N11           -1.3377    -4.8935    -0.2311 N.3     
  12 C12           -0.7519    -4.5612    -1.5373 C.3     
  13 C13           -1.5735    -6.3394    -0.1155 C.3     
  14 C14           -0.2471    -7.0848    -0.2812 C.3     
  15 N15            0.3387    -6.7525    -1.5874 N.3     
  16 C16            0.5745    -5.3066    -1.7030 C.3     
  17 C17            1.5167    -7.4707    -1.8050 C.ar    
  18 C18            1.6169    -8.3309    -2.8908 C.ar    
  19 C19            2.5929    -7.3220    -0.9390 C.ar    
  20 C20            3.7560    -8.0336    -1.1570 C.ar    
  21 C21            3.8505    -8.8934    -2.2363 C.ar    
  22 C22            2.7832    -9.0398    -3.1031 C.ar    
  23 C23           -6.1008    -1.9974     0.6470 C.2     
  24 N24           -7.2787    -2.6485     0.7183 N.am    
  25 O25           -6.0659    -0.7884     0.7715 O.2     
  26 O26           -2.1683    -0.3883    -0.9884 O.2     
  27 C27            0.4542    -8.4911    -3.8361 C.3     
  28 C28           -8.5170    -1.8996     0.9459 C.3     
  29 C29           -9.6999    -2.8693     0.9839 C.3     
  30 C30          -10.9931    -2.0871     1.2216 C.3     
  31 N31          -12.1257    -3.0156     1.2580 N.am    
  32 C32          -12.5815    -3.6126     2.3727 C.2     
  33 C33          -12.9124    -3.4086     0.0830 C.3     
  34 C34          -13.6736    -4.6850     0.5047 C.3     
  35 C35          -13.7526    -4.5107     2.0402 C.3     
  36 O36          -12.1206    -3.4547     3.4833 O.2     
  37 C37            1.3442     1.8657    -0.9597 C.ar    
  38 C38            2.4697     1.2991    -0.3774 C.ar    
  39 C39            2.4075     0.0301     0.1685 C.ar    
  40 C40            1.2258    -0.6812     0.1387 C.ar    
  41 O41            1.4114     3.1130    -1.4954 O.3     
  42 H42           -0.7224     1.5983    -1.4521 H       
  43 H43           -0.4322    -2.5404     0.3848 H       
  44 H44           -3.7615    -5.9195    -0.0511 H       
  45 H45           -5.8365    -4.6635     0.3316 H       
  46 H46           -3.5979    -1.0041     0.4592 H       
  47 H47           -1.4380    -4.8593    -2.3300 H       
  48 H48           -0.5750    -3.4871    -1.5938 H       
  49 H49           -1.9956    -6.5618     0.8646 H       
  50 H50           -2.2690    -6.6577    -0.8921 H       
  51 H51            0.4391    -6.7867     0.5115 H       
  52 H52           -0.4240    -8.1589    -0.2247 H       
  53 H53            0.9967    -5.0842    -2.6830 H       
  54 H54            1.2700    -4.9883    -0.9264 H       
  55 H55            2.5200    -6.6503    -0.0964 H       
  56 H56            4.5929    -7.9185    -0.4842 H       
  57 H57            4.7616    -9.4482    -2.4049 H       
  58 H58            2.8603    -9.7120    -3.9448 H       
  59 H59           -7.3065    -3.6130     0.6189 H       
  60 H60            0.5363    -7.7600    -4.6403 H       
  61 H61            0.4638    -9.4967    -4.2567 H       
  62 H62           -0.4786    -8.3326    -3.2948 H       
  63 H63           -8.4514    -1.3691     1.8958 H       
  64 H64           -8.6613    -1.1820     0.1382 H       
  65 H65           -9.7654    -3.3997     0.0339 H       
  66 H66           -9.5556    -3.5869     1.7916 H       
  67 H67          -10.9275    -1.5566     2.1715 H       
  68 H68          -11.1374    -1.3695     0.4139 H       
  69 H69          -13.6164    -2.6194    -0.1808 H       
  70 H70          -12.2529    -3.6233    -0.7579 H       
  71 H71          -14.6705    -4.7080     0.0645 H       
  72 H72          -13.1110    -5.5802     0.2397 H       
  73 H73          -13.6484    -5.4741     2.5394 H       
  74 H74          -14.6911    -4.0335     2.3222 H       
  75 H75            3.3975     1.8514    -0.3509 H       
  76 H76            3.2868    -0.4056     0.6195 H       
  77 H77            1.1807    -1.6722     0.5656 H       
  78 H78            1.2020     3.8210    -0.8710 H       
@<TRIPOS>BOND
   1    1    2 ar
   2    1   37 ar
   3    1   42 1
   4    2    3 1
   5    2   40 ar
   6    3    4 am
   7    3   26 2
   8    4    5 1
   9    4   43 1
  10    5    6 ar
  11    5   10 ar
  12    6    7 ar
  13    6   11 1
  14    7    8 ar
  15    7   44 1
  16    8    9 ar
  17    8   45 1
  18    9   10 ar
  19    9   23 1
  20   10   46 1
  21   11   12 1
  22   11   13 1
  23   12   16 1
  24   12   47 1
  25   12   48 1
  26   13   14 1
  27   13   49 1
  28   13   50 1
  29   14   15 1
  30   14   51 1
  31   14   52 1
  32   15   16 1
  33   15   17 1
  34   16   53 1
  35   16   54 1
  36   17   18 ar
  37   17   19 ar
  38   18   27 1
  39   18   22 ar
  40   19   20 ar
  41   19   55 1
  42   20   21 ar
  43   20   56 1
  44   21   22 ar
  45   21   57 1
  46   22   58 1
  47   23   24 am
  48   23   25 2
  49   24   28 1
  50   24   59 1
  51   27   60 1
  52   27   61 1
  53   27   62 1
  54   28   29 1
  55   28   63 1
  56   28   64 1
  57   29   30 1
  58   29   65 1
  59   29   66 1
  60   30   31 1
  61   30   67 1
  62   30   68 1
  63   31   32 am
  64   31   33 1
  65   32   36 2
  66   32   35 1
  67   33   34 1
  68   33   69 1
  69   33   70 1
  70   34   35 1
  71   34   71 1
  72   34   72 1
  73   35   73 1
  74   35   74 1
  75   37   38 ar
  76   37   41 1
  77   38   39 ar
  78   38   75 1
  79   39   40 ar
  80   39   76 1
  81   40   77 1
  82   41   78 1

#	End of record

