#	Name: ASD01230560
#	Creating user name:	WinNT
#	Creation time:	15. 06. 2019 19:14

#	Modifying user name:	WinNT
#	Modification time:	15. 06. 2019 19:14

#	Program:	/corina/corina34_cracker 3.40 0067  02.08.2006

@<TRIPOS>MOLECULE
ASD01230560
  45   48    0    0    0
SMALL
NO_CHARGES


@<TRIPOS>ATOM
   1 S1             0.9677     0.9451     0.1019 S.o2    
   2 N2             0.6243    -0.6595    -0.1103 N.am    
   3 C3             1.3888    -1.4506    -0.8239 C.2     
   4 N4             2.5337    -1.0775    -1.4678 N.pl3   
   5 C5             3.0379     0.2977    -1.5095 C.3     
   6 C6             2.7649     1.0113    -0.1826 C.3     
   7 C7             0.9494    -2.8587    -0.9211 C.2     
   8 C8             1.7253    -3.7574    -1.6203 C.2     
   9 C9             2.9117    -3.3094    -2.2190 C.2     
  10 C10            3.2811    -2.0193    -2.1320 C.2     
  11 C11           -0.3083    -3.2979    -0.2748 C.ar    
  12 C12           -0.2714    -4.2156     0.7756 C.ar    
  13 C13           -1.4446    -4.6219     1.3754 C.ar    
  14 C14           -2.6617    -4.1194     0.9350 C.ar    
  15 C15           -2.7024    -3.2061    -0.1099 C.ar    
  16 C16           -1.5329    -2.7908    -0.7108 C.ar    
  17 O17           -3.8160    -4.5229     1.5279 O.3     
  18 C18           -4.8403    -6.1935     4.7319 C.3     
  19 C19           -4.9422    -5.2249     3.5507 C.3     
  20 C20           -3.6959    -5.3703     2.6722 C.3     
  21 C21           -3.5712    -6.8283     2.2194 C.3     
  22 C22           -3.5222    -7.7350     3.4519 C.3     
  23 O23           -4.6955    -7.5277     4.2410 O.3     
  24 Cl24           3.9156    -4.4334    -3.0807 Cl      
  25 O25            0.2668     1.6022    -0.9451 O.2     
  26 O26            0.6635     1.1984     1.4666 O.2     
  27 H27            4.1120     0.2813    -1.6944 H       
  28 H28            2.5430     0.8377    -2.3167 H       
  29 H29            3.0933     2.0488    -0.2442 H       
  30 H30            3.2881     0.5025     0.6270 H       
  31 H31            1.4245    -4.7911    -1.7057 H       
  32 H32            4.2021    -1.7111    -2.6043 H       
  33 H33            0.6749    -4.6075     1.1183 H       
  34 H34           -1.4168    -5.3322     2.1885 H       
  35 H35           -3.6509    -2.8174    -0.4498 H       
  36 H36           -1.5650    -2.0772    -1.5208 H       
  37 H37           -3.9743    -5.9343     5.3409 H       
  38 H38           -5.7442    -6.1250     5.3372 H       
  39 H39           -5.8307    -5.4582     2.9639 H       
  40 H40           -5.0084    -4.2025     3.9227 H       
  41 H41           -2.8118    -5.0878     3.2439 H       
  42 H42           -4.4319    -7.0940     1.6057 H       
  43 H43           -2.6568    -6.9526     1.6392 H       
  44 H44           -3.4766    -8.7769     3.1352 H       
  45 H45           -2.6390    -7.4959     4.0442 H       
@<TRIPOS>BOND
   1    1    2 am
   2    1    6 1
   3    1   25 2
   4    1   26 2
   5    2    3 2
   6    3    4 1
   7    3    7 1
   8    4    5 1
   9    4   10 1
  10    5    6 1
  11    5   27 1
  12    5   28 1
  13    6   29 1
  14    6   30 1
  15    7    8 2
  16    7   11 1
  17    8    9 1
  18    8   31 1
  19    9   10 2
  20    9   24 1
  21   10   32 1
  22   11   12 ar
  23   11   16 ar
  24   12   13 ar
  25   12   33 1
  26   13   14 ar
  27   13   34 1
  28   14   15 ar
  29   14   17 1
  30   15   16 ar
  31   15   35 1
  32   16   36 1
  33   17   20 1
  34   18   19 1
  35   18   23 1
  36   18   37 1
  37   18   38 1
  38   19   20 1
  39   19   39 1
  40   19   40 1
  41   20   21 1
  42   20   41 1
  43   21   22 1
  44   21   42 1
  45   21   43 1
  46   22   23 1
  47   22   44 1
  48   22   45 1

#	End of record

