#	Name: ASD00431331
#	Creating user name:	WinNT
#	Creation time:	15. 06. 2019 18:35

#	Modifying user name:	WinNT
#	Modification time:	15. 06. 2019 18:35

#	Program:	/corina/corina34_cracker 3.40 0067  02.08.2006

@<TRIPOS>MOLECULE
ASD00431331
  37   39    0    0    0
SMALL
NO_CHARGES


@<TRIPOS>ATOM
   1 C1             0.1541     1.0170     0.1715 C.3     
   2 C2            -0.0272    -0.4214     0.6606 C.3     
   3 O3             2.5561     1.0588    -0.6707 O.3     
   4 N4             3.6414     1.4948    -0.3644 N.2     
   5 C5             3.5861     2.1659     0.7627 C.2     
   6 C6             2.2269     2.1106     1.1880 C.2     
   7 C7             1.6142     1.3859     0.2262 C.2     
   8 S8             4.6033     3.7348     2.9653 S.3     
   9 C9             6.2771     4.0742     2.8905 C.2     
  10 N10            6.7961     3.5477     1.8242 N.2     
  11 C11            5.9871     2.8810     1.0305 C.2     
  12 C12            4.7053     2.8408     1.4506 C.2     
  13 O13            6.9631     4.7910     3.8122 O.3     
  14 C14            8.2571     5.1084     3.5401 C.ar    
  15 C15            9.0532     5.6809     4.5233 C.ar    
  16 C16           10.3682     6.0027     4.2463 C.ar    
  17 C17           10.8924     5.7538     2.9862 C.ar    
  18 C18           10.0968     5.1825     2.0044 C.ar    
  19 C19            8.7836     4.8552     2.2825 C.ar    
  20 O20           12.1863     6.0705     2.7136 O.3     
  21 C21           12.6598     5.7866     1.3955 C.3     
  22 Cl22           8.3965     5.9927     6.0998 Cl      
  23 N23           -0.3276     1.1282    -1.2118 N.3     
  24 H24           -0.4155     1.6923     0.8100 H       
  25 H25            0.3302    -0.5039     1.6870 H       
  26 H26           -1.0833    -0.6882     0.6210 H       
  27 H27            0.5423    -1.0967     0.0221 H       
  28 H28            1.7885     2.5464     2.0736 H       
  29 H29            6.3202     2.4061     0.1194 H       
  30 H30           10.9877     6.4483     5.0105 H       
  31 H31           10.5051     4.9895     1.0234 H       
  32 H32            8.1658     4.4059     1.5191 H       
  33 H33           12.5725     4.7178     1.2004 H       
  34 H34           12.0638     6.3385     0.6686 H       
  35 H35           13.7042     6.0871     1.3121 H       
  36 H36            0.2269     0.5600    -1.8345 H       
  37 H37           -1.3050     0.8858    -1.2749 H       
@<TRIPOS>BOND
   1    1    2 1
   2    1    7 1
   3    1   23 1
   4    1   24 1
   5    2   25 1
   6    2   26 1
   7    2   27 1
   8    3    4 1
   9    3    7 1
  10    4    5 2
  11    5    6 1
  12    5   12 1
  13    6    7 2
  14    6   28 1
  15    8    9 1
  16    8   12 1
  17    9   10 2
  18    9   13 1
  19   10   11 1
  20   11   12 2
  21   11   29 1
  22   13   14 1
  23   14   15 ar
  24   14   19 ar
  25   15   16 ar
  26   15   22 1
  27   16   17 ar
  28   16   30 1
  29   17   18 ar
  30   17   20 1
  31   18   19 ar
  32   18   31 1
  33   19   32 1
  34   20   21 1
  35   21   33 1
  36   21   34 1
  37   21   35 1
  38   23   36 1
  39   23   37 1

#	End of record

