#	Name: ASD01913910
#	Creating user name:	WinNT
#	Creation time:	15. 06. 2019 20:02

#	Modifying user name:	WinNT
#	Modification time:	15. 06. 2019 20:02

#	Program:	/corina/corina34_cracker 3.40 0067  02.08.2006

@<TRIPOS>MOLECULE
ASD01913910
  42   44    0    0    0
SMALL
NO_CHARGES


@<TRIPOS>ATOM
   1 C1            -0.0173     1.4278     0.0099 C.ar    
   2 C2             0.0021    -0.0041     0.0020 C.1     
   3 C3             0.0180    -1.1779    -0.0044 C.1     
   4 C4             0.0374    -2.6098    -0.0123 C.ar    
   5 C5            -1.1552    -3.3455    -0.0049 C.ar    
   6 C6             0.0738    -5.2913    -0.0270 C.ar    
   7 N7             1.2234    -4.6331    -0.0401 N.ar    
   8 C8             1.2495    -3.3128    -0.0335 C.ar    
   9 N9            -1.0933    -4.6646    -0.0125 N.ar    
  10 C10            1.1561     3.5287     0.0105 C.ar    
  11 C11           -1.2347     2.1133     0.0310 C.ar    
  12 C12           -0.0527     4.2003     0.0256 C.ar    
  13 C13           -1.2456     3.4943     0.0390 C.ar    
  14 N14            0.0926    -6.6797    -0.0346 N.am    
  15 C15            1.2789    -7.2885    -0.0549 C.2     
  16 C16            1.4444    -8.7800    -0.1137 C.3     
  17 C17            0.1366    -9.4655     0.2898 C.3     
  18 C18           -1.0109    -8.8222    -0.4981 C.3     
  19 C19           -1.1853    -7.3803    -0.0139 C.3     
  20 C20            0.2143   -10.9577    -0.0390 C.3     
  21 C21           -0.1009    -9.2796     1.7898 C.3     
  22 O22            2.2774    -6.6011    -0.0246 O.2     
  23 F23           -2.4217     4.1588     0.0595 F       
  24 C24            1.1827     2.1472     0.0023 C.ar    
  25 F25            2.3646     1.4927    -0.0125 F       
  26 H26           -2.1103    -2.8415     0.0073 H       
  27 H27            2.1905    -2.7829    -0.0446 H       
  28 H28            2.0815     4.0854     0.0001 H       
  29 H29           -2.1649     1.5645     0.0408 H       
  30 H30           -0.0674     5.2802     0.0319 H       
  31 H31            1.7096    -9.0751    -1.1289 H       
  32 H32            2.2379    -9.0834     0.5692 H       
  33 H33           -0.7727    -8.8284    -1.5618 H       
  34 H34           -1.9315    -9.3793    -0.3239 H       
  35 H35           -1.5834    -7.3867     1.0007 H       
  36 H36           -1.8858    -6.8625    -0.6692 H       
  37 H37            1.0424   -11.4078     0.5086 H       
  38 H38           -0.7183   -11.4424     0.2496 H       
  39 H39            0.3744   -11.0859    -1.1096 H       
  40 H40           -0.1648    -8.2158     2.0185 H       
  41 H41           -1.0327    -9.7688     2.0735 H       
  42 H42            0.7257    -9.7218     2.3461 H       
@<TRIPOS>BOND
   1    1    2 1
   2    1   24 ar
   3    1   11 ar
   4    2    3 3
   5    3    4 1
   6    4    5 ar
   7    4    8 ar
   8    5    9 ar
   9    5   26 1
  10    6    7 ar
  11    6   14 1
  12    6    9 ar
  13    7    8 ar
  14    8   27 1
  15   10   12 ar
  16   10   24 ar
  17   10   28 1
  18   11   13 ar
  19   11   29 1
  20   12   13 ar
  21   12   30 1
  22   13   23 1
  23   14   15 am
  24   14   19 1
  25   15   16 1
  26   15   22 2
  27   16   17 1
  28   16   31 1
  29   16   32 1
  30   17   18 1
  31   17   20 1
  32   17   21 1
  33   18   19 1
  34   18   33 1
  35   18   34 1
  36   19   35 1
  37   19   36 1
  38   20   37 1
  39   20   38 1
  40   20   39 1
  41   21   40 1
  42   21   41 1
  43   21   42 1
  44   24   25 1

#	End of record

