#	Name: ASD01811094
#	Creating user name:	WinNT
#	Creation time:	15. 06. 2019 19:26

#	Modifying user name:	WinNT
#	Modification time:	15. 06. 2019 19:26

#	Program:	/corina/corina34_cracker 3.40 0067  02.08.2006

@<TRIPOS>MOLECULE
ASD01811094
  49   52    0    0    0
SMALL
NO_CHARGES


@<TRIPOS>ATOM
   1 C1            -0.0080     1.3230     0.1566 C.2     
   2 C2             0.0042    -0.0205     0.1566 C.2     
   3 N3            -1.1548    -0.7304     0.0174 N.pl3   
   4 C4            -2.3548    -0.1587    -0.1383 C.2     
   5 C5            -2.4699     1.2172    -0.1617 C.2     
   6 C6            -1.2438     2.0098    -0.0037 C.2     
   7 C7            -1.0801    -2.1933     0.0394 C.3     
   8 C8            -1.8885    -2.7548    -1.1018 C.ar    
   9 O9            -1.2828     3.2299    -0.0171 O.2     
  10 C10           -3.7784     1.8676    -0.3347 C.2     
  11 O11           -4.7810     1.1920    -0.4600 O.2     
  12 O12           -3.8652     3.2124    -0.3543 O.3     
  13 C13           -1.3227    -2.8629    -2.3594 C.ar    
  14 C14           -2.0585    -3.3764    -3.4081 C.ar    
  15 C15           -3.3736    -3.7862    -3.1982 C.ar    
  16 C16           -3.9385    -3.6750    -1.9293 C.ar    
  17 C17           -3.1917    -3.1653    -0.8865 C.ar    
  18 C18           -4.1698    -4.3386    -4.3220 C.ar    
  19 C19           -5.4849    -4.7484    -4.1121 C.ar    
  20 C20           -6.2209    -5.2615    -5.1609 C.ar    
  21 C21           -5.6551    -5.3696    -6.4185 C.ar    
  22 C22           -4.3499    -4.9648    -6.6324 C.ar    
  23 C23           -3.6070    -4.4440    -5.5922 C.ar    
  24 C24            1.2315     2.1606     0.3255 C.3     
  25 C25            2.4857     1.3330     0.0533 C.3     
  26 C26            2.3952     0.0433     0.8784 C.3     
  27 C27            1.2773    -0.8185     0.2975 C.3     
  28 O28            1.0421    -1.9304     1.1637 O.3     
  29 H29           -3.2352    -0.7749    -0.2463 H       
  30 H30           -0.0408    -2.5056    -0.0634 H       
  31 H31           -1.4790    -2.5634     0.9838 H       
  32 H32           -4.7461     3.5939    -0.4704 H       
  33 H33           -0.3034    -2.5446    -2.5210 H       
  34 H34           -1.6159    -3.4600    -4.3897 H       
  35 H35           -4.9574    -3.9912    -1.7612 H       
  36 H36           -3.6286    -3.0787     0.0974 H       
  37 H37           -5.9274    -4.6650    -3.1304 H       
  38 H38           -7.2403    -5.5794    -4.9993 H       
  39 H39           -6.2345    -5.7720    -7.2363 H       
  40 H40           -3.9129    -5.0517    -7.6162 H       
  41 H41           -2.5880    -4.1279    -5.7604 H       
  42 H42            1.1961     2.9982    -0.3711 H       
  43 H43            1.2691     2.5443     1.3451 H       
  44 H44            2.5419     1.0880    -1.0074 H       
  45 H45            3.3702     1.8974     0.3485 H       
  46 H46            3.3411    -0.4954     0.8234 H       
  47 H47            2.1699     0.2864     1.9168 H       
  48 H48            1.5805    -1.1862    -0.6828 H       
  49 H49            1.7868    -2.5440     1.2271 H       
@<TRIPOS>BOND
   1    1    2 2
   2    1   24 1
   3    1    6 1
   4    2    3 1
   5    2   27 1
   6    3    4 1
   7    3    7 1
   8    4    5 2
   9    4   29 1
  10    5    6 1
  11    5   10 1
  12    6    9 2
  13    7    8 1
  14    7   30 1
  15    7   31 1
  16    8   13 ar
  17    8   17 ar
  18   10   11 2
  19   10   12 1
  20   12   32 1
  21   13   14 ar
  22   13   33 1
  23   14   15 ar
  24   14   34 1
  25   15   16 ar
  26   15   18 1
  27   16   17 ar
  28   16   35 1
  29   17   36 1
  30   18   19 ar
  31   18   23 ar
  32   19   20 ar
  33   19   37 1
  34   20   21 ar
  35   20   38 1
  36   21   22 ar
  37   21   39 1
  38   22   23 ar
  39   22   40 1
  40   23   41 1
  41   24   25 1
  42   24   42 1
  43   24   43 1
  44   25   26 1
  45   25   44 1
  46   25   45 1
  47   26   27 1
  48   26   46 1
  49   26   47 1
  50   27   28 1
  51   27   48 1
  52   28   49 1

#	End of record

