#	Name: ASD01520001
#	Creating user name:	WinNT
#	Creation time:	15. 06. 2019 19:21

#	Modifying user name:	WinNT
#	Modification time:	15. 06. 2019 19:21

#	Program:	/corina/corina34_cracker 3.40 0067  02.08.2006

@<TRIPOS>MOLECULE
ASD01520001
  59   58    0    0    0
SMALL
NO_CHARGES


@<TRIPOS>ATOM
   1 S1             1.6555     3.7844     1.4215 S.o2    
   2 O2             2.0943     2.4427     1.5841 O.2     
   3 O3             2.5390     4.8973     1.4284 O.2     
   4 O4             0.9105     3.8353     0.0953 O.3     
   5 O5             0.6350     4.0391     2.5216 O.3     
   6 C6             0.5619     5.1558    -0.3253 C.3     
   7 C7            -0.1788     5.0863    -1.6622 C.3     
   8 C8            -0.5520     6.5001    -2.1125 C.3     
   9 C9            -1.2927     6.4307    -3.4495 C.3     
  10 C10           -1.6659     7.8445    -3.8998 C.3     
  11 C11           -2.4066     7.7750    -5.2368 C.3     
  12 C12           -2.7798     9.1888    -5.6871 C.3     
  13 C13           -3.5205     9.1194    -7.0241 C.3     
  14 C14           -3.8881    10.5119    -7.4676 C.2     
  15 C15           -3.5515    10.9288    -8.6630 C.2     
  16 C16           -2.9473     9.9675    -9.6539 C.3     
  17 C17           -3.7338    10.0252   -10.9650 C.3     
  18 C18           -3.1204     9.0492   -11.9711 C.3     
  19 C19           -3.9069     9.1069   -13.2822 C.3     
  20 C20           -3.2935     8.1309   -14.2882 C.3     
  21 C21           -4.0800     8.1886   -15.5993 C.3     
  22 C22           -3.4666     7.2126   -16.6054 C.3     
  23 C23           -4.2531     7.2703   -17.9165 C.3     
  24 H24            1.0076     4.0282     3.4139 H       
  25 H25           -0.0821     5.6174     0.4233 H       
  26 H26            1.4676     5.7508    -0.4421 H       
  27 H27            0.4652     4.6247    -2.4108 H       
  28 H28           -1.0845     4.4912    -1.5453 H       
  29 H29           -1.1959     6.9617    -1.3640 H       
  30 H30            0.3537     7.0952    -2.2294 H       
  31 H31           -0.6487     5.9690    -4.1981 H       
  32 H32           -2.1984     5.8356    -3.3326 H       
  33 H33           -2.3098     8.3061    -3.1513 H       
  34 H34           -0.7602     8.4395    -4.0167 H       
  35 H35           -1.7626     7.3134    -5.9853 H       
  36 H36           -3.3123     7.1799    -5.1199 H       
  37 H37           -3.4237     9.6504    -4.9385 H       
  38 H38           -1.8741     9.7839    -5.8040 H       
  39 H39           -2.8765     8.6577    -7.7726 H       
  40 H40           -4.4262     8.5243    -6.9072 H       
  41 H41           -4.4290    11.1661    -6.8000 H       
  42 H42           -3.7070    11.9615    -8.9384 H       
  43 H43           -1.9093    10.2427    -9.8405 H       
  44 H44           -2.9881     8.9560    -9.2500 H       
  45 H45           -4.7719     9.7500   -10.7784 H       
  46 H46           -3.6931    11.0368   -11.3690 H       
  47 H47           -2.0824     9.3244   -12.1577 H       
  48 H48           -3.1612     8.0377   -11.5671 H       
  49 H49           -4.9450     8.8317   -13.0956 H       
  50 H50           -3.8662    10.1185   -13.6861 H       
  51 H51           -2.2555     8.4061   -14.4748 H       
  52 H52           -3.3343     7.1194   -13.8843 H       
  53 H53           -5.1181     7.9134   -15.4127 H       
  54 H54           -4.0393     9.2002   -16.0033 H       
  55 H55           -2.4286     7.4878   -16.7920 H       
  56 H56           -3.5074     6.2011   -16.2014 H       
  57 H57           -3.8162     6.5750   -18.6332 H       
  58 H58           -5.2912     6.9951   -17.7299 H       
  59 H59           -4.2124     8.2819   -18.3204 H       
@<TRIPOS>BOND
   1    1    2 2
   2    1    3 2
   3    1    4 1
   4    1    5 1
   5    4    6 1
   6    5   24 1
   7    6    7 1
   8    6   25 1
   9    6   26 1
  10    7    8 1
  11    7   27 1
  12    7   28 1
  13    8    9 1
  14    8   29 1
  15    8   30 1
  16    9   10 1
  17    9   31 1
  18    9   32 1
  19   10   11 1
  20   10   33 1
  21   10   34 1
  22   11   12 1
  23   11   35 1
  24   11   36 1
  25   12   13 1
  26   12   37 1
  27   12   38 1
  28   13   14 1
  29   13   39 1
  30   13   40 1
  31   14   15 2
  32   14   41 1
  33   15   16 1
  34   15   42 1
  35   16   17 1
  36   16   43 1
  37   16   44 1
  38   17   18 1
  39   17   45 1
  40   17   46 1
  41   18   19 1
  42   18   47 1
  43   18   48 1
  44   19   20 1
  45   19   49 1
  46   19   50 1
  47   20   21 1
  48   20   51 1
  49   20   52 1
  50   21   22 1
  51   21   53 1
  52   21   54 1
  53   22   23 1
  54   22   55 1
  55   22   56 1
  56   23   57 1
  57   23   58 1
  58   23   59 1

#	End of record

