#	Name: ASD00601007
#	Creating user name:	WinNT
#	Creation time:	15. 06. 2019 18:36

#	Modifying user name:	WinNT
#	Modification time:	15. 06. 2019 18:36

#	Program:	/corina/corina34_cracker 3.40 0067  02.08.2006

@<TRIPOS>MOLECULE
ASD00601007
  26   27    0    0    0
SMALL
NO_CHARGES


@<TRIPOS>ATOM
   1 S1            -0.0218     1.7546     0.0117 S.3     
   2 C2             0.0021    -0.0041     0.0020 C.2     
   3 C3             1.2658    -0.4344    -0.0124 C.2     
   4 C4             2.2222     0.5669    -0.0161 C.2     
   5 C5             1.7361     1.8086    -0.0048 C.2     
   6 S6             2.7068     3.2791    -0.0062 S.o2    
   7 Cl7           -1.4026    -1.0242     0.0100 Cl      
   8 N8             2.9618     3.6967    -1.5882 N.am    
   9 O9             1.8901     4.2995     0.5516 O.2     
  10 O10            3.9760     2.9226     0.5243 O.2     
  11 C11            1.8874     4.0689    -2.3918 C.ar    
  12 N12            0.6606     4.0897    -1.8934 N.ar    
  13 C13           -0.3592     4.4445    -2.6597 C.ar    
  14 C14           -0.1490     4.7929    -3.9787 C.ar    
  15 N15            1.0747     4.7752    -4.4865 N.ar    
  16 C16            2.1008     4.4279    -3.7278 C.ar    
  17 O17            3.3555     4.4094    -4.2458 O.3     
  18 C18            3.4956     4.7770    -5.6196 C.3     
  19 Br19          -1.6126     5.2968    -5.0648 Br      
  20 H20            1.5225    -1.4834    -0.0201 H       
  21 H21            3.2818     0.3580    -0.0270 H       
  22 H22            3.8596     3.6821    -1.9551 H       
  23 H23           -1.3590     4.4609    -2.2516 H       
  24 H24            2.9128     4.0956    -6.2393 H       
  25 H25            3.1351     5.7958    -5.7617 H       
  26 H26            4.5459     4.7201    -5.9056 H       
@<TRIPOS>BOND
   1    1    2 1
   2    1    5 1
   3    2    3 2
   4    2    7 1
   5    3    4 1
   6    3   20 1
   7    4    5 2
   8    4   21 1
   9    5    6 1
  10    6    8 am
  11    6    9 2
  12    6   10 2
  13    8   11 1
  14    8   22 1
  15   11   12 ar
  16   11   16 ar
  17   12   13 ar
  18   13   14 ar
  19   13   23 1
  20   14   15 ar
  21   14   19 1
  22   15   16 ar
  23   16   17 1
  24   17   18 1
  25   18   24 1
  26   18   25 1
  27   18   26 1

#	End of record

