#	Name: ASD01918507
#	Creating user name:	WinNT
#	Creation time:	15. 06. 2019 20:11

#	Modifying user name:	WinNT
#	Modification time:	15. 06. 2019 20:11

#	Program:	/corina/corina34_cracker 3.40 0067  02.08.2006

@<TRIPOS>MOLECULE
ASD01918507
  38   41    0    0    0
SMALL
NO_CHARGES


@<TRIPOS>ATOM
   1 F1             0.0083    -0.0029    -0.0799 F       
   2 C2            -0.0114     1.3477    -0.0523 C.ar    
   3 C3             1.0045     2.0660    -0.6643 C.ar    
   4 C4             0.9890     3.4440    -0.6395 C.ar    
   5 C5            -0.0523     4.1167     0.0035 C.ar    
   6 C6            -1.0729     3.3882     0.6183 C.ar    
   7 C7            -1.0504     2.0105     0.5830 C.ar    
   8 C8            -0.0738     5.5934     0.0337 C.2     
   9 O9            -1.1332     6.1871    -0.0219 O.2     
  10 N10            1.0810     6.2826     0.1230 N.am    
  11 C11            1.0918     7.7501     0.0291 C.3     
  12 C12            1.5701     8.3350     1.3640 C.3     
  13 C13            2.7792     7.5639     1.8273 C.2     
  14 O14            3.6908     7.9285     2.7410 O.3     
  15 C15            4.5899     6.9307     2.8391 C.2     
  16 N16            4.2464     5.9728     2.0066 N.2     
  17 C17            3.1337     6.3436     1.3712 C.2     
  18 C18            2.3636     5.5843     0.3232 C.3     
  19 C19            5.7665     6.9149     3.7337 C.ar    
  20 C20            6.6232     5.8140     3.7300 C.ar    
  21 C21            7.7207     5.8129     4.5727 C.ar    
  22 C22            7.9271     6.9146     5.3941 C.ar    
  23 F23            8.9871     6.9526     6.2309 F       
  24 C24            7.0349     7.9746     5.3460 C.ar    
  25 N25            6.0018     7.9514     4.5305 N.ar    
  26 H26            1.8095     1.5448    -1.1610 H       
  27 H27            1.7810     4.0026    -1.1162 H       
  28 H28           -1.8805     3.9035     1.1170 H       
  29 H29           -1.8415     1.4462     1.0543 H       
  30 H30            1.7684     8.0593    -0.7676 H       
  31 H31            0.0854     8.1089    -0.1863 H       
  32 H32            1.8353     9.3837     1.2292 H       
  33 H33            0.7760     8.2495     2.1058 H       
  34 H34            2.1817     4.5648     0.6634 H       
  35 H35            2.9277     5.5700    -0.6093 H       
  36 H36            6.4324     4.9740     3.0786 H       
  37 H37            8.4012     4.9745     4.5920 H       
  38 H38            7.1918     8.8325     5.9830 H       
@<TRIPOS>BOND
   1    1    2 1
   2    2    7 ar
   3    2    3 ar
   4    3    4 ar
   5    3   26 1
   6    4    5 ar
   7    4   27 1
   8    5    6 ar
   9    5    8 1
  10    6    7 ar
  11    6   28 1
  12    7   29 1
  13    8    9 2
  14    8   10 am
  15   10   18 1
  16   10   11 1
  17   11   12 1
  18   11   30 1
  19   11   31 1
  20   12   13 1
  21   12   32 1
  22   12   33 1
  23   13   17 2
  24   13   14 1
  25   14   15 1
  26   15   16 2
  27   15   19 1
  28   16   17 1
  29   17   18 1
  30   18   34 1
  31   18   35 1
  32   19   25 ar
  33   19   20 ar
  34   20   21 ar
  35   20   36 1
  36   21   22 ar
  37   21   37 1
  38   22   23 1
  39   22   24 ar
  40   24   25 ar
  41   24   38 1

#	End of record

