#	Name: ASD02562047
#	Creating user name:	WinNT
#	Creation time:	15. 06. 2019 20:25

#	Modifying user name:	WinNT
#	Modification time:	15. 06. 2019 20:25

#	Program:	/corina/corina34_cracker 3.40 0067  02.08.2006

@<TRIPOS>MOLECULE
ASD02562047
  43   46    0    0    0
SMALL
NO_CHARGES


@<TRIPOS>ATOM
   1 C1             0.1355     1.3886     1.1067 C.2     
   2 C2             0.1567    -0.0176     1.0944 C.2     
   3 C3             1.2851    -0.6790     0.7686 C.2     
   4 N4             2.4257     0.0059     0.4452 N.pl3   
   5 C5             2.4351     1.3821     0.4481 C.2     
   6 C6             1.2590     2.0842     0.7878 C.2     
   7 C7             3.6780    -0.4088     0.0854 C.2     
   8 C8             4.4298     0.7281    -0.1249 C.2     
   9 N9             3.6435     1.7959     0.1042 N.2     
  10 N10            4.1118    -1.7285    -0.0440 N.3     
  11 C11            5.8538     0.7670    -0.5324 C.ar    
  12 C12            2.9883    -2.6666     0.0809 C.3     
  13 C13            3.3290    -3.9698    -0.6448 C.3     
  14 C14            2.1588    -4.9469    -0.5147 C.3     
  15 C15            1.9007    -5.2394     0.9648 C.3     
  16 C16            1.5601    -3.9362     1.6904 C.3     
  17 C17            2.7302    -2.9591     1.5603 C.3     
  18 C18            6.3122     1.7760    -1.3791 C.ar    
  19 C19            7.6393     1.8073    -1.7553 C.ar    
  20 C20            8.5151     0.8394    -1.2945 C.ar    
  21 C21            8.0655    -0.1648    -0.4543 C.ar    
  22 C22            6.7419    -0.2020    -0.0662 C.ar    
  23 Br23          10.3323     0.8886    -1.8151 Br      
  24 H24           -0.7720     1.9143     1.3644 H       
  25 H25           -0.7358    -0.5705     1.3477 H       
  26 H26            1.2897    -1.7590     0.7629 H       
  27 H27            1.2515     3.1641     0.7940 H       
  28 H28            4.6012    -1.8644    -0.9158 H       
  29 H29            2.0959    -2.2259    -0.3634 H       
  30 H30            3.5129    -3.7614    -1.6987 H       
  31 H31            4.2214    -4.4105    -0.2004 H       
  32 H32            1.2664    -4.5062    -0.9590 H       
  33 H33            2.4015    -5.8753    -1.0317 H       
  34 H34            1.0671    -5.9355     1.0574 H       
  35 H35            2.7932    -5.6801     1.4091 H       
  36 H36            0.6676    -3.4955     1.2461 H       
  37 H37            1.3762    -4.1446     2.7444 H       
  38 H38            3.6227    -3.3998     2.0047 H       
  39 H39            2.4875    -2.0307     2.0773 H       
  40 H40            5.6297     2.5312    -1.7398 H       
  41 H41            7.9954     2.5882    -2.4109 H       
  42 H42            8.7530    -0.9176    -0.0980 H       
  43 H43            6.3923    -0.9857     0.5896 H       
@<TRIPOS>BOND
   1    1    2 1
   2    1    6 2
   3    1   24 1
   4    2    3 2
   5    2   25 1
   6    3    4 1
   7    3   26 1
   8    4    5 1
   9    4    7 1
  10    5    6 1
  11    5    9 2
  12    6   27 1
  13    7    8 2
  14    7   10 1
  15    8    9 1
  16    8   11 1
  17   10   12 1
  18   10   28 1
  19   11   18 ar
  20   11   22 ar
  21   12   13 1
  22   12   17 1
  23   12   29 1
  24   13   14 1
  25   13   30 1
  26   13   31 1
  27   14   15 1
  28   14   32 1
  29   14   33 1
  30   15   16 1
  31   15   34 1
  32   15   35 1
  33   16   17 1
  34   16   36 1
  35   16   37 1
  36   17   38 1
  37   17   39 1
  38   18   19 ar
  39   18   40 1
  40   19   20 ar
  41   19   41 1
  42   20   21 ar
  43   20   23 1
  44   21   22 ar
  45   21   42 1
  46   22   43 1

#	End of record

