#	Name: ASD05130111
#	Creating user name:	WinNT
#	Creation time:	15. 06. 2019 20:56

#	Modifying user name:	WinNT
#	Modification time:	15. 06. 2019 20:56

#	Program:	/corina/corina34_cracker 3.40 0067  02.08.2006

@<TRIPOS>MOLECULE
ASD05130111
  65   69    0    0    0
SMALL
NO_CHARGES


@<TRIPOS>ATOM
   1 N1             0.1466    -3.1033     1.8522 N.3     
   2 C2            -0.3257    -1.9800     1.0221 C.3     
   3 C3            -1.3386    -1.1804     1.8684 C.3     
   4 C4            -0.9579    -1.5631     3.3229 C.3     
   5 C5            -0.5443    -3.0468     3.1580 C.3     
   6 C6            -0.9979    -2.5071    -0.2194 C.2     
   7 O7            -1.3829    -3.6564    -0.2590 O.2     
   8 N8            -1.1714    -1.7012    -1.2856 N.am    
   9 N9            -2.7773    -1.0666    -5.7712 N.am    
  10 C10           -3.2827    -1.5859    -6.9072 C.2     
  11 C11           -3.5329    -3.0255    -7.0133 C.2     
  12 C12           -3.2496    -3.8397    -5.9512 C.2     
  13 C13           -2.7188    -3.2699    -4.7691 C.ar    
  14 C14           -2.4137    -4.0656    -3.6578 C.ar    
  15 N15           -1.9212    -3.5201    -2.5673 N.ar    
  16 C16           -1.6939    -2.2152    -2.4688 C.ar    
  17 C17           -1.9673    -1.3549    -3.5212 C.ar    
  18 C18           -2.4897    -1.8788    -4.6988 C.ar    
  19 O19           -3.5329    -0.8555    -7.8495 O.2     
  20 C20           -2.5263     0.3738    -5.6795 C.3     
  21 C21           -3.7759     1.0762    -5.1446 C.3     
  22 C22           -4.0896    -3.5957    -8.2624 C.ar    
  23 C23           -3.2782    -3.7372    -9.3893 C.ar    
  24 C24           -3.7990    -4.2689   -10.5528 C.ar    
  25 C25           -5.1249    -4.6625   -10.6051 C.ar    
  26 C26           -5.9399    -4.5245    -9.4859 C.ar    
  27 C27           -5.4232    -3.9973    -8.3134 C.ar    
  28 N28           -7.2818    -4.9241    -9.5428 N.am    
  29 C29           -7.8710    -5.4632    -8.4571 C.2     
  30 O30           -7.2647    -5.5272    -7.4051 O.2     
  31 N31           -9.1322    -5.9314    -8.5376 N.am    
  32 C32           -9.7779    -6.4034    -7.3893 C.ar    
  33 C33          -11.1431    -6.2067    -7.2281 C.ar    
  34 C34          -11.7774    -6.6738    -6.0936 C.ar    
  35 C35          -11.0545    -7.3367    -5.1188 C.ar    
  36 C36           -9.6949    -7.5342    -5.2764 C.ar    
  37 C37           -9.0558    -7.0746    -6.4112 C.ar    
  38 F38           -5.6292    -5.1815   -11.7460 F       
  39 Cl39          -1.6147    -3.2444    -9.3287 Cl      
  40 H40           -0.0190    -3.9866     1.3934 H       
  41 H41            0.5147    -1.3419     0.7489 H       
  42 H42           -1.2153    -0.1095     1.7068 H       
  43 H43           -2.3589    -1.4904     1.6428 H       
  44 H44           -0.1212    -0.9618     3.6786 H       
  45 H45           -1.8156    -1.4685     3.9887 H       
  46 H46           -1.4260    -3.6877     3.1489 H       
  47 H47            0.1330    -3.3432     3.9589 H       
  48 H48           -0.9320    -0.7629    -1.2284 H       
  49 H49           -3.4287    -4.9029    -6.0136 H       
  50 H50           -2.5842    -5.1314    -3.6962 H       
  51 H51           -1.7782    -0.2957    -3.4279 H       
  52 H52           -1.6905     0.5547    -5.0037 H       
  53 H53           -2.2852     0.7643    -6.6682 H       
  54 H54           -4.6117     0.8954    -5.8205 H       
  55 H55           -4.0170     0.6858    -4.1559 H       
  56 H56           -3.5891     2.1479    -5.0764 H       
  57 H57           -3.1701    -4.3775   -11.4241 H       
  58 H58           -6.0535    -3.8938    -7.4425 H       
  59 H59           -7.7866    -4.8128   -10.3636 H       
  60 H60           -9.5924    -5.9412    -9.3914 H       
  61 H61          -11.7082    -5.6888    -7.9889 H       
  62 H62          -12.8390    -6.5209    -5.9675 H       
  63 H63          -11.5527    -7.7007    -4.2325 H       
  64 H64           -9.1331    -8.0523    -4.5133 H       
  65 H65           -7.9948    -7.2333    -6.5359 H       
@<TRIPOS>BOND
   1    1    2 1
   2    1    5 1
   3    1   40 1
   4    2    3 1
   5    2    6 1
   6    2   41 1
   7    3    4 1
   8    3   42 1
   9    3   43 1
  10    4    5 1
  11    4   44 1
  12    4   45 1
  13    5   46 1
  14    5   47 1
  15    6    7 2
  16    6    8 am
  17    8   16 1
  18    8   48 1
  19    9   10 am
  20    9   18 1
  21    9   20 1
  22   10   11 1
  23   10   19 2
  24   11   12 2
  25   11   22 1
  26   12   13 1
  27   12   49 1
  28   13   14 ar
  29   13   18 ar
  30   14   15 ar
  31   14   50 1
  32   15   16 ar
  33   16   17 ar
  34   17   18 ar
  35   17   51 1
  36   20   21 1
  37   20   52 1
  38   20   53 1
  39   21   54 1
  40   21   55 1
  41   21   56 1
  42   22   23 ar
  43   22   27 ar
  44   23   24 ar
  45   23   39 1
  46   24   25 ar
  47   24   57 1
  48   25   26 ar
  49   25   38 1
  50   26   27 ar
  51   26   28 1
  52   27   58 1
  53   28   29 am
  54   28   59 1
  55   29   30 2
  56   29   31 am
  57   31   32 1
  58   31   60 1
  59   32   33 ar
  60   32   37 ar
  61   33   34 ar
  62   33   61 1
  63   34   35 ar
  64   34   62 1
  65   35   36 ar
  66   35   63 1
  67   36   37 ar
  68   36   64 1
  69   37   65 1

#	End of record

