#	Name: ASD01150056
#	Creating user name:	WinNT
#	Creation time:	15. 06. 2019 19:03

#	Modifying user name:	WinNT
#	Modification time:	15. 06. 2019 19:03

#	Program:	/corina/corina34_cracker 3.40 0067  02.08.2006

@<TRIPOS>MOLECULE
ASD01150056
  29   29    0    0    0
SMALL
NO_CHARGES


@<TRIPOS>ATOM
   1 C1            -0.0168     1.3845     0.0097 C.2     
   2 C2             0.0021    -0.0041     0.0020 C.2     
   3 N3            -1.2696    -0.4207     0.0119 N.2     
   4 C4            -2.0752     0.6089     0.0251 C.2     
   5 N5            -1.3581     1.7463     0.0305 N.pl3   
   6 C6            -1.8911     3.1108     0.0449 C.3     
   7 C7             1.0996     2.2517     0.0037 C.2     
   8 O8             0.9155     3.5890     0.0131 O.3     
   9 O9             2.2269     1.7926    -0.0100 O.2     
  10 C10            2.0883     4.4054     0.0062 C.3     
  11 C11            1.6828     5.8806     0.0187 C.3     
  12 N12            1.1306    -0.8103    -0.0135 N.pl3   
  13 C13           -3.5802     0.5324     0.0386 C.3     
  14 C14           -4.0762     0.4990     1.4856 C.3     
  15 H15           -2.0174     3.4407     1.0761 H       
  16 H16           -1.1972     3.7773    -0.4673 H       
  17 H17           -2.8552     3.1297    -0.4632 H       
  18 H18            2.6887     4.1862     0.8891 H       
  19 H19            2.6713     4.1963    -0.8907 H       
  20 H20            2.5774     6.5033     0.0134 H       
  21 H21            1.0824     6.0998    -0.8642 H       
  22 H22            1.0998     6.0897     0.9156 H       
  23 H23            2.0136    -0.4087    -0.0201 H       
  24 H24            1.0370    -1.7757    -0.0177 H       
  25 H25           -3.9929     1.4054    -0.4669 H       
  26 H26           -3.9026    -0.3722    -0.4770 H       
  27 H27           -3.6635    -0.3740     1.9911 H       
  28 H28           -3.7538     1.4036     2.0011 H       
  29 H29           -5.1648     0.4437     1.4953 H       
@<TRIPOS>BOND
   1    1    2 2
   2    1    7 1
   3    1    5 1
   4    2    3 1
   5    2   12 1
   6    3    4 2
   7    4    5 1
   8    4   13 1
   9    5    6 1
  10    6   15 1
  11    6   16 1
  12    6   17 1
  13    7    8 1
  14    7    9 2
  15    8   10 1
  16   10   11 1
  17   10   18 1
  18   10   19 1
  19   11   20 1
  20   11   21 1
  21   11   22 1
  22   12   23 1
  23   12   24 1
  24   13   14 1
  25   13   25 1
  26   13   26 1
  27   14   27 1
  28   14   28 1
  29   14   29 1

#	End of record

