#	Name: ASD06170028
#	Creating user name:	WinNT
#	Creation time:	15. 06. 2019 21:05

#	Modifying user name:	WinNT
#	Modification time:	15. 06. 2019 21:05

#	Program:	/corina/corina34_cracker 3.40 0067  02.08.2006

@<TRIPOS>MOLECULE
ASD06170028
  68   73    0    0    0
SMALL
NO_CHARGES


@<TRIPOS>ATOM
   1 N1            -0.0396    -2.5805    -0.8697 N.pl3   
   2 N2            -0.2485    -1.2224    -0.6134 N.am    
   3 C3             0.9143    -0.6681    -0.2159 C.2     
   4 C4             1.9216    -1.7376    -0.2199 C.2     
   5 C5             1.2656    -2.8964    -0.6343 C.2     
   6 C6             3.3367    -1.6116     0.1406 C.2     
   7 O7             4.0414    -2.6024     0.1950 O.2     
   8 N8             3.8576    -0.3985     0.4119 N.am    
   9 C9             1.8773    -4.2317    -0.7902 C.ar    
  10 C10            1.3627    -5.3245    -0.0888 C.ar    
  11 N11            2.9178    -4.3991    -1.6039 N.ar    
  12 N12            1.9134    -6.5160    -0.2324 N.ar    
  13 C13            2.9492    -6.6745    -1.0379 C.ar    
  14 C14            3.4601    -5.5924    -1.7402 C.ar    
  15 C15           -1.4662    -0.5479    -0.7481 C.ar    
  16 C16           -1.9207     0.2782     0.2718 C.ar    
  17 C17           -3.1236     0.9428     0.1357 C.ar    
  18 C18           -3.8756     0.7862    -1.0142 C.ar    
  19 C19           -3.4262    -0.0359    -2.0313 C.ar    
  20 C20           -2.2209    -0.6982    -1.9043 C.ar    
  21 O21            1.0952     0.4964     0.0884 O.2     
  22 C22           -1.0683    -3.5228    -1.3172 C.3     
  23 C23            5.2245    -0.2650     0.6551 C.ar    
  24 C24            5.7730     1.0020     0.8198 C.ar    
  25 C25            7.1296     1.1230     1.0606 C.ar    
  26 C26            7.8974    -0.0371     1.1289 C.ar    
  27 C27            7.2820    -1.2663     0.9547 C.ar    
  28 N28            5.9840    -1.3458     0.7319 N.ar    
  29 O29            9.2347     0.0358     1.3632 O.3     
  30 N30           10.4641     0.7779     5.2296 N.ar    
  31 C31            9.1925     0.5887     4.9661 C.ar    
  32 C32            8.7411     0.3366     3.6768 C.ar    
  33 C33            9.6463     0.2805     2.6317 C.ar    
  34 C34           11.0128     0.4857     2.9271 C.ar    
  35 C35           11.9891     0.4443     1.9204 C.ar    
  36 C36           13.3000     0.6475     2.2420 C.ar    
  37 C37           13.6804     0.8968     3.5684 C.ar    
  38 C38           12.7508     0.9423     4.5671 C.ar    
  39 C39           11.3938     0.7376     4.2676 C.ar    
  40 O40           14.9919     1.0951     3.8637 O.3     
  41 C41           15.3182     1.3446     5.2324 C.3     
  42 O42           14.2464     0.6075     1.2665 O.3     
  43 C43           13.7955     0.3488    -0.0646 C.3     
  44 H44            3.2819     0.3817     0.4379 H       
  45 H45            0.5166    -5.1952     0.5698 H       
  46 H46            3.3970    -7.6505    -1.1528 H       
  47 H47            4.3041    -5.7285    -2.4002 H       
  48 H48           -1.3342     0.4004     1.1704 H       
  49 H49           -3.4776     1.5853     0.9283 H       
  50 H50           -4.8162     1.3067    -1.1181 H       
  51 H51           -4.0162    -0.1567    -2.9278 H       
  52 H52           -1.8680    -1.3361    -2.7011 H       
  53 H53           -2.0362    -3.0219    -1.3363 H       
  54 H54           -0.8239    -3.8793    -2.3178 H       
  55 H55           -1.1102    -4.3681    -0.6304 H       
  56 H56            5.1478     1.8806     0.7602 H       
  57 H57            7.5830     2.0943     1.1922 H       
  58 H58            7.8710    -2.1701     1.0063 H       
  59 H59            8.4771     0.6299     5.7742 H       
  60 H60            7.6881     0.1846     3.4909 H       
  61 H61           11.7050     0.2522     0.8963 H       
  62 H62           13.0579     1.1349     5.5844 H       
  63 H63           16.3947     1.4850     5.3295 H       
  64 H64           14.8026     2.2433     5.5709 H       
  65 H65           15.0061     0.4958     5.8409 H       
  66 H66           14.6489     0.3438    -0.7427 H       
  67 H67           13.2992    -0.6211    -0.0980 H       
  68 H68           13.0946     1.1263    -0.3683 H       
@<TRIPOS>BOND
   1    1    2 1
   2    1    5 1
   3    1   22 1
   4    2    3 am
   5    2   15 1
   6    3    4 1
   7    3   21 2
   8    4    5 2
   9    4    6 1
  10    5    9 1
  11    6    7 2
  12    6    8 am
  13    8   23 1
  14    8   44 1
  15    9   10 ar
  16    9   11 ar
  17   10   12 ar
  18   10   45 1
  19   11   14 ar
  20   12   13 ar
  21   13   14 ar
  22   13   46 1
  23   14   47 1
  24   15   16 ar
  25   15   20 ar
  26   16   17 ar
  27   16   48 1
  28   17   18 ar
  29   17   49 1
  30   18   19 ar
  31   18   50 1
  32   19   20 ar
  33   19   51 1
  34   20   52 1
  35   22   53 1
  36   22   54 1
  37   22   55 1
  38   23   24 ar
  39   23   28 ar
  40   24   25 ar
  41   24   56 1
  42   25   26 ar
  43   25   57 1
  44   26   27 ar
  45   26   29 1
  46   27   28 ar
  47   27   58 1
  48   29   33 1
  49   30   31 ar
  50   30   39 ar
  51   31   32 ar
  52   31   59 1
  53   32   33 ar
  54   32   60 1
  55   33   34 ar
  56   34   35 ar
  57   34   39 ar
  58   35   36 ar
  59   35   61 1
  60   36   37 ar
  61   36   42 1
  62   37   38 ar
  63   37   40 1
  64   38   39 ar
  65   38   62 1
  66   40   41 1
  67   41   63 1
  68   41   64 1
  69   41   65 1
  70   42   43 1
  71   43   66 1
  72   43   67 1
  73   43   68 1

#	End of record

