#	Name: ASD02500319
#	Creating user name:	WinNT
#	Creation time:	15. 06. 2019 20:22

#	Modifying user name:	WinNT
#	Modification time:	15. 06. 2019 20:22

#	Program:	/corina/corina34_cracker 3.40 0067  02.08.2006

@<TRIPOS>MOLECULE
ASD02500319
  62   66    0    0    0
SMALL
NO_CHARGES


@<TRIPOS>ATOM
   1 S1             2.4465     3.6741    -0.1590 S.3     
   2 C2             3.0633     2.4705    -1.1997 C.2     
   3 N3             3.5226     1.4729    -0.5436 N.2     
   4 C4             3.4546     1.5189     0.8005 C.ar    
   5 C5             2.8659     2.7061     1.2508 C.ar    
   6 C6             2.7075     2.9377     2.6151 C.ar    
   7 C7             3.1312     1.9960     3.5261 C.ar    
   8 C8             3.7156     0.8170     3.0863 C.ar    
   9 C9             3.8791     0.5740     1.7560 C.ar    
  10 S10            4.6246    -0.9321     1.2265 S.o2    
  11 O11            5.6323    -0.5738     0.2908 O.2     
  12 O12            4.8882    -1.6846     2.4027 O.2     
  13 N13            3.4783    -1.7751     0.3792 N.am    
  14 C14            3.0660     2.5700    -2.7034 C.3     
  15 C15            2.3051    -2.1773     1.0079 C.ar    
  16 C16            1.0815    -2.0173     0.3633 C.ar    
  17 C17           -0.0813    -2.4144     0.9828 C.ar    
  18 C18           -0.0331    -2.9790     2.2608 C.ar    
  19 C19            1.1971    -3.1383     2.9054 C.ar    
  20 C20            2.3570    -2.7444     2.2783 C.ar    
  21 C21           -1.2778    -3.4053     2.9279 C.2     
  22 O22           -1.2708    -4.3689     3.6696 O.2     
  23 N23           -2.4228    -2.7268     2.7154 N.am    
  24 C24           -3.6975    -3.2039     3.2728 C.3     
  25 C25           -4.3647    -2.0458     4.0225 C.3     
  26 N26           -4.4733    -0.8856     3.1281 N.3     
  27 C27           -3.1477    -0.3992     2.7229 C.3     
  28 C28           -2.4296    -1.4865     1.9250 C.3     
  29 C29           -5.2228     0.1367     3.7214 C.ar    
  30 C30           -6.5796    -0.0507     3.9785 C.ar    
  31 C31           -7.3161     0.9639     4.5661 C.ar    
  32 C32           -6.7054     2.1604     4.8962 C.ar    
  33 C33           -5.3599     2.3473     4.6412 C.ar    
  34 C34           -4.6160     1.3368     4.0604 C.ar    
  35 O35           -7.1790    -1.2273     3.6525 O.3     
  36 C36           -8.5724    -1.3484     3.9452 C.3     
  37 H37            2.2530     3.8554     2.9583 H       
  38 H38            3.0087     2.1756     4.5840 H       
  39 H39            4.0452     0.0835     3.8073 H       
  40 H40            3.6252    -1.9882    -0.5556 H       
  41 H41            2.5401     3.4746    -3.0086 H       
  42 H42            4.0942     2.6086    -3.0631 H       
  43 H43            2.5657     1.6987    -3.1261 H       
  44 H44            1.0449    -1.5808    -0.6239 H       
  45 H45           -1.0302    -2.2898     0.4824 H       
  46 H46            1.2376    -3.5738     3.8929 H       
  47 H47            3.3081    -2.8716     2.7738 H       
  48 H48           -4.3475    -3.5398     2.4648 H       
  49 H49           -3.5105    -4.0270     3.9623 H       
  50 H50           -5.3599    -2.3486     4.3479 H       
  51 H51           -3.7626    -1.7802     4.8914 H       
  52 H52           -3.2603     0.4922     2.1058 H       
  53 H53           -2.5625    -0.1565     3.6099 H       
  54 H54           -1.4047    -1.1748     1.7239 H       
  55 H55           -2.9554    -1.6541     0.9850 H       
  56 H56           -8.3677     0.8213     4.7664 H       
  57 H57           -7.2816     2.9508     5.3541 H       
  58 H58           -4.8875     3.2834     4.9000 H       
  59 H59           -3.5638     1.4839     3.8663 H       
  60 H60           -8.7306    -1.2261     5.0167 H       
  61 H61           -9.1251    -0.5790     3.4062 H       
  62 H62           -8.9244    -2.3326     3.6360 H       
@<TRIPOS>BOND
   1    1    2 1
   2    1    5 1
   3    2    3 2
   4    2   14 1
   5    3    4 1
   6    4    5 ar
   7    4    9 ar
   8    5    6 ar
   9    6    7 ar
  10    6   37 1
  11    7    8 ar
  12    7   38 1
  13    8    9 ar
  14    8   39 1
  15    9   10 1
  16   10   11 2
  17   10   12 2
  18   10   13 am
  19   13   15 1
  20   13   40 1
  21   14   41 1
  22   14   42 1
  23   14   43 1
  24   15   16 ar
  25   15   20 ar
  26   16   17 ar
  27   16   44 1
  28   17   18 ar
  29   17   45 1
  30   18   19 ar
  31   18   21 1
  32   19   20 ar
  33   19   46 1
  34   20   47 1
  35   21   22 2
  36   21   23 am
  37   23   24 1
  38   23   28 1
  39   24   25 1
  40   24   48 1
  41   24   49 1
  42   25   26 1
  43   25   50 1
  44   25   51 1
  45   26   27 1
  46   26   29 1
  47   27   28 1
  48   27   52 1
  49   27   53 1
  50   28   54 1
  51   28   55 1
  52   29   30 ar
  53   29   34 ar
  54   30   31 ar
  55   30   35 1
  56   31   32 ar
  57   31   56 1
  58   32   33 ar
  59   32   57 1
  60   33   34 ar
  61   33   58 1
  62   34   59 1
  63   35   36 1
  64   36   60 1
  65   36   61 1
  66   36   62 1

#	End of record

