#	Name: ASD04880316
#	Creating user name:	WinNT
#	Creation time:	15. 06. 2019 20:53

#	Modifying user name:	WinNT
#	Modification time:	15. 06. 2019 20:53

#	Program:	/corina/corina34_cracker 3.40 0067  02.08.2006

@<TRIPOS>MOLECULE
ASD04880316
  47   49    0    0    0
SMALL
NO_CHARGES


@<TRIPOS>ATOM
   1 C1            -0.0054     1.3703     0.2991 C.ar    
   2 C2             0.0100    -0.0224     0.2656 C.ar    
   3 C3            -1.1788    -0.7260     0.2186 C.ar    
   4 C4            -2.3944    -0.0370     0.2050 C.ar    
   5 C5            -2.4022     1.3598     0.2388 C.ar    
   6 C6            -1.2122     2.0546     0.2909 C.ar    
   7 C7            -3.6655    -0.7820     0.1545 C.2     
   8 O8             1.1649     2.0604     0.3457 O.3     
   9 C9             1.0764     3.4863     0.3782 C.3     
  10 O10            1.1949    -0.6897     0.2785 O.3     
  11 C11            1.1361    -2.1170     0.2423 C.3     
  12 N12           -3.7742    -2.0656     0.1205 N.2     
  13 N13           -5.0891    -2.5244     0.0763 N.am    
  14 C14           -5.9975    -1.3667     0.0818 C.3     
  15 C15           -5.0426    -0.1580     0.1412 C.3     
  16 C16           -5.4673    -3.8174     0.0350 C.2     
  17 C17           -4.4493    -4.8813    -0.0923 C.ar    
  18 O18           -6.6459    -4.1086     0.1024 O.2     
  19 C19           -4.8214    -6.2226     0.0081 C.ar    
  20 C20           -3.8643    -7.2123    -0.1124 C.ar    
  21 C21           -2.5387    -6.8738    -0.3319 C.ar    
  22 C22           -2.1655    -5.5454    -0.4321 C.ar    
  23 C23           -3.1124    -4.5488    -0.3193 C.ar    
  24 C24           -5.2840     0.6545     1.4150 C.3     
  25 C25           -5.2130     0.7220    -1.0987 C.3     
  26 F26           -4.2216    -8.5116    -0.0157 F       
  27 H27           -1.1682    -1.8056     0.1922 H       
  28 H28           -3.3401     1.8951     0.2280 H       
  29 H29           -1.2195     3.1342     0.3174 H       
  30 H30            0.5638     3.8390    -0.5168 H       
  31 H31            0.5186     3.7956     1.2621 H       
  32 H32            2.0793     3.9118     0.4141 H       
  33 H33            0.6299    -2.4368    -0.6685 H       
  34 H34            2.1476    -2.5228     0.2574 H       
  35 H35            0.5860    -2.4801     1.1104 H       
  36 H36           -6.5949    -1.3437    -0.8297 H       
  37 H37           -6.6398    -1.3873     0.9622 H       
  38 H38           -5.8545    -6.4865     0.1798 H       
  39 H39           -1.7938    -7.6502    -0.4248 H       
  40 H40           -1.1306    -5.2882    -0.6028 H       
  41 H41           -2.8188    -3.5124    -0.3982 H       
  42 H42           -5.1107     0.0236     2.2867 H       
  43 H43           -4.6009     1.5035     1.4393 H       
  44 H44           -6.3125     1.0153     1.4263 H       
  45 H45           -6.2398     1.0845    -1.1487 H       
  46 H46           -4.5309     1.5701    -1.0389 H       
  47 H47           -4.9898     0.1385    -1.9919 H       
@<TRIPOS>BOND
   1    1    2 ar
   2    1    8 1
   3    1    6 ar
   4    2    3 ar
   5    2   10 1
   6    3    4 ar
   7    3   27 1
   8    4    5 ar
   9    4    7 1
  10    5    6 ar
  11    5   28 1
  12    6   29 1
  13    7   12 2
  14    7   15 1
  15    8    9 1
  16    9   30 1
  17    9   31 1
  18    9   32 1
  19   10   11 1
  20   11   33 1
  21   11   34 1
  22   11   35 1
  23   12   13 1
  24   13   14 1
  25   13   16 am
  26   14   15 1
  27   14   36 1
  28   14   37 1
  29   15   24 1
  30   15   25 1
  31   16   17 1
  32   16   18 2
  33   17   19 ar
  34   17   23 ar
  35   19   20 ar
  36   19   38 1
  37   20   21 ar
  38   20   26 1
  39   21   22 ar
  40   21   39 1
  41   22   23 ar
  42   22   40 1
  43   23   41 1
  44   24   42 1
  45   24   43 1
  46   24   44 1
  47   25   45 1
  48   25   46 1
  49   25   47 1

#	End of record

