#	Name: ASD01901137
#	Creating user name:	WinNT
#	Creation time:	15. 06. 2019 19:53

#	Modifying user name:	WinNT
#	Modification time:	15. 06. 2019 19:53

#	Program:	/corina/corina34_cracker 3.40 0067  02.08.2006

@<TRIPOS>MOLECULE
ASD01901137
  52   55    0    0    0
SMALL
NO_CHARGES


@<TRIPOS>ATOM
   1 C1            -0.0166     1.3750     0.0096 C.ar    
   2 C2             0.0021    -0.0041     0.0020 C.ar    
   3 C3             1.2078    -0.6830    -0.0131 C.ar    
   4 C4             2.4027     0.0149    -0.0208 C.ar    
   5 C5             2.3997     1.3941    -0.0129 C.ar    
   6 C6             1.1860     2.0866     0.0019 C.ar    
   7 C7             1.1748     3.5185     0.0093 C.1     
   8 C8             1.1655     4.6925     0.0153 C.1     
   9 C9             1.1543     6.1244     0.0226 C.ar    
  10 C10            2.3584     6.8350     0.0149 C.ar    
  11 C11            2.3428     8.2133     0.0221 C.ar    
  12 C12            1.1310     8.8967     0.0373 C.ar    
  13 C13           -0.0674     8.1936     0.0450 C.ar    
  14 C14           -0.0606     6.8156     0.0317 C.ar    
  15 N15            1.1191    10.2966     0.0455 N.am    
  16 C16            1.1244    10.9577     1.2128 C.2     
  17 N17            1.3360    12.2887     1.2734 N.am    
  18 C18            1.7794    13.0160     0.0880 C.3     
  19 C19            0.9776    12.4697    -1.1169 C.3     
  20 C20            1.0894    10.9678    -1.1215 C.2     
  21 O21            0.9358    10.3471     2.2464 O.2     
  22 C22            1.0850    12.9570     2.5506 C.3     
  23 Cl23           3.8367     9.0974     0.0125 Cl      
  24 O24            1.1532    10.3639    -2.1702 O.2     
  25 C25            1.5169    14.5086     0.1672 C.3     
  26 C26            3.2507    12.7062    -0.1931 C.3     
  27 C27            4.1642    13.4418     0.7834 C.3     
  28 C28            3.9567    14.9478     0.6037 C.3     
  29 C29            2.5206    15.2939     0.9938 C.3     
  30 H30           -0.9584     1.9035     0.0169 H       
  31 H31           -0.9266    -0.5554     0.0083 H       
  32 H32            1.2163    -1.7630    -0.0187 H       
  33 H33            3.3399    -0.5217    -0.0326 H       
  34 H34            3.3330     1.9375    -0.0182 H       
  35 H35            3.2993     6.3048     0.0038 H       
  36 H36           -1.0058     8.7280     0.0569 H       
  37 H37           -0.9928     6.2704     0.0328 H       
  38 H38           -0.0627    12.7659    -1.0090 H       
  39 H39            1.3965    12.8788    -2.0324 H       
  40 H40            0.7488    12.2243     3.2842 H       
  41 H41            2.0037    13.4271     2.9014 H       
  42 H42            0.3155    13.7175     2.4177 H       
  43 H43            1.5250    14.9158    -0.8603 H       
  44 H44            0.5053    14.6895     0.5513 H       
  45 H45            3.4168    11.6304    -0.1028 H       
  46 H46            3.4924    13.0128    -1.2141 H       
  47 H47            3.9245    13.1583     1.8061 H       
  48 H48            5.2046    13.1928     0.5716 H       
  49 H49            4.6519    15.4898     1.2438 H       
  50 H50            4.1301    15.2173    -0.4374 H       
  51 H51            2.3649    16.3684     0.8114 H       
  52 H52            2.3805    15.1247     2.0588 H       
@<TRIPOS>BOND
   1    1    2 ar
   2    1    6 ar
   3    1   30 1
   4    2    3 ar
   5    2   31 1
   6    3    4 ar
   7    3   32 1
   8    4    5 ar
   9    4   33 1
  10    5    6 ar
  11    5   34 1
  12    6    7 1
  13    7    8 3
  14    8    9 1
  15    9   10 ar
  16    9   14 ar
  17   10   11 ar
  18   10   35 1
  19   11   12 ar
  20   11   23 1
  21   12   13 ar
  22   12   15 1
  23   13   14 ar
  24   13   36 1
  25   14   37 1
  26   15   16 am
  27   15   20 am
  28   16   17 am
  29   16   21 2
  30   17   18 1
  31   17   22 1
  32   18   19 1
  33   18   26 1
  34   18   25 1
  35   19   20 1
  36   19   38 1
  37   19   39 1
  38   20   24 2
  39   22   40 1
  40   22   41 1
  41   22   42 1
  42   25   29 1
  43   25   43 1
  44   25   44 1
  45   26   27 1
  46   26   45 1
  47   26   46 1
  48   27   28 1
  49   27   47 1
  50   27   48 1
  51   28   29 1
  52   28   49 1
  53   28   50 1
  54   29   51 1
  55   29   52 1

#	End of record

