#	Name: ASD01410285
#	Creating user name:	WinNT
#	Creation time:	15. 06. 2019 19:17

#	Modifying user name:	WinNT
#	Modification time:	15. 06. 2019 19:17

#	Program:	/corina/corina34_cracker 3.40 0067  02.08.2006

@<TRIPOS>MOLECULE
ASD01410285
  69   73    0    0    0
SMALL
NO_CHARGES


@<TRIPOS>ATOM
   1 C1             0.4649     1.5343     0.3645 C.2     
   2 C2             1.4634     0.6728     0.6164 C.2     
   3 C3             1.0468    -0.6108     0.0360 C.2     
   4 C4            -0.1784    -0.3857    -0.5138 C.2     
   5 O5            -0.5057     0.8962    -0.3073 O.3     
   6 N6             1.2776    -3.0697    -0.1358 N.2     
   7 C7             1.8006    -1.8814     0.0463 C.2     
   8 N8             3.1506    -1.9947     0.2471 N.pl3   
   9 C9             3.4637    -3.3367     0.1822 C.ar    
  10 C10            2.2526    -4.0107    -0.0636 C.ar    
  11 C11            4.6485    -4.0530     0.3062 C.ar    
  12 C12            4.6434    -5.4130     0.1897 C.ar    
  13 C13            3.4474    -6.1005    -0.0553 C.ar    
  14 C14            2.2513    -5.4007    -0.1815 C.ar    
  15 C15            6.2045     0.1858    -0.2871 C.3     
  16 C16            6.7806     0.0675     1.1254 C.3     
  17 C17            5.6439     0.1358     2.1472 C.3     
  18 C18            4.6645    -1.0129     1.8981 C.3     
  19 C19            4.0884    -0.8947     0.4856 C.3     
  20 C20            5.2251    -0.9630    -0.5362 C.3     
  21 C21            3.4562    -7.5719    -0.1796 C.2     
  22 N22            4.6136    -8.2516    -0.0573 N.am    
  23 O23            2.4194    -8.1702    -0.3922 O.2     
  24 C24            4.6223    -9.7114    -0.1805 C.3     
  25 C25            4.2806   -10.3395     1.1721 C.3     
  26 C26            5.9898   -10.1706    -0.6165 C.2     
  27 N27            6.2342   -11.4838    -0.7962 N.am    
  28 O28            6.8704    -9.3584    -0.8056 O.2     
  29 C29            7.5438   -13.0046    -2.1337 C.ar    
  30 C30            8.7615   -13.4207    -2.6213 C.ar    
  31 C31            9.9279   -12.7330    -2.2649 C.ar    
  32 C32            9.8494   -11.6244    -1.4134 C.ar    
  33 C33            8.6273   -11.2155    -0.9306 C.ar    
  34 C34            7.4706   -11.9021    -1.2876 C.ar    
  35 C35           11.2306   -13.1738    -2.7827 C.2     
  36 C36           12.3548   -12.5087    -2.4375 C.2     
  37 C37           13.6117   -12.9340    -2.9370 C.2     
  38 O38           13.6778   -13.8977    -3.6764 O.2     
  39 O39           14.7344   -12.2698    -2.5922 O.3     
  40 H40            0.4442     2.5731     0.6593 H       
  41 H41            2.3852     0.8810     1.1393 H       
  42 H42           -0.7832    -1.1169    -1.0295 H       
  43 H43            5.5756    -3.5321     0.4947 H       
  44 H44            5.5678    -5.9629     0.2868 H       
  45 H45            1.3289    -5.9297    -0.3704 H       
  46 H46            5.6820     1.1370    -0.3879 H       
  47 H47            7.0143     0.1371    -1.0150 H       
  48 H48            7.3031    -0.8837     1.2262 H       
  49 H49            7.4783     0.8859     1.3029 H       
  50 H50            6.0543     0.0516     3.1535 H       
  51 H51            5.1213     1.0871     2.0464 H       
  52 H52            5.1870    -1.9642     1.9989 H       
  53 H53            3.8547    -0.9643     2.6260 H       
  54 H54            3.5658     0.0565     0.3848 H       
  55 H55            4.8147    -0.8788    -1.5424 H       
  56 H56            5.7476    -1.9143    -0.4353 H       
  57 H57            5.4408    -7.7743     0.1124 H       
  58 H58            3.8830   -10.0180    -0.9206 H       
  59 H59            3.2915   -10.0074     1.4875 H       
  60 H60            4.2871   -11.4256     1.0804 H       
  61 H61            5.0198   -10.0329     1.9122 H       
  62 H62            5.5502   -12.1379    -0.5838 H       
  63 H63            6.6431   -13.5318    -2.4117 H       
  64 H64            8.8174   -14.2766    -3.2776 H       
  65 H65           10.7466   -11.0912    -1.1356 H       
  66 H66            8.5658   -10.3605    -0.2737 H       
  67 H67           11.2893   -14.0294    -3.4391 H       
  68 H68           12.2960   -11.6532    -1.7810 H       
  69 H69           15.5416   -12.6332    -2.9814 H       
@<TRIPOS>BOND
   1    1    2 2
   2    1    5 1
   3    1   40 1
   4    2    3 1
   5    2   41 1
   6    3    4 2
   7    3    7 1
   8    4    5 1
   9    4   42 1
  10    6    7 2
  11    6   10 1
  12    7    8 1
  13    8    9 1
  14    8   19 1
  15    9   10 ar
  16    9   11 ar
  17   10   14 ar
  18   11   12 ar
  19   11   43 1
  20   12   13 ar
  21   12   44 1
  22   13   14 ar
  23   13   21 1
  24   14   45 1
  25   15   16 1
  26   15   20 1
  27   15   46 1
  28   15   47 1
  29   16   17 1
  30   16   48 1
  31   16   49 1
  32   17   18 1
  33   17   50 1
  34   17   51 1
  35   18   19 1
  36   18   52 1
  37   18   53 1
  38   19   20 1
  39   19   54 1
  40   20   55 1
  41   20   56 1
  42   21   22 am
  43   21   23 2
  44   22   24 1
  45   22   57 1
  46   24   25 1
  47   24   26 1
  48   24   58 1
  49   25   59 1
  50   25   60 1
  51   25   61 1
  52   26   27 am
  53   26   28 2
  54   27   34 1
  55   27   62 1
  56   29   30 ar
  57   29   34 ar
  58   29   63 1
  59   30   31 ar
  60   30   64 1
  61   31   32 ar
  62   31   35 1
  63   32   33 ar
  64   32   65 1
  65   33   34 ar
  66   33   66 1
  67   35   36 2
  68   35   67 1
  69   36   37 1
  70   36   68 1
  71   37   38 2
  72   37   39 1
  73   39   69 1

#	End of record

