#	Name: ASD07480026
#	Creating user name:	WinNT
#	Creation time:	15. 06. 2019 21:11

#	Modifying user name:	WinNT
#	Modification time:	15. 06. 2019 21:11

#	Program:	/corina/corina34_cracker 3.40 0067  02.08.2006

@<TRIPOS>MOLECULE
ASD07480026
  47   50    0    0    0
SMALL
NO_CHARGES


@<TRIPOS>ATOM
   1 C1            -0.0169     1.3948     0.0097 C.ar    
   2 C2             0.0021    -0.0041     0.0020 C.ar    
   3 C3            -1.1620    -0.7165     0.0093 C.ar    
   4 C4            -2.3880    -0.0562     0.0250 C.ar    
   5 C5            -2.4222     1.3527     0.0334 C.ar    
   6 C6            -1.2233     2.0755     0.0307 C.ar    
   7 N7            -3.6907    -0.4981     0.0352 N.pl3   
   8 C8            -4.5325     0.5975     0.0497 C.2     
   9 C9            -3.7857     1.7335     0.0488 C.2     
  10 C10           -6.0004     0.5434     0.0637 C.2     
  11 O11           -6.6311    -0.6485     0.0630 O.3     
  12 O12           -6.6465     1.5731     0.0758 O.2     
  13 C13           -4.1157    -1.9001     0.0309 C.3     
  14 C14           -4.2494    -2.3969     1.4718 C.3     
  15 O15           -4.6640    -3.7644     1.4676 O.3     
  16 C16           -4.8311    -4.3625     2.6774 C.ar    
  17 C17           -5.2322    -5.6885     2.7459 C.ar    
  18 C18           -4.5950    -3.6483     3.8426 C.ar    
  19 C19           -4.7648    -4.2559     5.0715 C.ar    
  20 C20           -5.1718    -5.5800     5.1401 C.ar    
  21 C21           -5.4020    -6.2960     3.9747 C.ar    
  22 C22            1.2605     2.1525     0.0016 C.2     
  23 C23            1.3966     3.5541     0.0083 C.2     
  24 N24            2.6721     3.8384    -0.0017 N.2     
  25 N25            3.3949     2.6394    -0.0151 N.pl3   
  26 C26            2.5150     1.6171    -0.0078 C.2     
  27 O27           -5.3381    -6.1784     6.3498 O.3     
  28 C28           -5.7590    -7.5440     6.3457 C.3     
  29 F29           -4.8133    -8.3214     5.6686 F       
  30 F30           -5.8794    -7.9988     7.6632 F       
  31 F31           -6.9963    -7.6487     5.7013 F       
  32 H32            0.9477    -0.5256    -0.0102 H       
  33 H33           -1.1322    -1.7960     0.0025 H       
  34 H34           -1.2389     3.1553     0.0370 H       
  35 H35           -4.1646     2.7448     0.0589 H       
  36 H36           -7.5980    -0.6335     0.0725 H       
  37 H37           -5.0778    -1.9865    -0.4740 H       
  38 H38           -3.3745    -2.5028    -0.4939 H       
  39 H39           -3.2873    -2.3104     1.9767 H       
  40 H40           -4.9906    -1.7941     1.9966 H       
  41 H41           -5.4121    -6.2458     1.8385 H       
  42 H42           -4.2781    -2.6173     3.7892 H       
  43 H43           -4.5802    -3.7000     5.9788 H       
  44 H44           -5.7193    -7.3270     4.0281 H       
  45 H45            0.5876     4.2695     0.0194 H       
  46 H46            4.3614     2.5579    -0.0249 H       
  47 H47            2.7595     0.5651    -0.0146 H       
@<TRIPOS>BOND
   1    1    2 ar
   2    1   22 1
   3    1    6 ar
   4    2    3 ar
   5    2   32 1
   6    3    4 ar
   7    3   33 1
   8    4    5 ar
   9    4    7 1
  10    5    6 ar
  11    5    9 1
  12    6   34 1
  13    7    8 1
  14    7   13 1
  15    8    9 2
  16    8   10 1
  17    9   35 1
  18   10   11 1
  19   10   12 2
  20   11   36 1
  21   13   14 1
  22   13   37 1
  23   13   38 1
  24   14   15 1
  25   14   39 1
  26   14   40 1
  27   15   16 1
  28   16   17 ar
  29   16   18 ar
  30   17   21 ar
  31   17   41 1
  32   18   19 ar
  33   18   42 1
  34   19   20 ar
  35   19   43 1
  36   20   21 ar
  37   20   27 1
  38   21   44 1
  39   22   23 1
  40   22   26 2
  41   23   24 2
  42   23   45 1
  43   24   25 1
  44   25   26 1
  45   25   46 1
  46   26   47 1
  47   27   28 1
  48   28   29 1
  49   28   30 1
  50   28   31 1

#	End of record

