#	Name: ASD01880238
#	Creating user name:	WinNT
#	Creation time:	15. 06. 2019 19:40

#	Modifying user name:	WinNT
#	Modification time:	15. 06. 2019 19:40

#	Program:	/corina/corina34_cracker 3.40 0067  02.08.2006

@<TRIPOS>MOLECULE
ASD01880238
  40   42    0    0    0
SMALL
NO_CHARGES


@<TRIPOS>ATOM
   1 C1            -0.0184     1.5028     0.0103 C.3     
   2 C2             0.0021    -0.0041     0.0020 C.ar    
   3 C3             0.0229    -0.6995     1.1975 C.ar    
   4 C4             0.0416    -2.0795     1.1959 C.ar    
   5 C5             0.0392    -2.7723    -0.0132 C.ar    
   6 C6             0.0177    -2.0666    -1.2146 C.ar    
   7 C7            -0.0058    -0.6867    -1.2010 C.ar    
   8 C8             0.0598    -4.2558    -0.0214 C.ar    
   9 N9             1.3560     2.0099    -0.0001 N.am    
  10 C10            2.1471     2.3124    -1.2027 C.3     
  11 C11            3.4948     2.8051    -0.6411 C.3     
  12 O12            3.3236     2.7294     0.8038 O.3     
  13 C13            2.0955     2.2792     1.0845 C.2     
  14 C14            3.7612     4.2480    -1.0747 C.3     
  15 O15            1.6905     2.1211     2.2191 O.2     
  16 C16           -0.8627    -4.9649    -0.7916 C.ar    
  17 C17           -0.8377    -6.3475    -0.7944 C.ar    
  18 C18            0.0983    -7.0255    -0.0358 C.ar    
  19 C19            1.0148    -6.3263     0.7293 C.ar    
  20 C20            1.0039    -4.9464     0.7356 C.ar    
  21 F21           -1.7780    -4.3025    -1.5322 F       
  22 C22            0.1202    -8.5323    -0.0420 C.3     
  23 F23            0.9645    -8.9823    -1.0627 F       
  24 F24            0.5905    -8.9969     1.1910 F       
  25 F25           -1.1741    -9.0166    -0.2599 F       
  26 H26           -0.5455     1.8639    -0.8728 H       
  27 H27           -0.5286     1.8543     0.9071 H       
  28 H28            0.0248    -0.1615     2.1340 H       
  29 H29            0.0586    -2.6215     2.1299 H       
  30 H30            0.0161    -2.5985    -2.1545 H       
  31 H31           -0.0224    -0.1387    -2.1315 H       
  32 H32            2.2883     1.4143    -1.8041 H       
  33 H33            1.6675     3.0958    -1.7895 H       
  34 H34            4.3053     2.1520    -0.9646 H       
  35 H35            2.9654     4.8924    -0.7013 H       
  36 H36            4.7172     4.5787    -0.6688 H       
  37 H37            3.7909     4.3007    -2.1631 H       
  38 H38           -1.5507    -6.8984    -1.3898 H       
  39 H39            1.7435    -6.8618     1.3198 H       
  40 H40            1.7205    -4.4026     1.3333 H       
@<TRIPOS>BOND
   1    1    2 1
   2    1    9 1
   3    1   26 1
   4    1   27 1
   5    2    3 ar
   6    2    7 ar
   7    3    4 ar
   8    3   28 1
   9    4    5 ar
  10    4   29 1
  11    5    6 ar
  12    5    8 1
  13    6    7 ar
  14    6   30 1
  15    7   31 1
  16    8   16 ar
  17    8   20 ar
  18    9   10 1
  19    9   13 am
  20   10   11 1
  21   10   32 1
  22   10   33 1
  23   11   12 1
  24   11   14 1
  25   11   34 1
  26   12   13 1
  27   13   15 2
  28   14   35 1
  29   14   36 1
  30   14   37 1
  31   16   17 ar
  32   16   21 1
  33   17   18 ar
  34   17   38 1
  35   18   19 ar
  36   18   22 1
  37   19   20 ar
  38   19   39 1
  39   20   40 1
  40   22   23 1
  41   22   24 1
  42   22   25 1

#	End of record

