#	Name: ASD00170169
#	Creating user name:	WinNT
#	Creation time:	15. 06. 2019 18:31

#	Modifying user name:	WinNT
#	Modification time:	15. 06. 2019 18:31

#	Program:	/corina/corina34_cracker 3.40 0067  02.08.2006

@<TRIPOS>MOLECULE
ASD00170169
  30   32    0    0    0
SMALL
NO_CHARGES


@<TRIPOS>ATOM
   1 C1            -0.0267     1.3320    -0.1412 C.2     
   2 C2            -0.0037     0.0041    -0.1781 C.2     
   3 C3            -1.3277    -0.5834     0.0173 C.2     
   4 C4            -2.3109     0.3518     0.1966 C.2     
   5 S5            -1.6639     1.9237     0.1400 S.3     
   6 N6            -3.6442     0.0591     0.4007 N.pl3   
   7 C7            -1.5769    -2.0249     0.0201 C.2     
   8 C8            -1.8233    -2.7349    -1.2529 C.ar    
   9 C9             1.3743     1.8950    -0.3494 C.3     
  10 C10            2.3221     0.7096    -0.0772 C.3     
  11 C11            1.4193    -0.4933    -0.4168 C.3     
  12 O12           -1.5814    -2.6400     1.0711 O.2     
  13 C13           -1.9547    -4.1250    -1.2658 C.ar    
  14 C14           -2.1849    -4.7820    -2.4555 C.ar    
  15 C15           -2.2860    -4.0651    -3.6380 C.ar    
  16 C16           -2.1563    -2.6846    -3.6308 C.ar    
  17 C17           -1.9313    -2.0172    -2.4459 C.ar    
  18 F18           -2.5112    -4.7139    -4.8014 F       
  19 H19           -3.9529    -0.8590     0.3474 H       
  20 H20           -4.2725     0.7714     0.5975 H       
  21 H21            1.4928     2.2477    -1.3740 H       
  22 H22            1.5666     2.7038     0.3555 H       
  23 H23            3.1903     0.7444    -0.7353 H       
  24 H24            2.6274     0.6858     0.9689 H       
  25 H25            1.6428    -1.3328     0.2414 H       
  26 H26            1.5498    -0.7828    -1.4595 H       
  27 H27           -1.8758    -4.6844    -0.3454 H       
  28 H28           -2.2863    -5.8572    -2.4667 H       
  29 H29           -2.2359    -2.1309    -4.5547 H       
  30 H30           -1.8304    -0.9419    -2.4414 H       
@<TRIPOS>BOND
   1    1    2 2
   2    1    9 1
   3    1    5 1
   4    2    3 1
   5    2   11 1
   6    3    4 2
   7    3    7 1
   8    4    5 1
   9    4    6 1
  10    6   19 1
  11    6   20 1
  12    7    8 1
  13    7   12 2
  14    8   13 ar
  15    8   17 ar
  16    9   10 1
  17    9   21 1
  18    9   22 1
  19   10   11 1
  20   10   23 1
  21   10   24 1
  22   11   25 1
  23   11   26 1
  24   13   14 ar
  25   13   27 1
  26   14   15 ar
  27   14   28 1
  28   15   16 ar
  29   15   18 1
  30   16   17 ar
  31   16   29 1
  32   17   30 1

#	End of record

