#	Name: ASD08150686
#	Creating user name:	WinNT
#	Creation time:	15. 06. 2019 21:16

#	Modifying user name:	WinNT
#	Modification time:	15. 06. 2019 21:16

#	Program:	/corina/corina34_cracker 3.40 0067  02.08.2006

@<TRIPOS>MOLECULE
ASD08150686
  43   44    0    0    0
SMALL
NO_CHARGES


@<TRIPOS>ATOM
   1 C1            -0.0014     1.4792    -0.0061 C.3     
   2 C2             3.5373     2.2265    -1.0902 C.ar    
   3 C3             3.9985     2.9938    -0.0304 C.ar    
   4 C4             3.1549     3.2704     1.0431 C.ar    
   5 C5             1.8600     2.7780     1.0469 C.ar    
   6 C6             1.4075     2.0141    -0.0129 C.ar    
   7 C7             2.2442     1.7391    -1.0788 C.ar    
   8 N8             5.3090     3.4886    -0.0395 N.am    
   9 C9             5.7907     4.1005    -1.1395 C.2     
  10 N10            7.0190     4.6549    -1.1189 N.am    
  11 S11            4.8423     4.1736    -2.5629 S.2     
  12 C12            7.5007     5.2668    -2.2190 C.2     
  13 C13            8.8474     5.8746    -2.1964 C.ar    
  14 O14            6.8275     5.3186    -3.2294 O.2     
  15 C15            9.3494     6.5092    -3.3342 C.ar    
  16 C16           10.6072     7.0749    -3.3061 C.ar    
  17 C17           11.3709     7.0145    -2.1539 C.ar    
  18 C18           10.8795     6.3871    -1.0228 C.ar    
  19 C19            9.6212     5.8218    -1.0355 C.ar    
  20 C20            1.7447     0.9062    -2.2311 C.3     
  21 C21            1.0096     1.8040    -3.2283 C.3     
  22 O22            3.6015     4.0215     2.0850 O.3     
  23 C23           -0.0029     0.0533     0.5485 C.3     
  24 F24            0.4995     0.0602     1.8541 F       
  25 F25           -1.3109    -0.4432     0.5548 F       
  26 F26            0.8011    -0.7609    -0.2563 F       
  27 H27           -0.6279     2.1136     0.6210 H       
  28 H28           -0.3929     1.4739    -1.0233 H       
  29 H29            4.1873     2.0139    -1.9261 H       
  30 H30            1.2038     2.9909     1.8779 H       
  31 H31            5.8698     3.3909     0.7459 H       
  32 H32            7.5564     4.6135    -0.3124 H       
  33 H33            8.7545     6.5568    -4.2343 H       
  34 H34           10.9969     7.5659    -4.1857 H       
  35 H35           12.3552     7.4587    -2.1374 H       
  36 H36           11.4809     6.3431    -0.1268 H       
  37 H37            9.2387     5.3324    -0.1520 H       
  38 H38            2.5894     0.4280    -2.7268 H       
  39 H39            1.0622     0.1424    -1.8583 H       
  40 H40            0.1648     2.2822    -2.7326 H       
  41 H41            1.6920     2.5679    -3.6011 H       
  42 H42            0.6483     1.2016    -4.0618 H       
  43 H43            3.4515     4.9708     1.9783 H       
@<TRIPOS>BOND
   1    1   23 1
   2    1    6 1
   3    1   27 1
   4    1   28 1
   5    2    3 ar
   6    2    7 ar
   7    2   29 1
   8    3    4 ar
   9    3    8 1
  10    4    5 ar
  11    4   22 1
  12    5    6 ar
  13    5   30 1
  14    6    7 ar
  15    7   20 1
  16    8    9 am
  17    8   31 1
  18    9   10 am
  19    9   11 2
  20   10   12 am
  21   10   32 1
  22   12   13 1
  23   12   14 2
  24   13   15 ar
  25   13   19 ar
  26   15   16 ar
  27   15   33 1
  28   16   17 ar
  29   16   34 1
  30   17   18 ar
  31   17   35 1
  32   18   19 ar
  33   18   36 1
  34   19   37 1
  35   20   21 1
  36   20   38 1
  37   20   39 1
  38   21   40 1
  39   21   41 1
  40   21   42 1
  41   22   43 1
  42   23   24 1
  43   23   25 1
  44   23   26 1

#	End of record

