#	Name: ASD07930400
#	Creating user name:	WinNT
#	Creation time:	15. 06. 2019 21:12

#	Modifying user name:	WinNT
#	Modification time:	15. 06. 2019 21:12

#	Program:	/corina/corina34_cracker 3.40 0067  02.08.2006

@<TRIPOS>MOLECULE
ASD07930400
  45   47    0    0    0
SMALL
NO_CHARGES


@<TRIPOS>ATOM
   1 N1             0.0005     1.2712     0.0036 N.2     
   2 N2            -1.1611    -0.7565     0.0076 N.pl3   
   3 C3            -1.3888    -1.7914    -1.0064 C.3     
   4 C4            -0.2711    -2.8398    -0.9193 C.3     
   5 S5             1.3268    -1.9883    -1.1092 S.o2    
   6 N6             1.2083    -0.7373    -0.0149 N.am    
   7 C7             0.0133    -0.0321    -0.0009 C.2     
   8 C8             2.3111    -0.3990     0.8883 C.3     
   9 C9            -1.3840    -1.1539    -2.3972 C.3     
  10 C10           -2.7200    -2.4534    -0.7598 C.ar    
  11 C11           -3.4610    -2.1182     0.3561 C.ar    
  12 C12           -4.6881    -2.7283     0.5827 C.ar    
  13 C13           -5.1670    -3.6742    -0.3140 C.ar    
  14 C14           -4.4225    -4.0065    -1.4290 C.ar    
  15 C15           -3.2020    -3.3932    -1.6557 C.ar    
  16 N16           -5.4404    -2.3905     1.7132 N.am    
  17 C17           -6.7862    -2.3667     1.6446 C.2     
  18 O18           -7.3436    -2.5428     0.5790 O.2     
  19 C19           -7.5857    -2.1258     2.8674 C.ar    
  20 O20            2.3891    -2.7939    -0.6176 O.2     
  21 O21            1.4101    -1.3489    -2.3755 O.2     
  22 N22           -6.9710    -1.9341     4.0282 N.ar    
  23 F23           -2.4756    -3.7194    -2.7471 F       
  24 C24           -7.6430    -1.7167     5.1373 C.ar    
  25 C25           -9.0297    -1.6796     5.1339 C.ar    
  26 C26           -9.7119    -1.8751     3.9414 C.ar    
  27 C27           -8.9768    -2.0967     2.7885 C.ar    
  28 Cl28          -9.9027    -1.3920     6.6066 Cl      
  29 H29            0.8358     1.7644    -0.0028 H       
  30 H30           -1.8367    -0.5788     0.6806 H       
  31 H31           -0.3091    -3.3379     0.0495 H       
  32 H32           -0.3931    -3.5741    -1.7156 H       
  33 H33            2.9602     0.3346     0.4102 H       
  34 H34            1.9095     0.0182     1.8117 H       
  35 H35            2.8840    -1.2982     1.1148 H       
  36 H36           -0.4200    -0.6772    -2.5751 H       
  37 H37           -1.5532    -1.9235    -3.1503 H       
  38 H38           -2.1753    -0.4067    -2.4571 H       
  39 H39           -3.0865    -1.3825     1.0525 H       
  40 H40           -6.1207    -4.1500    -0.1395 H       
  41 H41           -4.7944    -4.7424    -2.1265 H       
  42 H42           -4.9933    -2.1735     2.5462 H       
  43 H43           -7.1082    -1.5653     6.0633 H       
  44 H44          -10.7913    -1.8513     3.9122 H       
  45 H45           -9.4750    -2.2524     1.8429 H       
@<TRIPOS>BOND
   1    1    7 2
   2    1   29 1
   3    2    3 1
   4    2    7 1
   5    2   30 1
   6    3    4 1
   7    3    9 1
   8    3   10 1
   9    4    5 1
  10    4   31 1
  11    4   32 1
  12    5    6 am
  13    5   20 2
  14    5   21 2
  15    6    7 1
  16    6    8 1
  17    8   33 1
  18    8   34 1
  19    8   35 1
  20    9   36 1
  21    9   37 1
  22    9   38 1
  23   10   11 ar
  24   10   15 ar
  25   11   12 ar
  26   11   39 1
  27   12   13 ar
  28   12   16 1
  29   13   14 ar
  30   13   40 1
  31   14   15 ar
  32   14   41 1
  33   15   23 1
  34   16   17 am
  35   16   42 1
  36   17   18 2
  37   17   19 1
  38   19   22 ar
  39   19   27 ar
  40   22   24 ar
  41   24   25 ar
  42   24   43 1
  43   25   26 ar
  44   25   28 1
  45   26   27 ar
  46   26   44 1
  47   27   45 1

#	End of record

