#	Name: ASD01420066
#	Creating user name:	WinNT
#	Creation time:	15. 06. 2019 19:20

#	Modifying user name:	WinNT
#	Modification time:	15. 06. 2019 19:20

#	Program:	/corina/corina34_cracker 3.40 0067  02.08.2006

@<TRIPOS>MOLECULE
ASD01420066
  38   40    0    0    0
SMALL
NO_CHARGES


@<TRIPOS>ATOM
   1 C1            -0.0144     1.2117     0.0087 C.2     
   2 O2             0.0432     0.0160     0.2220 O.2     
   3 C3             1.2183     2.0234     0.0191 C.ar    
   4 C4             2.4658     1.4012     0.1199 C.ar    
   5 C5             3.6163     2.1651     0.1293 C.ar    
   6 C6             3.5316     3.5540     0.0381 C.ar    
   7 C7             2.2927     4.1717    -0.0616 C.ar    
   8 C8             1.1410     3.4146    -0.0777 C.ar    
   9 O9             4.6637     4.3039     0.0474 O.3     
  10 O10            4.8317     1.5629     0.2278 O.3     
  11 C11            4.8437     0.1368     0.3181 C.3     
  12 C12            6.2887    -0.3555     0.4211 C.3     
  13 C13           -2.4930     1.1157    -0.4017 C.3     
  14 N14           -1.2032     1.7948    -0.2427 N.am    
  15 C15           -1.4544     3.2299    -0.4089 C.3     
  16 C16           -2.9279     3.4098    -0.6731 C.ar    
  17 C17           -3.6816     4.5490    -0.8990 C.ar    
  18 C18           -5.0415     4.4476    -1.1197 C.ar    
  19 C19           -5.6511     3.2067    -1.1155 C.ar    
  20 C20           -4.8995     2.0696    -0.8906 C.ar    
  21 C21           -3.5367     2.1706    -0.6689 C.ar    
  22 H22            2.5299     0.3255     0.1908 H       
  23 H23            2.2312     5.2476    -0.1316 H       
  24 H24            0.1785     3.8974    -0.1606 H       
  25 H25            5.0354     4.4659    -0.8305 H       
  26 H26            4.2894    -0.1759     1.2029 H       
  27 H27            4.3778    -0.2875    -0.5713 H       
  28 H28            6.2979    -1.4433     0.4900 H       
  29 H29            6.8430    -0.0428    -0.4638 H       
  30 H30            6.7546     0.0688     1.3105 H       
  31 H31           -2.4446     0.4228    -1.2418 H       
  32 H32           -2.7405     0.5740     0.5112 H       
  33 H33           -1.1745     3.7617     0.5005 H       
  34 H34           -0.8787     3.6104    -1.2526 H       
  35 H35           -3.2056     5.5184    -0.9023 H       
  36 H36           -5.6282     5.3372    -1.2951 H       
  37 H37           -6.7142     3.1264    -1.2876 H       
  38 H38           -5.3760     1.1003    -0.8870 H       
@<TRIPOS>BOND
   1    1    2 2
   2    1    3 1
   3    1   14 am
   4    3    4 ar
   5    3    8 ar
   6    4    5 ar
   7    4   22 1
   8    5    6 ar
   9    5   10 1
  10    6    7 ar
  11    6    9 1
  12    7    8 ar
  13    7   23 1
  14    8   24 1
  15    9   25 1
  16   10   11 1
  17   11   12 1
  18   11   26 1
  19   11   27 1
  20   12   28 1
  21   12   29 1
  22   12   30 1
  23   13   14 1
  24   13   21 1
  25   13   31 1
  26   13   32 1
  27   14   15 1
  28   15   16 1
  29   15   33 1
  30   15   34 1
  31   16   17 ar
  32   16   21 ar
  33   17   18 ar
  34   17   35 1
  35   18   19 ar
  36   18   36 1
  37   19   20 ar
  38   19   37 1
  39   20   21 ar
  40   20   38 1

#	End of record

