#	Name: ASD01814325
#	Creating user name:	WinNT
#	Creation time:	15. 06. 2019 19:32

#	Modifying user name:	WinNT
#	Modification time:	15. 06. 2019 19:32

#	Program:	/corina/corina34_cracker 3.40 0067  02.08.2006

@<TRIPOS>MOLECULE
ASD01814325
  51   54    0    0    0
SMALL
NO_CHARGES


@<TRIPOS>ATOM
   1 C1            -0.0023     1.3731     0.2003 C.ar    
   2 C2             0.0170    -0.0179     0.2069 C.ar    
   3 C3             1.1921    -0.7037     0.1241 C.ar    
   4 C4             2.4033    -0.0012     0.0308 C.ar    
   5 C5             2.3798     1.4149     0.0244 C.ar    
   6 C6             1.1567     2.0875     0.1107 C.ar    
   7 C7             3.6348    -0.6836    -0.0565 C.ar    
   8 C8             4.8052    -0.0080    -0.1472 C.ar    
   9 C9             4.8374     1.3951    -0.1577 C.ar    
  10 C10            3.6450     2.1368    -0.0731 C.ar    
  11 C11            6.1003     2.1380    -0.2566 C.2     
  12 N12            6.0302     3.4895    -0.2601 N.am    
  13 C13            4.8306     4.1169    -0.1742 C.2     
  14 N14            3.6998     3.4792    -0.0862 N.2     
  15 C15            3.6485    -2.1905    -0.0483 C.3     
  16 O16            7.1696     1.5601    -0.3322 O.2     
  17 C17            7.2592     4.2810    -0.3568 C.3     
  18 C18            7.3911     5.1714     0.8804 C.3     
  19 C19            8.6746     5.9980     0.7794 C.3     
  20 C20            8.6207     6.8724    -0.4749 C.3     
  21 C21            8.4889     5.9820    -1.7121 C.3     
  22 C22            7.2053     5.1554    -1.6111 C.3     
  23 O23            7.4414     4.3547     2.0519 O.3     
  24 N24            3.4194    -2.6748     1.3195 N.3     
  25 C25            3.0631    -4.1000     1.3206 C.3     
  26 C26            4.5910    -2.4245     2.1697 C.3     
  27 H27           -0.9465     1.8938     0.2624 H       
  28 H28           -0.9128    -0.5625     0.2789 H       
  29 H29            1.1911    -1.7836     0.1308 H       
  30 H30            1.1296     3.1671     0.1061 H       
  31 H31            5.7315    -0.5596    -0.2123 H       
  32 H32            4.8133     5.1967    -0.1791 H       
  33 H33            2.8612    -2.5646    -0.7028 H       
  34 H34            4.6156    -2.5471    -0.4029 H       
  35 H35            8.1181     3.6125    -0.4165 H       
  36 H36            6.5322     5.8399     0.9401 H       
  37 H37            8.7685     6.6324     1.6608 H       
  38 H38            9.5335     5.3295     0.7197 H       
  39 H39            7.7618     7.5409    -0.4152 H       
  40 H40            9.5351     7.4613    -0.5469 H       
  41 H41            8.4505     6.6049    -2.6057 H       
  42 H42            9.3477     5.3135    -1.7718 H       
  43 H43            7.1114     4.5210    -2.4925 H       
  44 H44            6.3464     5.8239    -1.5514 H       
  45 H45            7.5250     4.8537     2.8760 H       
  46 H46            3.8738    -4.6776     0.8765 H       
  47 H47            2.8990    -4.4327     2.3455 H       
  48 H48            2.1520    -4.2471     0.7406 H       
  49 H49            4.8372    -1.3629     2.1455 H       
  50 H50            4.3669    -2.7222     3.1940 H       
  51 H51            5.4381    -3.0025     1.8004 H       
@<TRIPOS>BOND
   1    1    2 ar
   2    1    6 ar
   3    1   27 1
   4    2    3 ar
   5    2   28 1
   6    3    4 ar
   7    3   29 1
   8    4    5 ar
   9    4    7 ar
  10    5    6 ar
  11    5   10 ar
  12    6   30 1
  13    7    8 ar
  14    7   15 1
  15    8    9 ar
  16    8   31 1
  17    9   10 ar
  18    9   11 1
  19   10   14 1
  20   11   12 am
  21   11   16 2
  22   12   13 1
  23   12   17 1
  24   13   14 2
  25   13   32 1
  26   15   24 1
  27   15   33 1
  28   15   34 1
  29   17   18 1
  30   17   22 1
  31   17   35 1
  32   18   19 1
  33   18   23 1
  34   18   36 1
  35   19   20 1
  36   19   37 1
  37   19   38 1
  38   20   21 1
  39   20   39 1
  40   20   40 1
  41   21   22 1
  42   21   41 1
  43   21   42 1
  44   22   43 1
  45   22   44 1
  46   23   45 1
  47   24   25 1
  48   24   26 1
  49   25   46 1
  50   25   47 1
  51   25   48 1
  52   26   49 1
  53   26   50 1
  54   26   51 1

#	End of record

