#	Name: ASD01202038
#	Creating user name:	WinNT
#	Creation time:	15. 06. 2019 19:09

#	Modifying user name:	WinNT
#	Modification time:	15. 06. 2019 19:09

#	Program:	/corina/corina34_cracker 3.40 0067  02.08.2006

@<TRIPOS>MOLECULE
ASD01202038
  48   51    0    0    0
SMALL
NO_CHARGES


@<TRIPOS>ATOM
   1 C1            -0.4329     1.1867    -0.4499 C.2     
   2 C2            -0.2831    -0.2002    -0.4024 C.2     
   3 C3             0.7321     1.8757    -0.2921 C.2     
   4 C4            -1.7325     1.8461    -0.6581 C.2     
   5 C5             0.9843    -0.5986    -0.2096 C.2     
   6 S6             2.0394     0.8002    -0.0810 S.3     
   7 O7            -1.8002     3.0602    -0.6905 O.2     
   8 N8            -2.8473     1.1047    -0.8127 N.am    
   9 C9             1.4269    -2.0068    -0.1193 C.ar    
  10 C10           -4.0736     1.7269    -1.0092 C.2     
  11 S11           -4.3120     3.4159    -1.0836 S.3     
  12 N12           -5.1962     1.1127    -1.1674 N.2     
  13 C13           -6.0427     3.1722    -1.3360 C.2     
  14 C14           -6.2914     1.8589    -1.3465 C.2     
  15 H15           -2.7933     0.1365    -0.7868 H       
  16 C16            2.3698    -2.5039    -1.0196 C.ar    
  17 C17            2.7790    -3.8186    -0.9297 C.ar    
  18 C18            2.2561    -4.6434     0.0501 C.ar    
  19 C19            1.3204    -4.1566     0.9457 C.ar    
  20 C20            0.9076    -2.8425     0.8705 C.ar    
  21 C21            0.8495     3.3781    -0.3034 C.3     
  22 C22           -7.7835     1.6194    -1.5611 C.3     
  23 C23           -8.3271     2.9504    -2.1185 C.3     
  24 C24           -7.3185     3.9666    -1.5461 C.3     
  25 S25            3.0361    -1.4553    -2.2690 S.o2    
  26 O26            3.5264    -0.3282    -1.5559 O.2     
  27 O27            3.9152    -2.2979    -3.0016 O.2     
  28 C28            1.6047    -0.9935    -3.2832 C.3     
  29 C29            0.6800     3.9136     1.1197 C.3     
  30 H30           -1.1089    -0.8879    -0.5102 H       
  31 H31            3.5087    -4.2047    -1.6260 H       
  32 H32            2.5794    -5.6717     0.1160 H       
  33 H33            0.9154    -4.8058     1.7080 H       
  34 H34            0.1774    -2.4637     1.5703 H       
  35 H35            1.8302     3.6630    -0.6845 H       
  36 H36            0.0745     3.7983    -0.9445 H       
  37 H37           -7.9382     0.8160    -2.2813 H       
  38 H38           -8.2682     1.3791    -0.6148 H       
  39 H39           -8.3061     2.9546    -3.2083 H       
  40 H40           -9.3335     3.1464    -1.7484 H       
  41 H41           -7.6763     4.3619    -0.5954 H       
  42 H42           -7.1515     4.7766    -2.2561 H       
  43 H43            0.8730    -0.4745    -2.6640 H       
  44 H44            1.9283    -0.3368    -4.0908 H       
  45 H45            1.1527    -1.8916    -3.7041 H       
  46 H46           -0.3007     3.6287     1.5007 H       
  47 H47            1.4550     3.4935     1.7608 H       
  48 H48            0.7649     5.0003     1.1115 H       
@<TRIPOS>BOND
   1    1    2 1
   2    1    3 2
   3    1    4 1
   4    2    5 2
   5    2   30 1
   6    3   21 1
   7    3    6 1
   8    4    7 2
   9    4    8 am
  10    5    9 1
  11    5    6 1
  12    8   15 1
  13    8   10 1
  14    9   16 ar
  15    9   20 ar
  16   10   12 2
  17   10   11 1
  18   11   13 1
  19   12   14 1
  20   13   14 2
  21   13   24 1
  22   14   22 1
  23   16   17 ar
  24   16   25 1
  25   17   18 ar
  26   17   31 1
  27   18   19 ar
  28   18   32 1
  29   19   20 ar
  30   19   33 1
  31   20   34 1
  32   21   29 1
  33   21   35 1
  34   21   36 1
  35   22   23 1
  36   22   37 1
  37   22   38 1
  38   23   24 1
  39   23   39 1
  40   23   40 1
  41   24   41 1
  42   24   42 1
  43   25   26 2
  44   25   27 2
  45   25   28 1
  46   28   43 1
  47   28   44 1
  48   28   45 1
  49   29   46 1
  50   29   47 1
  51   29   48 1

#	End of record

