#	Name: ASD01140129
#	Creating user name:	WinNT
#	Creation time:	15. 06. 2019 19:00

#	Modifying user name:	WinNT
#	Modification time:	15. 06. 2019 19:00

#	Program:	/corina/corina34_cracker 3.40 0067  02.08.2006

@<TRIPOS>MOLECULE
ASD01140129
  26   27    0    0    0
SMALL
NO_CHARGES


@<TRIPOS>ATOM
   1 C1            -0.0166     1.3755     0.0096 C.ar    
   2 C2             0.0021    -0.0041     0.0020 C.ar    
   3 C3             1.2189    -0.6827    -0.0132 C.ar    
   4 C4             2.4142     0.0374    -0.0207 C.ar    
   5 C5             2.3849     1.4194    -0.0130 C.ar    
   6 C6             1.1721     2.0877     0.0021 C.ar    
   7 F7             1.1478     3.4384     0.0096 F       
   8 F8             3.5973    -0.6146    -0.0351 F       
   9 C9             1.2437    -2.1662    -0.0209 C.ar    
  10 C10            2.0198    -2.8424    -0.9538 C.ar    
  11 C11            2.0401    -4.2380    -0.9574 C.ar    
  12 C12            1.2765    -4.9470    -0.0186 C.ar    
  13 C13            0.5053    -4.2595     0.9081 C.ar    
  14 C14            0.4915    -2.8813     0.9132 C.ar    
  15 O15            1.2912    -6.3032    -0.0168 O.3     
  16 C16            2.8604    -4.9638    -1.9441 C.2     
  17 O17            3.5927    -4.2798    -2.8450 O.3     
  18 O18            2.8763    -6.1788    -1.9449 O.2     
  19 H19           -0.9598     1.9015     0.0169 H       
  20 H20           -0.9254    -0.5573     0.0082 H       
  21 H21            3.3089     1.9785    -0.0185 H       
  22 H22            2.6051    -2.2902    -1.6740 H       
  23 H23           -0.0824    -4.8063     1.6306 H       
  24 H24           -0.1105    -2.3523     1.6372 H       
  25 H25            1.9778    -6.6883     0.5449 H       
  26 H26            4.1146    -4.7993    -3.4719 H       
@<TRIPOS>BOND
   1    1    2 ar
   2    1    6 ar
   3    1   19 1
   4    2    3 ar
   5    2   20 1
   6    3    4 ar
   7    3    9 1
   8    4    5 ar
   9    4    8 1
  10    5    6 ar
  11    5   21 1
  12    6    7 1
  13    9   10 ar
  14    9   14 ar
  15   10   11 ar
  16   10   22 1
  17   11   12 ar
  18   11   16 1
  19   12   13 ar
  20   12   15 1
  21   13   14 ar
  22   13   23 1
  23   14   24 1
  24   15   25 1
  25   16   17 1
  26   16   18 2
  27   17   26 1

#	End of record

