#	Name: ASD01152570
#	Creating user name:	WinNT
#	Creation time:	15. 06. 2019 19:06

#	Modifying user name:	WinNT
#	Modification time:	15. 06. 2019 19:06

#	Program:	/corina/corina34_cracker 3.40 0067  02.08.2006

@<TRIPOS>MOLECULE
ASD01152570
  54   56    0    0    0
SMALL
NO_CHARGES


@<TRIPOS>ATOM
   1 C1             0.4616     1.1158     0.7528 C.2     
   2 N2             0.3480    -0.1614     0.5710 N.2     
   3 N3            -0.8543    -0.8216     0.3367 N.am    
   4 C4            -2.0325    -0.1676     0.2781 C.2     
   5 C5            -2.0215     1.3356     0.4770 C.3     
   6 C6            -0.6677     1.9711     0.7321 C.2     
   7 C7            -2.6280     1.9838    -0.7691 C.3     
   8 O8            -0.5554     3.1677     0.9040 O.2     
   9 C9            -0.8406    -2.2095     0.1554 C.ar    
  10 O10           -3.0682    -0.7631     0.0723 O.2     
  11 C11           -4.0783     1.5911    -0.8844 C.ar    
  12 C12           -1.7308    -3.0103     0.8566 C.ar    
  13 C13            0.0607    -2.7864    -0.7311 C.ar    
  14 C14            0.0748    -4.1559    -0.9104 C.ar    
  15 C15           -0.8069    -4.9566    -0.2097 C.ar    
  16 C16           -1.7139    -4.3858     0.6741 C.ar    
  17 C17           -5.0540     2.3680    -0.2881 C.ar    
  18 C18           -4.4330     0.4571    -1.5910 C.ar    
  19 C19           -5.7631     0.0966    -1.6975 C.ar    
  20 C20           -6.3844     2.0083    -0.3935 C.ar    
  21 C21           -6.7395     0.8707    -1.0962 C.ar    
  22 Cl22          -8.4103     0.4185    -1.2294 Cl      
  23 N23           -2.6099    -5.1969     1.3793 N.am    
  24 C24           -2.2251    -6.4177     1.8012 C.2     
  25 O25           -1.1320    -6.8473     1.4983 O.2     
  26 C26           -3.1529    -7.2489     2.6494 C.3     
  27 C27            5.3079     0.0743     1.2125 C.3     
  28 C28            4.2602     1.1892     1.2301 C.3     
  29 C29            2.8743     0.5906     0.9808 C.3     
  30 C30            1.8266     1.7054     0.9983 C.3     
  31 H31           -2.6664     1.5694     1.3240 H       
  32 H32           -2.5505     3.0681    -0.6889 H       
  33 H33           -2.0885     1.6455    -1.6538 H       
  34 H34           -2.4350    -2.5641     1.5431 H       
  35 H35            0.7506    -2.1632    -1.2807 H       
  36 H36            0.7763    -4.6018    -1.6000 H       
  37 H37           -0.7938    -6.0270    -0.3527 H       
  38 H38           -4.7766     3.2560     0.2604 H       
  39 H39           -3.6707    -0.1471    -2.0604 H       
  40 H40           -6.0401    -0.7889    -2.2502 H       
  41 H41           -7.1465     2.6151     0.0727 H       
  42 H42           -3.5080    -4.8805     1.5644 H       
  43 H43           -4.0807    -6.7016     2.8163 H       
  44 H44           -3.3709    -8.1863     2.1377 H       
  45 H45           -2.6781    -7.4598     3.6076 H       
  46 H46            5.0797    -0.6511     1.9934 H       
  47 H47            5.2953    -0.4209     0.2416 H       
  48 H48            6.2952     0.5008     1.3901 H       
  49 H49            4.2728     1.6844     2.2010 H       
  50 H50            4.4884     1.9146     0.4492 H       
  51 H51            2.8617     0.0953     0.0099 H       
  52 H52            2.6461    -0.1349     1.7617 H       
  53 H53            2.0548     2.4308     0.2174 H       
  54 H54            1.8392     2.2006     1.9692 H       
@<TRIPOS>BOND
   1    1    2 2
   2    1   30 1
   3    1    6 1
   4    2    3 1
   5    3    4 am
   6    3    9 1
   7    4    5 1
   8    4   10 2
   9    5    6 1
  10    5    7 1
  11    5   31 1
  12    6    8 2
  13    7   11 1
  14    7   32 1
  15    7   33 1
  16    9   12 ar
  17    9   13 ar
  18   11   17 ar
  19   11   18 ar
  20   12   16 ar
  21   12   34 1
  22   13   14 ar
  23   13   35 1
  24   14   15 ar
  25   14   36 1
  26   15   16 ar
  27   15   37 1
  28   16   23 1
  29   17   20 ar
  30   17   38 1
  31   18   19 ar
  32   18   39 1
  33   19   21 ar
  34   19   40 1
  35   20   21 ar
  36   20   41 1
  37   21   22 1
  38   23   24 am
  39   23   42 1
  40   24   25 2
  41   24   26 1
  42   26   43 1
  43   26   44 1
  44   26   45 1
  45   27   28 1
  46   27   46 1
  47   27   47 1
  48   27   48 1
  49   28   29 1
  50   28   49 1
  51   28   50 1
  52   29   30 1
  53   29   51 1
  54   29   52 1
  55   30   53 1
  56   30   54 1

#	End of record

