#	Name: ASD08150241
#	Creating user name:	WinNT
#	Creation time:	15. 06. 2019 21:15

#	Modifying user name:	WinNT
#	Modification time:	15. 06. 2019 21:15

#	Program:	/corina/corina34_cracker 3.40 0067  02.08.2006

@<TRIPOS>MOLECULE
ASD08150241
  45   48    0    0    0
SMALL
NO_CHARGES


@<TRIPOS>ATOM
   1 N1            -0.0509     1.5556    -0.0959 N.pl3   
   2 C2             0.0211     0.0956     0.0333 C.3     
   3 N3             1.0258    -0.4451    -0.8828 N.am    
   4 C4             2.1361     0.2547    -1.1909 C.2     
   5 C5             2.2614     1.6502    -0.7352 C.ar    
   6 C6             3.4555     2.3561    -0.8598 C.ar    
   7 C7             3.5256     3.6595    -0.4137 C.ar    
   8 C8             2.4167     4.2706     0.1505 C.ar    
   9 C9             1.2219     3.5868     0.2676 C.ar    
  10 C10            1.1336     2.2791    -0.1788 C.ar    
  11 O11            3.0265    -0.2614    -1.8388 O.2     
  12 C12            0.3982    -0.2679     1.4708 C.3     
  13 S13            2.0798     0.3154     1.8207 S.3     
  14 N14            3.1974    -0.5370     5.4626 N.pl3   
  15 N15            3.4231     0.0200     4.1934 N.2     
  16 C16            2.3334    -0.1850     3.4911 C.2     
  17 N17            1.4476    -0.8360     4.2518 N.2     
  18 C18            1.9569    -1.0522     5.4378 C.2     
  19 C19            0.8312    -1.7095    -1.4479 C.ar    
  20 C20            0.0798    -1.8451    -2.6083 C.ar    
  21 C21            0.4458    -4.2111    -2.5658 C.ar    
  22 C22            1.3936    -2.8315    -0.8534 C.ar    
  23 C23           -0.1105    -3.0949    -3.1638 C.ar    
  24 C24            1.1994    -4.0788    -1.4141 C.ar    
  25 C25           -0.5276    -0.6296    -3.2601 C.3     
  26 C26            4.6634     1.7001    -1.4775 C.3     
  27 H27           -0.9088     2.0072    -0.1270 H       
  28 H28           -0.9517    -0.3360    -0.2023 H       
  29 H29            4.4516     4.2079    -0.5043 H       
  30 H30            2.4872     5.2897     0.5010 H       
  31 H31            0.3611     4.0698     0.7060 H       
  32 H32           -0.3012     0.2046     2.1605 H       
  33 H33            0.3558    -1.3500     1.5950 H       
  34 H34            3.8168    -0.5507     6.2090 H       
  35 H35            1.4647    -1.5573     6.2557 H       
  36 H36            0.2949    -5.1876    -3.0018 H       
  37 H37            1.9823    -2.7288     0.0461 H       
  38 H38           -0.6946    -3.2010    -4.0660 H       
  39 H39            1.6325    -4.9524    -0.9496 H       
  40 H40            0.2082    -0.1624    -3.9146 H       
  41 H41           -1.3974    -0.9276    -3.8455 H       
  42 H42           -0.8328     0.0804    -2.4915 H       
  43 H43            4.6613     1.8746    -2.5534 H       
  44 H44            5.5690     2.1232    -1.0426 H       
  45 H45            4.6338     0.6279    -1.2833 H       
@<TRIPOS>BOND
   1    1    2 1
   2    1   10 1
   3    1   27 1
   4    2    3 1
   5    2   12 1
   6    2   28 1
   7    3    4 am
   8    3   19 1
   9    4    5 1
  10    4   11 2
  11    5    6 ar
  12    5   10 ar
  13    6    7 ar
  14    6   26 1
  15    7    8 ar
  16    7   29 1
  17    8    9 ar
  18    8   30 1
  19    9   10 ar
  20    9   31 1
  21   12   13 1
  22   12   32 1
  23   12   33 1
  24   13   16 1
  25   14   15 1
  26   14   18 1
  27   14   34 1
  28   15   16 2
  29   16   17 1
  30   17   18 2
  31   18   35 1
  32   19   20 ar
  33   19   22 ar
  34   20   23 ar
  35   20   25 1
  36   21   23 ar
  37   21   24 ar
  38   21   36 1
  39   22   24 ar
  40   22   37 1
  41   23   38 1
  42   24   39 1
  43   25   40 1
  44   25   41 1
  45   25   42 1
  46   26   43 1
  47   26   44 1
  48   26   45 1

#	End of record

