#	Name: ASD01882793
#	Creating user name:	WinNT
#	Creation time:	15. 06. 2019 19:45

#	Modifying user name:	WinNT
#	Modification time:	15. 06. 2019 19:45

#	Program:	/corina/corina34_cracker 3.40 0067  02.08.2006

@<TRIPOS>MOLECULE
ASD01882793
  58   62    0    0    0
SMALL
NO_CHARGES


@<TRIPOS>ATOM
   1 C1            -0.0169     1.3939     0.0097 C.ar    
   2 C2             0.0021    -0.0041     0.0020 C.ar    
   3 C3             1.2077    -0.6800    -0.0127 C.ar    
   4 C4             2.3977     0.0198    -0.0198 C.ar    
   5 C5             2.3916     1.4149    -0.0127 C.ar    
   6 C6             1.1840     2.1034     0.0020 C.ar    
   7 C7             3.6731     2.1632    -0.0199 C.ar    
   8 C8             4.8843     1.4752    -0.0396 C.ar    
   9 C9             3.6692     3.5567    -0.0129 C.ar    
  10 C10            4.8638     4.2475    -0.0201 C.ar    
  11 C11            6.0638     3.5592    -0.0348 C.ar    
  12 C12            6.0734     2.1763    -0.0468 C.ar    
  13 C13            7.3844     1.4334    -0.0681 C.3     
  14 O14            7.7837     1.2106    -1.4219 O.3     
  15 C15            8.9521     0.5489    -1.6188 C.ar    
  16 C16           10.8842    -0.5548    -0.7208 C.ar    
  17 C17            9.6976     0.1172    -0.5282 C.ar    
  18 C18            9.3998     0.2985    -2.9123 C.ar    
  19 C19           11.3413    -0.8039    -2.0179 C.ar    
  20 C20           12.5429    -1.4835    -2.5317 C.2     
  21 C21           10.5818    -0.3708    -3.1100 C.ar    
  22 C22           11.3346    -0.7943    -4.3467 C.3     
  23 N23           12.5432    -1.4803    -3.8757 N.am    
  24 O24           13.4088    -1.9816    -1.8383 O.2     
  25 Cl25          -1.4898    -0.8917     0.0115 Cl      
  26 C26           -1.3043     2.1170     0.0197 C.2     
  27 O27           -2.3491     1.4973     0.0213 O.2     
  28 O28           -1.3201     3.4641     0.0271 O.3     
  29 C29           13.5343    -2.0390    -4.6922 C.ar    
  30 C30           14.6347    -2.6638    -4.1204 C.ar    
  31 C31           15.6116    -3.2144    -4.9262 C.ar    
  32 C32           15.4938    -3.1437    -6.3066 C.ar    
  33 C33           14.3947    -2.5197    -6.8786 C.ar    
  34 C34           13.4142    -1.9736    -6.0741 C.ar    
  35 O35           16.4563    -3.6857    -7.0994 O.3     
  36 C36           16.2707    -3.5765    -8.5121 C.3     
  37 F37           16.2050    -2.2259    -8.8707 F       
  38 F38           17.3454    -4.1824    -9.1718 F       
  39 F39           15.0802    -4.2144    -8.8767 F       
  40 H40            1.2188    -1.7599    -0.0182 H       
  41 H41            3.3363    -0.5143    -0.0306 H       
  42 H42            1.1757     3.1833     0.0076 H       
  43 H43            4.8929     0.3952    -0.0490 H       
  44 H44            2.7330     4.0950    -0.0021 H       
  45 H45            4.8620     5.3275    -0.0147 H       
  46 H46            6.9964     4.1038    -0.0412 H       
  47 H47            8.1450     2.0241     0.4425 H       
  48 H48            7.2675     0.4755     0.4386 H       
  49 H49           11.4609    -0.8884     0.1292 H       
  50 H50            9.3452     0.3097     0.4743 H       
  51 H51            8.8178     0.6300    -3.7595 H       
  52 H52           10.7253    -1.4746    -4.9417 H       
  53 H53           11.6065     0.0803    -4.9378 H       
  54 H54           -2.1868     3.8929     0.0336 H       
  55 H55           14.7267    -2.7186    -3.0457 H       
  56 H56           16.4677    -3.7000    -4.4816 H       
  57 H57           14.3037    -2.4650    -7.9533 H       
  58 H58           12.5562    -1.4921    -6.5196 H       
@<TRIPOS>BOND
   1    1    2 ar
   2    1    6 ar
   3    1   26 1
   4    2    3 ar
   5    2   25 1
   6    3    4 ar
   7    3   40 1
   8    4    5 ar
   9    4   41 1
  10    5    6 ar
  11    5    7 1
  12    6   42 1
  13    7    9 ar
  14    7    8 ar
  15    8   12 ar
  16    8   43 1
  17    9   10 ar
  18    9   44 1
  19   10   11 ar
  20   10   45 1
  21   11   12 ar
  22   11   46 1
  23   12   13 1
  24   13   14 1
  25   13   47 1
  26   13   48 1
  27   14   15 1
  28   15   18 ar
  29   15   17 ar
  30   16   17 ar
  31   16   19 ar
  32   16   49 1
  33   17   50 1
  34   18   21 ar
  35   18   51 1
  36   19   21 ar
  37   19   20 1
  38   20   23 am
  39   20   24 2
  40   21   22 1
  41   22   23 1
  42   22   52 1
  43   22   53 1
  44   23   29 1
  45   26   27 2
  46   26   28 1
  47   28   54 1
  48   29   30 ar
  49   29   34 ar
  50   30   31 ar
  51   30   55 1
  52   31   32 ar
  53   31   56 1
  54   32   33 ar
  55   32   35 1
  56   33   34 ar
  57   33   57 1
  58   34   58 1
  59   35   36 1
  60   36   37 1
  61   36   38 1
  62   36   39 1

#	End of record

