#	Name: ASD01200333
#	Creating user name:	WinNT
#	Creation time:	15. 06. 2019 19:09

#	Modifying user name:	WinNT
#	Modification time:	15. 06. 2019 19:09

#	Program:	/corina/corina34_cracker 3.40 0067  02.08.2006

@<TRIPOS>MOLECULE
ASD01200333
  47   50    0    0    0
SMALL
NO_CHARGES


@<TRIPOS>ATOM
   1 C1            -0.0166     1.3746     0.0096 C.ar    
   2 C2             0.0021    -0.0041     0.0020 C.ar    
   3 C3             1.2227    -0.6830    -0.0133 C.ar    
   4 C4             2.4175     0.0418    -0.0208 C.ar    
   5 C5             2.3831     1.4228    -0.0130 C.ar    
   6 C6             1.1704     2.0869     0.0021 C.ar    
   7 C7             1.1406     3.5936     0.0099 C.3     
   8 C8             1.8633     4.1115     1.2551 C.3     
   9 C9             1.8295     4.1161    -1.2244 C.2     
  10 C10            1.7259     5.6335     1.3285 C.3     
  11 C11            0.4298     7.4415     2.2815 C.3     
  12 C12            0.2668     6.0306     1.6636 C.3     
  13 C13            2.5504     6.1939     2.5058 C.3     
  14 C14            1.7263     7.3435     3.1117 C.3     
  15 C15            1.2107     4.4621    -2.3642 C.2     
  16 N16            3.1787     4.3137    -1.3476 N.pl3   
  17 C17            2.2499     4.9120    -3.2919 C.ar    
  18 C18            2.2462     5.3881    -4.6052 C.ar    
  19 C19            3.4709     4.7981    -2.6000 C.ar    
  20 N20            4.6033     5.1426    -3.1989 N.ar    
  21 C21            4.6221     5.5905    -4.4361 C.ar    
  22 C22            3.4578     5.7275    -5.1766 C.ar    
  23 C23            1.2505    -2.1591    -0.0210 C.2     
  24 O24            2.3137    -2.7466    -0.0343 O.2     
  25 O25            0.0967    -2.8546    -0.0133 O.3     
  26 Cl26           3.9407    -0.7909    -0.0392 Cl      
  27 H27           -0.9600     1.9003     0.0169 H       
  28 H28           -0.9251    -0.5579     0.0082 H       
  29 H29            3.3053     1.9849    -0.0184 H       
  30 H30            0.1061     3.9365     0.0213 H       
  31 H31            1.4208     3.6634     2.1448 H       
  32 H32            2.9186     3.8441     1.2002 H       
  33 H33            2.0417     6.0898     0.3903 H       
  34 H34            0.5346     8.1915     1.4975 H       
  35 H35           -0.4182     7.6766     2.9246 H       
  36 H36           -0.3396     6.0728     0.7588 H       
  37 H37           -0.1651     5.3394     2.3874 H       
  38 H38            2.7116     5.4162     3.2523 H       
  39 H39            3.5077     6.5704     2.1454 H       
  40 H40            2.2837     8.2778     3.0454 H       
  41 H41            1.4876     7.1236     4.1523 H       
  42 H42            0.1495     4.4169    -2.5595 H       
  43 H43            3.8323     4.1382    -0.6527 H       
  44 H44            1.3236     5.4876    -5.1578 H       
  45 H45            5.5669     5.8595    -4.8849 H       
  46 H46            3.4972     6.0994    -6.1898 H       
  47 H47            0.1654    -3.8191    -0.0188 H       
@<TRIPOS>BOND
   1    1    2 ar
   2    1    6 ar
   3    1   27 1
   4    2    3 ar
   5    2   28 1
   6    3    4 ar
   7    3   23 1
   8    4    5 ar
   9    4   26 1
  10    5    6 ar
  11    5   29 1
  12    6    7 1
  13    7    8 1
  14    7    9 1
  15    7   30 1
  16    8   10 1
  17    8   31 1
  18    8   32 1
  19    9   16 1
  20    9   15 2
  21   10   13 1
  22   10   12 1
  23   10   33 1
  24   11   12 1
  25   11   14 1
  26   11   34 1
  27   11   35 1
  28   12   36 1
  29   12   37 1
  30   13   14 1
  31   13   38 1
  32   13   39 1
  33   14   40 1
  34   14   41 1
  35   15   17 1
  36   15   42 1
  37   16   19 1
  38   16   43 1
  39   17   19 ar
  40   17   18 ar
  41   18   22 ar
  42   18   44 1
  43   19   20 ar
  44   20   21 ar
  45   21   22 ar
  46   21   45 1
  47   22   46 1
  48   23   24 2
  49   23   25 1
  50   25   47 1

#	End of record

