#	Name: ASD08070057
#	Creating user name:	WinNT
#	Creation time:	15. 06. 2019 21:14

#	Modifying user name:	WinNT
#	Modification time:	15. 06. 2019 21:14

#	Program:	/corina/corina34_cracker 3.40 0067  02.08.2006

@<TRIPOS>MOLECULE
ASD08070057
  41   41    0    0    0
SMALL
NO_CHARGES


@<TRIPOS>ATOM
   1 C1            -0.0166     1.3720     0.0096 C.ar    
   2 C2             0.0021    -0.0041     0.0020 C.ar    
   3 C3             1.1809     2.0836     0.0020 C.ar    
   4 C4             2.3974     1.4049    -0.0133 C.ar    
   5 C5             2.4220     0.0396    -0.0213 C.ar    
   6 C6             1.2247    -0.6826    -0.0133 C.ar    
   7 C7             1.2512    -2.1571    -0.0225 C.2     
   8 O8             2.3150    -2.7460    -0.0370 O.2     
   9 C9             1.5913    -4.3830    -2.0440 C.3     
  10 C10            0.2427    -4.8157    -1.4652 C.3     
  11 C11            0.1227    -4.3167    -0.0238 C.3     
  12 N12            0.0963    -2.8520    -0.0147 N.am    
  13 C13           -1.1689    -4.8539     0.5960 C.3     
  14 C14           -1.2284    -4.4593     2.0730 C.3     
  15 C15           -2.5200    -4.9964     2.6928 C.3     
  16 C16            3.6899     2.1797    -0.0215 C.3     
  17 S17            1.1570     3.8454     0.0111 S.3     
  18 C18           -0.6158     4.2293     0.0296 C.3     
  19 H19           -0.9588     1.8997     0.0169 H       
  20 H20           -0.9249    -0.5583     0.0082 H       
  21 H21            3.3672    -0.4829    -0.0335 H       
  22 H22            2.3969    -4.8069    -1.4445 H       
  23 H23            1.6768    -4.7385    -3.0709 H       
  24 H24            1.6609    -3.2953    -2.0291 H       
  25 H25           -0.5628    -4.3918    -2.0647 H       
  26 H26            0.1731    -5.9034    -1.4801 H       
  27 H27            0.9769    -4.6683     0.5547 H       
  28 H28           -0.7522    -2.3822    -0.0031 H       
  29 H29           -2.0264    -4.4313     0.0722 H       
  30 H30           -1.1892    -5.9402     0.5090 H       
  31 H31           -0.3710    -4.8818     2.5968 H       
  32 H32           -1.2081    -3.3729     2.1600 H       
  33 H33           -3.3775    -4.5739     2.1690 H       
  34 H34           -2.5403    -6.0828     2.6058 H       
  35 H35           -2.5624    -4.7153     3.7450 H       
  36 H36            4.0114     2.3610     1.0042 H       
  37 H37            4.4542     1.6060    -0.5457 H       
  38 H38            3.5391     3.1326    -0.5288 H       
  39 H39           -1.0880     3.8085    -0.8581 H       
  40 H40           -1.0713     3.7995     0.9217 H       
  41 H41           -0.7534     5.3106     0.0363 H       
@<TRIPOS>BOND
   1    1    2 ar
   2    1    3 ar
   3    1   19 1
   4    2    6 ar
   5    2   20 1
   6    3    4 ar
   7    3   17 1
   8    4    5 ar
   9    4   16 1
  10    5    6 ar
  11    5   21 1
  12    6    7 1
  13    7    8 2
  14    7   12 am
  15    9   10 1
  16    9   22 1
  17    9   23 1
  18    9   24 1
  19   10   11 1
  20   10   25 1
  21   10   26 1
  22   11   12 1
  23   11   13 1
  24   11   27 1
  25   12   28 1
  26   13   14 1
  27   13   29 1
  28   13   30 1
  29   14   15 1
  30   14   31 1
  31   14   32 1
  32   15   33 1
  33   15   34 1
  34   15   35 1
  35   16   36 1
  36   16   37 1
  37   16   38 1
  38   17   18 1
  39   18   39 1
  40   18   40 1
  41   18   41 1

#	End of record

