#	Name: ASD00310331
#	Creating user name:	WinNT
#	Creation time:	15. 06. 2019 18:34

#	Modifying user name:	WinNT
#	Modification time:	15. 06. 2019 18:34

#	Program:	/corina/corina34_cracker 3.40 0067  02.08.2006

@<TRIPOS>MOLECULE
ASD00310331
  39   40    0    0    0
SMALL
NO_CHARGES


@<TRIPOS>ATOM
   1 C1             0.4259    -0.8315     1.2172 C.3     
   2 C2             0.0021    -0.0041     0.0020 C.3     
   3 C3            -1.4854    -0.2304    -0.2754 C.3     
   4 O4             0.2321     1.3815     0.2655 O.3     
   5 F5             0.0932    -2.1739     1.0064 F       
   6 F6             1.8081    -0.7168     1.4004 F       
   7 F7            -0.2362    -0.3603     2.3560 F       
   8 C8             0.8072    -0.4274    -1.1995 C.ar    
   9 C9             0.6354    -1.6922    -1.7335 C.ar    
  10 C10            1.3700    -2.0851    -2.8335 C.ar    
  11 C11            2.2861    -1.2049    -3.4070 C.ar    
  12 C12            2.4548     0.0683    -2.8652 C.ar    
  13 C13            1.7115     0.4523    -1.7680 C.ar    
  14 O14            4.0680    -0.7603    -5.2602 O.3     
  15 B15            3.1253    -1.6461    -4.6584 Du      
  16 O16            2.9683    -2.9449    -5.2275 O.3     
  17 C17            4.2203    -3.6082    -5.4420 C.3     
  18 C18            5.1429    -2.6854    -6.2438 C.3     
  19 C19            5.3439    -1.3759    -5.4754 C.3     
  20 C20            6.4959    -3.3696    -6.4493 C.3     
  21 C21            4.5094    -2.3869    -7.6042 C.3     
  22 H22           -2.0678     0.0758     0.5936 H       
  23 H23           -1.7874     0.3591    -1.1411 H       
  24 H24           -1.6609    -1.2872    -0.4764 H       
  25 H25            1.1561     1.5986     0.4503 H       
  26 H26           -0.0747    -2.3734    -1.2883 H       
  27 H27            1.2356    -3.0728    -3.2491 H       
  28 H28            3.1635     0.7541    -3.3054 H       
  29 H29            1.8386     1.4398    -1.3496 H       
  30 H30            4.6803    -3.8385    -4.4811 H       
  31 H31            4.0537    -4.5305    -5.9985 H       
  32 H32            5.9787    -0.7063    -6.0558 H       
  33 H33            5.8145    -1.5853    -4.5148 H       
  34 H34            6.3522    -4.3025    -6.9945 H       
  35 H35            7.1523    -2.7126    -7.0200 H       
  36 H36            6.9470    -3.5811    -5.4799 H       
  37 H37            3.5461    -1.8987    -7.4571 H       
  38 H38            5.1663    -1.7302    -8.1746 H       
  39 H39            4.3647    -3.3193    -8.1500 H       
@<TRIPOS>BOND
   1    1    2 1
   2    1    5 1
   3    1    6 1
   4    1    7 1
   5    2    3 1
   6    2    4 1
   7    2    8 1
   8    3   22 1
   9    3   23 1
  10    3   24 1
  11    4   25 1
  12    8    9 ar
  13    8   13 ar
  14    9   10 ar
  15    9   26 1
  16   10   11 ar
  17   10   27 1
  18   11   12 ar
  19   11   15 1
  20   12   13 ar
  21   12   28 1
  22   13   29 1
  23   14   15 1
  24   14   19 1
  25   15   16 1
  26   16   17 1
  27   17   18 1
  28   17   30 1
  29   17   31 1
  30   18   19 1
  31   18   20 1
  32   18   21 1
  33   19   32 1
  34   19   33 1
  35   20   34 1
  36   20   35 1
  37   20   36 1
  38   21   37 1
  39   21   38 1
  40   21   39 1

#	End of record

