#	Name: ASD01903217
#	Creating user name:	WinNT
#	Creation time:	15. 06. 2019 19:54

#	Modifying user name:	WinNT
#	Modification time:	15. 06. 2019 19:54

#	Program:	/corina/corina34_cracker 3.40 0067  02.08.2006

@<TRIPOS>MOLECULE
ASD01903217
  32   34    0    0    0
SMALL
NO_CHARGES


@<TRIPOS>ATOM
   1 S1            -0.0242     1.7576    -0.0302 S.3     
   2 C2             0.0013    -0.0032    -0.0097 C.2     
   3 N3             1.2320    -0.4153    -0.0142 N.2     
   4 C4             2.1769     0.5142    -0.0323 C.2     
   5 C5             1.7377     1.7832    -0.0438 C.2     
   6 N6            -1.1185    -0.8216     0.0087 N.pl3   
   7 C7            -2.3870    -0.2623     0.1288 C.ar    
   8 C8             3.6232     0.1751    -0.0388 C.2     
   9 C9             4.6407     0.8840    -0.7056 C.2     
  10 N10            5.7764     0.2800    -0.4737 N.2     
  11 N11            5.5308    -0.8297     0.3441 N.pl3   
  12 C12            4.2071    -0.8758     0.6049 C.2     
  13 N13           -2.5133     1.0402     0.3305 N.ar    
  14 C14           -3.6974     1.6102     0.4494 C.ar    
  15 C15           -4.8548     0.8623     0.3671 C.ar    
  16 C16           -4.7658    -0.5075     0.1563 C.ar    
  17 C17           -3.5112    -1.0759     0.0303 C.ar    
  18 C18           -3.7874     3.0970     0.6786 C.3     
  19 F19           -3.8505     3.7558    -0.5539 F       
  20 C20            2.6029     3.0170    -0.0649 C.3     
  21 H21           -1.0174    -1.7837    -0.0620 H       
  22 H22            4.5061     1.7723    -1.3050 H       
  23 H23            6.1970    -1.4552     0.6695 H       
  24 H24            3.7014    -1.6147     1.2088 H       
  25 H25           -5.8195     1.3375     0.4661 H       
  26 H26           -5.6564    -1.1146     0.0882 H       
  27 H27           -3.4055    -2.1380    -0.1344 H       
  28 H28           -4.6835     3.3219     1.2571 H       
  29 H29           -2.9073     3.4342     1.2262 H       
  30 H30            2.8037     3.3024    -1.0975 H       
  31 H31            2.0867     3.8314     0.4434 H       
  32 H32            3.5440     2.8095     0.4443 H       
@<TRIPOS>BOND
   1    1    2 1
   2    1    5 1
   3    2    3 2
   4    2    6 1
   5    3    4 1
   6    4    5 2
   7    4    8 1
   8    5   20 1
   9    6    7 1
  10    6   21 1
  11    7   13 ar
  12    7   17 ar
  13    8    9 1
  14    8   12 2
  15    9   10 2
  16    9   22 1
  17   10   11 1
  18   11   12 1
  19   11   23 1
  20   12   24 1
  21   13   14 ar
  22   14   15 ar
  23   14   18 1
  24   15   16 ar
  25   15   25 1
  26   16   17 ar
  27   16   26 1
  28   17   27 1
  29   18   19 1
  30   18   28 1
  31   18   29 1
  32   20   30 1
  33   20   31 1
  34   20   32 1

#	End of record

