#	Name: ASD01910699
#	Creating user name:	WinNT
#	Creation time:	15. 06. 2019 19:56

#	Modifying user name:	WinNT
#	Modification time:	15. 06. 2019 19:56

#	Program:	/corina/corina34_cracker 3.40 0067  02.08.2006

@<TRIPOS>MOLECULE
ASD01910699
  61   64    0    0    0
SMALL
NO_CHARGES


@<TRIPOS>ATOM
   1 C1            12.4810    -1.9059     4.2721 C.ar    
   2 C2            13.1009    -2.0697     3.0406 C.ar    
   3 C3            12.3916    -1.7501     1.8967 C.ar    
   4 C4            11.0887    -1.2782     2.0183 C.ar    
   5 N5            10.5324    -1.1353     3.2115 N.ar    
   6 C6            11.1848    -1.4326     4.3191 C.ar    
   7 N7            10.3645    -0.9533     0.8772 N.3     
   8 C8             9.0190    -0.4775     1.2253 C.3     
   9 C9             8.3208     0.0388    -0.0373 C.3     
  10 N10            8.3616    -1.0183    -1.0591 N.am    
  11 C11            9.6585    -1.6412    -1.3646 C.3     
  12 C12           10.3040    -2.0914    -0.0497 C.3     
  13 C13            7.2404    -1.4055    -1.6989 C.2     
  14 C14            7.3210    -2.3785    -2.8064 C.ar    
  15 O15            6.1625    -0.9536    -1.3641 O.2     
  16 C16            6.3464    -3.3726    -2.9362 C.ar    
  17 C17            6.4169    -4.2835    -3.9682 C.ar    
  18 C18            7.4552    -4.2211    -4.8859 C.ar    
  19 C19            8.4403    -3.2273    -4.7656 C.ar    
  20 C20            8.3661    -2.3027    -3.7265 C.ar    
  21 C21            9.5137    -3.1612    -5.7111 C.1     
  22 C22           10.3938    -3.1070    -6.4862 C.1     
  23 C23           11.4672    -3.0409    -7.4318 C.ar    
  24 O24            7.5194    -5.1202    -5.8994 O.3     
  25 C25            6.4844    -6.1036    -5.9607 C.3     
  26 C26           12.4468    -2.0523    -7.3118 C.ar    
  27 C27           13.4830    -1.9929    -8.2283 C.ar    
  28 C28           13.5490    -2.9129    -9.2650 C.ar    
  29 C29           12.5783    -3.8969    -9.3885 C.ar    
  30 C30           11.5413    -3.9682    -8.4737 C.ar    
  31 O31           14.4366    -1.0316    -8.1126 O.3     
  32 C32           14.3070    -0.1170    -7.0223 C.3     
  33 O33           12.6484    -4.7951   -10.4059 O.3     
  34 C34           11.6161    -5.7809   -10.4733 C.3     
  35 H35           13.0058    -2.1505     5.1838 H       
  36 H36           14.1142    -2.4379     2.9772 H       
  37 H37           12.8433    -1.8651     0.9225 H       
  38 H38           10.6989    -1.3034     5.2749 H       
  39 H39            8.4416    -1.2985     1.6504 H       
  40 H40            9.0958     0.3293     1.9542 H       
  41 H41            7.2844     0.2861     0.1926 H       
  42 H42            8.8385     0.9244    -0.4057 H       
  43 H43            9.5065    -2.5046    -2.0123 H       
  44 H44           10.3047    -0.9170    -1.8607 H       
  45 H45           11.3127    -2.4550    -0.2456 H       
  46 H46            9.7087    -2.8899     0.3931 H       
  47 H47            5.5355    -3.4272    -2.2250 H       
  48 H48            5.6610    -5.0491    -4.0625 H       
  49 H49            9.1202    -1.5358    -3.6284 H       
  50 H50            6.4896    -6.6941    -5.0445 H       
  51 H51            5.5191    -5.6089    -6.0687 H       
  52 H52            6.6550    -6.7579    -6.8156 H       
  53 H53           12.3958    -1.3354    -6.5057 H       
  54 H54           14.3584    -2.8629    -9.9783 H       
  55 H55           10.7863    -4.7343    -8.5707 H       
  56 H56           15.1309     0.5962    -7.0464 H       
  57 H57           13.3610     0.4177    -7.1072 H       
  58 H58           14.3302    -0.6673    -6.0817 H       
  59 H59           11.6196    -6.3737    -9.5586 H       
  60 H60           10.6500    -5.2884   -10.5835 H       
  61 H61           11.7914    -6.4327   -11.3292 H       
@<TRIPOS>BOND
   1    1    2 ar
   2    1    6 ar
   3    1   35 1
   4    2    3 ar
   5    2   36 1
   6    3    4 ar
   7    3   37 1
   8    4    5 ar
   9    4    7 1
  10    5    6 ar
  11    6   38 1
  12    7    8 1
  13    7   12 1
  14    8    9 1
  15    8   39 1
  16    8   40 1
  17    9   10 1
  18    9   41 1
  19    9   42 1
  20   10   11 1
  21   10   13 am
  22   11   12 1
  23   11   43 1
  24   11   44 1
  25   12   45 1
  26   12   46 1
  27   13   14 1
  28   13   15 2
  29   14   16 ar
  30   14   20 ar
  31   16   17 ar
  32   16   47 1
  33   17   18 ar
  34   17   48 1
  35   18   19 ar
  36   18   24 1
  37   19   20 ar
  38   19   21 1
  39   20   49 1
  40   21   22 3
  41   22   23 1
  42   23   26 ar
  43   23   30 ar
  44   24   25 1
  45   25   50 1
  46   25   51 1
  47   25   52 1
  48   26   27 ar
  49   26   53 1
  50   27   28 ar
  51   27   31 1
  52   28   29 ar
  53   28   54 1
  54   29   30 ar
  55   29   33 1
  56   30   55 1
  57   31   32 1
  58   32   56 1
  59   32   57 1
  60   32   58 1
  61   33   34 1
  62   34   59 1
  63   34   60 1
  64   34   61 1

#	End of record

