#	Name: ASD01028479
#	Creating user name:	WinNT
#	Creation time:	15. 06. 2019 18:57

#	Modifying user name:	WinNT
#	Modification time:	15. 06. 2019 18:57

#	Program:	/corina/corina34_cracker 3.40 0067  02.08.2006

@<TRIPOS>MOLECULE
ASD01028479
  54   58    0    0    0
SMALL
NO_CHARGES


@<TRIPOS>ATOM
   1 C1            -0.0171     1.4118     0.0098 C.ar    
   2 C2             0.0021    -0.0041     0.0020 C.ar    
   3 C3             1.2105     2.1116     0.0018 C.ar    
   4 C4             2.3793     1.3714    -0.0133 C.ar    
   5 C5             2.3160    -0.0162    -0.0202 C.ar    
   6 N6             1.1704    -0.6565    -0.0123 N.ar    
   7 O7             1.2420     3.4670     0.0084 O.3     
   8 C8             2.5299     4.0861    -0.0005 C.3     
   9 C9             2.3673     5.5842     0.0086 C.2     
  10 N10            2.2907     6.3792     1.1113 N.pl3   
  11 C11            2.1472     7.6617     0.6406 C.2     
  12 N12            2.1437     7.5866    -0.6801 N.2     
  13 N13            2.2796     6.3592    -1.0412 N.2     
  14 C14            2.3286     6.1325     2.4498 C.2     
  15 C15            2.2246     7.1561     3.3421 C.2     
  16 C16            2.0756     8.4865     2.8818 C.2     
  17 C17            2.0390     8.7352     1.5478 C.2     
  18 C18           -1.2152    -0.7043     0.0100 C.ar    
  19 C19           -2.4012    -0.0065     0.0251 C.ar    
  20 C20           -2.4085     1.3917     0.0322 C.ar    
  21 C21           -1.2431     2.0938     0.0309 C.ar    
  22 O22           -3.5786    -0.6840     0.0328 O.3     
  23 C23           -4.7758     0.0961     0.0485 C.3     
  24 C24            2.2671     6.8768     4.7974 C.ar    
  25 C25            3.3232     7.3629     5.5699 C.ar    
  26 C26            3.3659     7.1051     6.9205 C.ar    
  27 C27            2.3506     6.3553     7.5213 C.ar    
  28 C28            1.2909     5.8679     6.7467 C.ar    
  29 C29            1.2491     6.1336     5.3936 C.ar    
  30 F30            0.3082     5.1429     7.3244 F       
  31 C31            2.3959     6.0773     8.9694 C.2     
  32 N32            3.4166     6.5465     9.7141 N.am    
  33 O33            1.5123     5.4250     9.4912 O.2     
  34 C34            3.4615     6.2705    11.1522 C.3     
  35 H35            3.3370     1.8705    -0.0202 H       
  36 H36            3.2348    -0.5838    -0.0321 H       
  37 H37            3.0883     3.7758     0.8827 H       
  38 H38            3.0716     3.7849    -0.8972 H       
  39 H39            2.4415     5.1192     2.8060 H       
  40 H40            1.9921     9.2993     3.5880 H       
  41 H41            1.9259     9.7461     1.1848 H       
  42 H42           -1.2205    -1.7843     0.0039 H       
  43 H43           -3.3501     1.9205     0.0433 H       
  44 H44           -1.2617     3.1736     0.0364 H       
  45 H45           -5.6412    -0.5666     0.0533 H       
  46 H46           -4.7911     0.7202     0.9420 H       
  47 H47           -4.8082     0.7297    -0.8378 H       
  48 H48            4.1083     7.9420     5.1065 H       
  49 H49            4.1839     7.4817     7.5166 H       
  50 H50            0.4323     5.7589     4.7947 H       
  51 H51            4.1214     7.0669     9.2979 H       
  52 H52            4.3531     6.7269    11.5820 H       
  53 H53            2.5743     6.6862    11.6298 H       
  54 H54            3.4905     5.1931    11.3146 H       
@<TRIPOS>BOND
   1    1    2 ar
   2    1    3 ar
   3    1   21 ar
   4    2   18 ar
   5    2    6 ar
   6    3    4 ar
   7    3    7 1
   8    4    5 ar
   9    4   35 1
  10    5    6 ar
  11    5   36 1
  12    7    8 1
  13    8    9 1
  14    8   37 1
  15    8   38 1
  16    9   10 1
  17    9   13 2
  18   10   11 1
  19   10   14 1
  20   11   12 2
  21   11   17 1
  22   12   13 1
  23   14   15 2
  24   14   39 1
  25   15   16 1
  26   15   24 1
  27   16   17 2
  28   16   40 1
  29   17   41 1
  30   18   19 ar
  31   18   42 1
  32   19   20 ar
  33   19   22 1
  34   20   21 ar
  35   20   43 1
  36   21   44 1
  37   22   23 1
  38   23   45 1
  39   23   46 1
  40   23   47 1
  41   24   25 ar
  42   24   29 ar
  43   25   26 ar
  44   25   48 1
  45   26   27 ar
  46   26   49 1
  47   27   28 ar
  48   27   31 1
  49   28   29 ar
  50   28   30 1
  51   29   50 1
  52   31   32 am
  53   31   33 2
  54   32   34 1
  55   32   51 1
  56   34   52 1
  57   34   53 1
  58   34   54 1

#	End of record

