#	Name: ASD01150799
#	Creating user name:	WinNT
#	Creation time:	15. 06. 2019 19:05

#	Modifying user name:	WinNT
#	Modification time:	15. 06. 2019 19:05

#	Program:	/corina/corina34_cracker 3.40 0067  02.08.2006

@<TRIPOS>MOLECULE
ASD01150799
  53   54    0    0    0
SMALL
NO_CHARGES


@<TRIPOS>ATOM
   1 N1            -0.0179     1.4659     0.0101 N.3     
   2 C2             0.0021    -0.0041     0.0020 C.3     
   3 C3             0.7497    -0.4921    -1.2417 C.3     
   4 O4             2.0659     0.0673    -1.2506 O.3     
   5 C5             2.0838     1.4973    -1.2437 C.3     
   6 C6             1.3496     2.0055    -0.0001 C.3     
   7 C7            -0.7765     1.9758     1.1601 C.3     
   8 C8             0.6631     5.2498     2.0254 C.ar    
   9 N9             0.4773     3.9491     1.9197 N.ar    
  10 C10           -0.5725     3.4644     1.2763 C.ar    
  11 C11           -1.4818     4.3443     0.7103 C.ar    
  12 C12           -1.2524     5.7046     0.8425 C.ar    
  13 N13           -0.1801     6.1157     1.5002 N.ar    
  14 C14            1.8686     5.7602     2.7719 C.3     
  15 C15            3.0389     5.9235     1.8000 C.3     
  16 C16            4.2628     6.4417     2.5580 C.3     
  17 C17            5.4331     6.6050     1.5861 C.3     
  18 C18            6.6569     7.1232     2.3441 C.3     
  19 C19            7.8273     7.2866     1.3722 C.3     
  20 C20            9.0511     7.8048     2.1301 C.3     
  21 C21           10.2215     7.9681     1.1582 C.3     
  22 C22           -2.2109     6.7022     0.2448 C.3     
  23 H23            0.5087    -0.3661     0.8967 H       
  24 H24           -1.0202    -0.3818    -0.0162 H       
  25 H25            0.8167    -1.5799    -1.2226 H       
  26 H26            0.2136    -0.1754    -2.1363 H       
  27 H27            3.1155     1.8483    -1.2262 H       
  28 H28            1.5864     1.8718    -2.1384 H       
  29 H29            1.3110     3.0946    -0.0198 H       
  30 H30            1.8778     1.6756     0.8946 H       
  31 H31           -1.8364     1.7643     1.0189 H       
  32 H32           -0.4270     1.4890     2.0706 H       
  33 H33           -2.3479     3.9786     0.1789 H       
  34 H34            1.6346     6.7239     3.2242 H       
  35 H35            2.1407     5.0492     3.5521 H       
  36 H36            3.2728     4.9597     1.3478 H       
  37 H37            2.7668     6.6345     1.0199 H       
  38 H38            4.0288     7.4055     3.0103 H       
  39 H39            4.5348     5.7307     3.3381 H       
  40 H40            5.6670     5.6413     1.1338 H       
  41 H41            5.1610     7.3160     0.8060 H       
  42 H42            6.4230     8.0870     2.7963 H       
  43 H43            6.9290     6.4123     3.1242 H       
  44 H44            8.0612     6.3228     0.9199 H       
  45 H45            7.5552     7.9975     0.5921 H       
  46 H46            8.8172     8.7685     2.5824 H       
  47 H47            9.3232     7.0938     2.9103 H       
  48 H48           10.4554     7.0043     0.7060 H       
  49 H49            9.9494     8.6791     0.3781 H       
  50 H50           11.0934     8.3373     1.6982 H       
  51 H51           -2.9812     6.9487     0.9755 H       
  52 H52           -1.6688     7.6068    -0.0308 H       
  53 H53           -2.6759     6.2728    -0.6425 H       
@<TRIPOS>BOND
   1    1    2 1
   2    1    6 1
   3    1    7 1
   4    2    3 1
   5    2   23 1
   6    2   24 1
   7    3    4 1
   8    3   25 1
   9    3   26 1
  10    4    5 1
  11    5    6 1
  12    5   27 1
  13    5   28 1
  14    6   29 1
  15    6   30 1
  16    7   10 1
  17    7   31 1
  18    7   32 1
  19    8    9 ar
  20    8   13 ar
  21    8   14 1
  22    9   10 ar
  23   10   11 ar
  24   11   12 ar
  25   11   33 1
  26   12   13 ar
  27   12   22 1
  28   14   15 1
  29   14   34 1
  30   14   35 1
  31   15   16 1
  32   15   36 1
  33   15   37 1
  34   16   17 1
  35   16   38 1
  36   16   39 1
  37   17   18 1
  38   17   40 1
  39   17   41 1
  40   18   19 1
  41   18   42 1
  42   18   43 1
  43   19   20 1
  44   19   44 1
  45   19   45 1
  46   20   21 1
  47   20   46 1
  48   20   47 1
  49   21   48 1
  50   21   49 1
  51   21   50 1
  52   22   51 1
  53   22   52 1
  54   22   53 1

#	End of record

