#	Name: ASD08178165
#	Creating user name:	WinNT
#	Creation time:	15. 06. 2019 21:18

#	Modifying user name:	WinNT
#	Modification time:	15. 06. 2019 21:18

#	Program:	/corina/corina34_cracker 3.40 0067  02.08.2006

@<TRIPOS>MOLECULE
ASD08178165
  62   65    0    0    0
SMALL
NO_CHARGES


@<TRIPOS>ATOM
   1 C1            -0.0191     1.5027     0.0206 C.ar    
   2 C2             0.0010    -0.0042     0.0164 C.3     
   3 C3            -0.8032    -0.5283     1.2078 C.3     
   4 C4            -0.7827    -2.0582     1.2036 C.3     
   5 C5            -1.5869    -2.5823     2.3950 C.3     
   6 C6            -1.5668    -4.0891     2.3908 C.2     
   7 N7            -0.6920    -4.8431     2.9772 N.2     
   8 N8            -0.8487    -6.0899     2.8557 N.2     
   9 C9            -1.8639    -6.5050     2.1598 C.2     
  10 S10           -2.7347    -5.1430     1.5927 S.3     
  11 N11           -2.1927    -7.8348     1.9198 N.am    
  12 C12           -1.4276    -8.8207     2.4289 C.2     
  13 C13           -1.7839   -10.2617     2.1687 C.3     
  14 O14           -0.4524    -8.5481     3.0963 O.2     
  15 C15           -0.7774   -11.1577     2.8433 C.ar    
  16 C16           -0.9896   -11.5806     4.1421 C.ar    
  17 C17           -0.0663   -12.4025     4.7609 C.ar    
  18 C18            1.0690   -12.8018     4.0808 C.ar    
  19 C19            1.2808   -12.3795     2.7816 C.ar    
  20 C20            0.3553   -11.5612     2.1613 C.ar    
  21 C21            1.1728     2.2124     0.0061 C.ar    
  22 C22            1.1067     3.5974     0.0107 C.ar    
  23 C23           -0.1542     4.1903     0.0295 C.ar    
  24 N24           -1.2376     3.4283     0.0423 N.ar    
  25 N25           -1.1697     2.1466     0.0325 N.ar    
  26 N26           -0.2749     5.5795     0.0353 N.am    
  27 C27           -1.4926     6.1505    -0.0517 C.2     
  28 C28           -1.6342     7.6458     0.0713 C.3     
  29 O29           -2.4744     5.4610    -0.2290 O.2     
  30 C30           -0.9409     8.3131    -1.0884 C.ar    
  31 C31            0.3613     8.7567    -0.9528 C.ar    
  32 C32           -1.6052     8.4767    -2.2896 C.ar    
  33 C33           -0.9692     9.0889    -3.3534 C.ar    
  34 C34            0.3309     9.5379    -3.2159 C.ar    
  35 C35            0.9973     9.3689    -2.0166 C.ar    
  36 O36           -3.0198     7.9953     0.0630 O.3     
  37 H37           -0.4411    -0.3709    -0.9099 H       
  38 H38            1.0307    -0.3540     0.0910 H       
  39 H39           -0.3611    -0.1616     2.1342 H       
  40 H40           -1.8328    -0.1785     1.1332 H       
  41 H41           -1.2248    -2.4249     0.2772 H       
  42 H42            0.2469    -2.4079     1.2781 H       
  43 H43           -1.1448    -2.2155     3.3213 H       
  44 H44           -2.6166    -2.2325     2.3204 H       
  45 H45           -2.9727    -8.0528     1.3859 H       
  46 H46           -2.7777   -10.4677     2.5662 H       
  47 H47           -1.7758   -10.4498     1.0951 H       
  48 H48           -1.8765   -11.2687     4.6735 H       
  49 H49           -0.2317   -12.7324     5.7759 H       
  50 H50            1.7907   -13.4433     4.5645 H       
  51 H51            2.1679   -12.6912     2.2503 H       
  52 H52            0.5207   -11.2313     1.1463 H       
  53 H53            2.1241     1.7012    -0.0079 H       
  54 H54            2.0044     4.1978     0.0003 H       
  55 H55            0.5176     6.1349     0.1019 H       
  56 H56           -1.1813     7.9780     1.0054 H       
  57 H57            0.8817     8.6252    -0.0157 H       
  58 H58           -2.6210     8.1259    -2.3970 H       
  59 H59           -1.4880     9.2160    -4.2921 H       
  60 H60            0.8279    10.0158    -4.0471 H       
  61 H61            2.0131     9.7196    -1.9092 H       
  62 H62           -3.4877     7.7295    -0.7404 H       
@<TRIPOS>BOND
   1    1    2 1
   2    1   21 ar
   3    1   25 ar
   4    2    3 1
   5    2   37 1
   6    2   38 1
   7    3    4 1
   8    3   39 1
   9    3   40 1
  10    4    5 1
  11    4   41 1
  12    4   42 1
  13    5    6 1
  14    5   43 1
  15    5   44 1
  16    6    7 2
  17    6   10 1
  18    7    8 1
  19    8    9 2
  20    9   10 1
  21    9   11 1
  22   11   12 am
  23   11   45 1
  24   12   13 1
  25   12   14 2
  26   13   15 1
  27   13   46 1
  28   13   47 1
  29   15   16 ar
  30   15   20 ar
  31   16   17 ar
  32   16   48 1
  33   17   18 ar
  34   17   49 1
  35   18   19 ar
  36   18   50 1
  37   19   20 ar
  38   19   51 1
  39   20   52 1
  40   21   22 ar
  41   21   53 1
  42   22   23 ar
  43   22   54 1
  44   23   24 ar
  45   23   26 1
  46   24   25 ar
  47   26   27 am
  48   26   55 1
  49   27   28 1
  50   27   29 2
  51   28   30 1
  52   28   36 1
  53   28   56 1
  54   30   31 ar
  55   30   32 ar
  56   31   35 ar
  57   31   57 1
  58   32   33 ar
  59   32   58 1
  60   33   34 ar
  61   33   59 1
  62   34   35 ar
  63   34   60 1
  64   35   61 1
  65   36   62 1

#	End of record

