#	Name: ASD02038066
#	Creating user name:	WinNT
#	Creation time:	15. 06. 2019 20:16

#	Modifying user name:	WinNT
#	Modification time:	15. 06. 2019 20:16

#	Program:	/corina/corina34_cracker 3.40 0067  02.08.2006

@<TRIPOS>MOLECULE
ASD02038066
  53   55    0    0    0
SMALL
NO_CHARGES


@<TRIPOS>ATOM
   1 O1            -0.4785     1.4711    -0.1232 O.3     
   2 N2             0.8336     3.3855     0.1166 N.am    
   3 C3             0.7219     2.0426     0.0893 C.2     
   4 C4             1.1508     6.7872    -0.0108 C.3     
   5 O5             0.4703     7.6441    -0.9299 O.3     
   6 C6             0.4086     8.9649    -0.6127 C.ar    
   7 C7            -0.2372     9.8522    -1.4611 C.ar    
   8 C8             0.9865     9.4235     0.5621 C.ar    
   9 C9             0.9234    10.7646     0.8853 C.ar    
  10 C10            0.2818    11.6540     0.0340 C.ar    
  11 C11           -0.3002    11.1937    -1.1395 C.ar    
  12 O12            1.7046     1.3477     0.2564 O.2     
  13 N13            0.2169    13.0151     0.3617 N.am    
  14 C14           -0.5240     0.0199    -0.1396 C.3     
  15 C15            1.2515    13.6068     0.9910 C.2     
  16 N16            1.2295    14.9344     1.2223 N.am    
  17 O17            2.2048    12.9428     1.3501 O.2     
  18 C18            2.3541    15.5775     1.9064 C.3     
  19 C19            1.9232     4.3537     0.3121 C.3     
  20 C20            1.1171     5.3496    -0.5332 C.3     
  21 C21           -0.0793     4.5275    -0.0425 C.3     
  22 C22           -1.9388    -0.4354    -0.3887 C.ar    
  23 C23           -2.3819    -0.6373    -1.6824 C.ar    
  24 C24           -3.6795    -1.0550    -1.9115 C.ar    
  25 C25           -4.5347    -1.2710    -0.8459 C.ar    
  26 C26           -4.0906    -1.0688     0.4489 C.ar    
  27 C27           -2.7914    -0.6566     0.6770 C.ar    
  28 C28           -4.1626    -1.2746    -3.3220 C.3     
  29 Cl29          -6.1646    -1.7950    -1.1329 Cl      
  30 H30            2.1860     7.1127     0.0910 H       
  31 H31            0.6585     6.8324     0.9607 H       
  32 H32           -0.6905     9.4939    -2.3735 H       
  33 H33            1.4855     8.7314     1.2242 H       
  34 H34            1.3727    11.1214     1.8003 H       
  35 H35           -0.7994    11.8852    -1.8021 H       
  36 H36           -0.5725    13.5314     0.1355 H       
  37 H37            0.1233    -0.3549    -0.9324 H       
  38 H38           -0.1822    -0.3652     0.8211 H       
  39 H39            0.4691    15.4640     0.9358 H       
  40 H40            3.2657    15.4260     1.3283 H       
  41 H41            2.1582    16.6454     2.0026 H       
  42 H42            2.4751    15.1396     2.8972 H       
  43 H43            2.0464     4.6649     1.3494 H       
  44 H44            2.8618     4.0505    -0.1519 H       
  45 H45            1.2973     5.2741    -1.6056 H       
  46 H46           -0.8421     4.3729    -0.8056 H       
  47 H47           -0.4926     4.8832     0.9014 H       
  48 H48           -1.7142    -0.4683    -2.5143 H       
  49 H49           -4.7579    -1.2369     1.2813 H       
  50 H50           -2.4446    -0.4987     1.6876 H       
  51 H51           -3.9721    -2.3071    -3.6147 H       
  52 H52           -5.2326    -1.0734    -3.3751 H       
  53 H53           -3.6326    -0.6020    -3.9964 H       
@<TRIPOS>BOND
   1    1   14 1
   2    1    3 1
   3    2    3 am
   4    2   19 1
   5    2   21 1
   6    3   12 2
   7    4    5 1
   8    4   20 1
   9    4   30 1
  10    4   31 1
  11    5    6 1
  12    6    7 ar
  13    6    8 ar
  14    7   11 ar
  15    7   32 1
  16    8    9 ar
  17    8   33 1
  18    9   10 ar
  19    9   34 1
  20   10   11 ar
  21   10   13 1
  22   11   35 1
  23   13   15 am
  24   13   36 1
  25   14   22 1
  26   14   37 1
  27   14   38 1
  28   15   16 am
  29   15   17 2
  30   16   18 1
  31   16   39 1
  32   18   40 1
  33   18   41 1
  34   18   42 1
  35   19   20 1
  36   19   43 1
  37   19   44 1
  38   20   21 1
  39   20   45 1
  40   21   46 1
  41   21   47 1
  42   22   23 ar
  43   22   27 ar
  44   23   24 ar
  45   23   48 1
  46   24   25 ar
  47   24   28 1
  48   25   26 ar
  49   25   29 1
  50   26   27 ar
  51   26   49 1
  52   27   50 1
  53   28   51 1
  54   28   52 1
  55   28   53 1

#	End of record

