#	Name: ASD03092612
#	Creating user name:	WinNT
#	Creation time:	15. 06. 2019 20:32

#	Modifying user name:	WinNT
#	Modification time:	15. 06. 2019 20:32

#	Program:	/corina/corina34_cracker 3.40 0067  02.08.2006

@<TRIPOS>MOLECULE
ASD03092612
  35   37    0    0    0
SMALL
NO_CHARGES


@<TRIPOS>ATOM
   1 S1            -0.0191     1.5588     0.0106 S.3     
   2 N2             0.0021    -0.0041     0.0020 N.2     
   3 C3             1.2225    -0.4387    -0.0120 C.2     
   4 C4             2.2376     0.4899    -0.0167 C.2     
   5 C5             1.7376     1.7802    -0.0050 C.2     
   6 C6             2.4912     3.0435    -0.0058 C.2     
   7 O7             3.7073     3.0262    -0.0179 O.2     
   8 N8             1.8341     4.2202     0.0068 N.am    
   9 C9             2.5846     5.4783     0.0060 C.3     
  10 N10           -1.0050     9.8063     0.3374 N.pl3   
  11 C11           -1.0995     9.9288     1.6969 C.2     
  12 C12           -0.3303     9.0048     2.2941 C.2     
  13 C13            0.3089     8.2270     1.2300 C.ar    
  14 C14            1.2006     7.1526     1.2149 C.ar    
  15 C15            1.6218     6.6376     0.0216 C.ar    
  16 C16            1.1703     7.1738    -1.1767 C.ar    
  17 C17            0.2909     8.2340    -1.1849 C.ar    
  18 C18           -0.1512     8.7743     0.0186 C.ar    
  19 C19           -1.9417    10.9501     2.4171 C.3     
  20 C20            1.5209    -1.9158    -0.0223 C.3     
  21 H21            3.2891     0.2436    -0.0277 H       
  22 H22            0.8642     4.2340     0.0165 H       
  23 H23            3.2207     5.5225     0.8900 H       
  24 H24            3.2032     5.5318    -0.8899 H       
  25 H25           -1.4731    10.3612    -0.3060 H       
  26 H26           -0.2063     8.8619     3.3574 H       
  27 H27            1.5567     6.7308     2.1431 H       
  28 H28            1.5123     6.7558    -2.1120 H       
  29 H29           -0.0543     8.6445    -2.1223 H       
  30 H30           -2.9360    10.5406     2.5952 H       
  31 H31           -1.4751    11.1989     3.3703 H       
  32 H32           -2.0232    11.8495     1.8067 H       
  33 H33            1.5833    -2.2667    -1.0523 H       
  34 H34            2.4699    -2.0983     0.4819 H       
  35 H35            0.7253    -2.4508     0.4962 H       
@<TRIPOS>BOND
   1    1    2 1
   2    1    5 1
   3    2    3 2
   4    3    4 1
   5    3   20 1
   6    4    5 2
   7    4   21 1
   8    5    6 1
   9    6    7 2
  10    6    8 am
  11    8    9 1
  12    8   22 1
  13    9   15 1
  14    9   23 1
  15    9   24 1
  16   10   11 1
  17   10   18 1
  18   10   25 1
  19   11   12 2
  20   11   19 1
  21   12   13 1
  22   12   26 1
  23   13   14 ar
  24   13   18 ar
  25   14   15 ar
  26   14   27 1
  27   15   16 ar
  28   16   17 ar
  29   16   28 1
  30   17   18 ar
  31   17   29 1
  32   19   30 1
  33   19   31 1
  34   19   32 1
  35   20   33 1
  36   20   34 1
  37   20   35 1

#	End of record

