#	Name: ASD03570013
#	Creating user name:	WinNT
#	Creation time:	15. 06. 2019 20:43

#	Modifying user name:	WinNT
#	Modification time:	15. 06. 2019 20:43

#	Program:	/corina/corina34_cracker 3.40 0067  02.08.2006

@<TRIPOS>MOLECULE
ASD03570013
  38   40    0    0    0
SMALL
NO_CHARGES


@<TRIPOS>ATOM
   1 C1            -0.0169     1.3962     0.0097 C.ar    
   2 C2             0.0021    -0.0041     0.0020 C.ar    
   3 C3             1.2092    -0.6898    -0.0128 C.ar    
   4 C4             2.4044     0.0194    -0.0204 C.ar    
   5 C5             2.3768     1.4288    -0.0131 C.ar    
   6 C6             1.1467     2.1031     0.0024 C.ar    
   7 N7             3.7247    -0.3661    -0.0348 N.pl3   
   8 C8             4.5179     0.7656    -0.0365 C.2     
   9 C9             3.7214     1.8680    -0.0235 C.2     
  10 C10            4.1878     3.3010    -0.0211 C.3     
  11 C11            4.3323     3.7927    -1.4627 C.3     
  12 C12           -1.2745    -0.7588     0.0102 C.ar    
  13 C13           -2.4902    -0.0770     0.0255 C.ar    
  14 C14           -3.6750    -0.7845     0.0331 C.ar    
  15 C15           -3.6577    -2.1677     0.0260 C.ar    
  16 C16           -2.4542    -2.8497     0.0108 C.ar    
  17 C17           -1.2632    -2.1526    -0.0032 C.ar    
  18 C18            5.9863     0.7762    -0.0507 C.2     
  19 O19            6.5867     1.8335    -0.0506 O.2     
  20 O20            6.6689    -0.3867    -0.0640 O.3     
  21 C21            4.7988     5.2257    -1.4604 C.2     
  22 O22            4.9955     5.7953    -0.4131 O.2     
  23 O23            4.9957     5.8694    -2.6217 O.3     
  24 H24           -0.9617     1.9193     0.0170 H       
  25 H25            1.2195    -1.7697    -0.0180 H       
  26 H26            1.1227     3.1828     0.0081 H       
  27 H27            4.0461    -1.2813    -0.0419 H       
  28 H28            3.4589     3.9196     0.5024 H       
  29 H29            5.1513     3.3687     0.4841 H       
  30 H30            5.0613     3.1742    -1.9863 H       
  31 H31            3.3688     3.7251    -1.9680 H       
  32 H32           -2.5048     1.0029     0.0318 H       
  33 H33           -4.6175    -0.2574     0.0450 H       
  34 H34           -4.5873    -2.7174     0.0328 H       
  35 H35           -2.4467    -3.9296     0.0057 H       
  36 H36           -0.3242    -2.6860    -0.0150 H       
  37 H37            7.6342    -0.3292    -0.0730 H       
  38 H38            5.2951     6.7874    -2.5696 H       
@<TRIPOS>BOND
   1    1    2 ar
   2    1    6 ar
   3    1   24 1
   4    2    3 ar
   5    2   12 1
   6    3    4 ar
   7    3   25 1
   8    4    5 ar
   9    4    7 1
  10    5    6 ar
  11    5    9 1
  12    6   26 1
  13    7    8 1
  14    7   27 1
  15    8    9 2
  16    8   18 1
  17    9   10 1
  18   10   11 1
  19   10   28 1
  20   10   29 1
  21   11   21 1
  22   11   30 1
  23   11   31 1
  24   12   13 ar
  25   12   17 ar
  26   13   14 ar
  27   13   32 1
  28   14   15 ar
  29   14   33 1
  30   15   16 ar
  31   15   34 1
  32   16   17 ar
  33   16   35 1
  34   17   36 1
  35   18   19 2
  36   18   20 1
  37   20   37 1
  38   21   22 2
  39   21   23 1
  40   23   38 1

#	End of record

