#	Name: ASD01881926
#	Creating user name:	WinNT
#	Creation time:	15. 06. 2019 19:43

#	Modifying user name:	WinNT
#	Modification time:	15. 06. 2019 19:43

#	Program:	/corina/corina34_cracker 3.40 0067  02.08.2006

@<TRIPOS>MOLECULE
ASD01881926
  51   54    0    0    0
SMALL
NO_CHARGES


@<TRIPOS>ATOM
   1 N1             0.4494     0.1624     0.9362 N.pl3   
   2 N2             0.6781    -1.1006     1.0457 N.2     
   3 N3             1.9334    -1.3678     0.9551 N.2     
   4 C4             2.6196    -0.2218     0.7713 C.ar    
   5 C5             1.6526     0.8013     0.7563 C.ar    
   6 C6             3.9692     0.1029     0.6107 C.ar    
   7 C7             4.3345     1.4236     0.4395 C.ar    
   8 C8             3.3682     2.4267     0.4265 C.ar    
   9 C9             2.0447     2.1221     0.5818 C.ar    
  10 O10            5.6461     1.7469     0.2830 O.3     
  11 C11            5.9569     3.1309     0.1104 C.3     
  12 C12            7.4694     3.2979    -0.0487 C.3     
  13 N13            7.9159     2.5901    -1.2560 N.3     
  14 C14            9.3497     2.8055    -1.4926 C.3     
  15 C15            9.8133     1.9116    -2.6477 C.3     
  16 N16            8.9468     2.1623    -3.8093 N.am    
  17 C17            7.4899     2.0997    -3.6172 C.3     
  18 C18            7.1178     2.9862    -2.4239 C.3     
  19 S19            9.5942     2.5066    -5.2941 S.o2    
  20 O20            8.5848     3.2616    -5.9501 O.2     
  21 O21           10.8616     3.0779    -4.9999 O.2     
  22 C22            9.7944     0.8874    -6.0871 C.3     
  23 C23           -0.8659     0.8054     0.9880 C.3     
  24 C24           -1.1953     1.1770     2.4351 C.3     
  25 C25           -2.4809     1.9675     2.6864 C.3     
  26 C26           -2.4000     0.4922     3.0837 C.3     
  27 Br27           5.2849    -1.2553     0.6282 Br      
  28 H28            3.6677     3.4556     0.2921 H       
  29 H29            1.3044     2.9083     0.5698 H       
  30 H30            5.4541     3.5079    -0.7802 H       
  31 H31            5.6193     3.6907     0.9826 H       
  32 H32            7.7106     4.3571    -0.1384 H       
  33 H33            7.9745     2.8829     0.8235 H       
  34 H34            9.5230     3.8506    -1.7492 H       
  35 H35            9.9088     2.5544    -0.5913 H       
  36 H36           10.8460     2.1495    -2.9030 H       
  37 H37            9.7378     0.8648    -2.3536 H       
  38 H38            6.9865     2.4619    -4.5135 H       
  39 H39            7.1910     1.0709    -3.4163 H       
  40 H40            6.0582     2.8660    -2.1980 H       
  41 H41            7.3222     4.0287    -2.6676 H       
  42 H42            8.8226     0.4007    -6.1698 H       
  43 H43           10.2202     1.0201    -7.0817 H       
  44 H44           10.4608     0.2685    -5.4862 H       
  45 H45           -0.8541     1.7067     0.3751 H       
  46 H46           -1.6217     0.1178     0.6084 H       
  47 H47           -0.3375     1.3957     3.0712 H       
  48 H48           -2.4691     2.7060     3.4881 H       
  49 H49           -3.0921     2.2228     1.8207 H       
  50 H50           -2.9579    -0.2231     2.4794 H       
  51 H51           -2.3349     0.2601     4.1467 H       
@<TRIPOS>BOND
   1    1    2 1
   2    1    5 1
   3    1   23 1
   4    2    3 2
   5    3    4 1
   6    4    5 ar
   7    4    6 ar
   8    5    9 ar
   9    6    7 ar
  10    6   27 1
  11    7    8 ar
  12    7   10 1
  13    8    9 ar
  14    8   28 1
  15    9   29 1
  16   10   11 1
  17   11   12 1
  18   11   30 1
  19   11   31 1
  20   12   13 1
  21   12   32 1
  22   12   33 1
  23   13   14 1
  24   13   18 1
  25   14   15 1
  26   14   34 1
  27   14   35 1
  28   15   16 1
  29   15   36 1
  30   15   37 1
  31   16   17 1
  32   16   19 am
  33   17   18 1
  34   17   38 1
  35   17   39 1
  36   18   40 1
  37   18   41 1
  38   19   20 2
  39   19   21 2
  40   19   22 1
  41   22   42 1
  42   22   43 1
  43   22   44 1
  44   23   24 1
  45   23   45 1
  46   23   46 1
  47   24   25 1
  48   24   26 1
  49   24   47 1
  50   25   26 1
  51   25   48 1
  52   25   49 1
  53   26   50 1
  54   26   51 1

#	End of record

