#	Name: ASD01917214
#	Creating user name:	WinNT
#	Creation time:	15. 06. 2019 20:08

#	Modifying user name:	WinNT
#	Modification time:	15. 06. 2019 20:08

#	Program:	/corina/corina34_cracker 3.40 0067  02.08.2006

@<TRIPOS>MOLECULE
ASD01917214
  31   33    0    0    0
SMALL
NO_CHARGES


@<TRIPOS>ATOM
   1 C1            -0.0179     1.4687     0.0101 C.2     
   2 C2             0.0021    -0.0041     0.0020 C.2     
   3 N3             1.1556     2.1904     0.0028 N.pl3   
   4 N4             1.1957    -0.5891     0.2671 N.am    
   5 C5             2.3540     0.1834     0.6992 C.3     
   6 C6             2.4625     1.5323    -0.0110 C.3     
   7 N7             0.8213     3.5381     0.0116 N.2     
   8 C8            -0.4913     3.6460     0.0247 C.2     
   9 C9            -1.0494     2.3600     0.0192 C.2     
  10 O10           -0.9967    -0.6586    -0.2292 O.2     
  11 O11           -1.1901     4.8127     0.0373 O.3     
  12 C12           -0.4312     6.0235     0.0357 C.3     
  13 C13           -1.3682     7.2037     0.0507 C.ar    
  14 C14           -1.7861     7.7392     1.2547 C.ar    
  15 C15           -2.6457     8.8217     1.2685 C.ar    
  16 C16           -3.0870     9.3690     0.0783 C.ar    
  17 C17           -2.6684     8.8342    -1.1257 C.ar    
  18 C18           -1.8054     7.7544    -1.1395 C.ar    
  19 H19            1.2816    -1.5501     0.1667 H       
  20 H20            2.2810     0.3562     1.7729 H       
  21 H21            3.2566    -0.3937     0.4983 H       
  22 H22            2.7806     1.3760    -1.0418 H       
  23 H23            3.1908     2.1581     0.5048 H       
  24 H24           -2.1023     2.1196     0.0228 H       
  25 H25            0.2059     6.0542     0.9196 H       
  26 H26            0.1883     6.0629    -0.8603 H       
  27 H27           -1.4414     7.3115     2.1846 H       
  28 H28           -2.9727     9.2396     2.2091 H       
  29 H29           -3.7591    10.2144     0.0891 H       
  30 H30           -3.0134     9.2616    -2.0555 H       
  31 H31           -1.4754     7.3388    -2.0801 H       
@<TRIPOS>BOND
   1    1    2 1
   2    1    3 1
   3    1    9 2
   4    2    4 am
   5    2   10 2
   6    3    6 1
   7    3    7 1
   8    4    5 1
   9    4   19 1
  10    5    6 1
  11    5   20 1
  12    5   21 1
  13    6   22 1
  14    6   23 1
  15    7    8 2
  16    8    9 1
  17    8   11 1
  18    9   24 1
  19   11   12 1
  20   12   13 1
  21   12   25 1
  22   12   26 1
  23   13   14 ar
  24   13   18 ar
  25   14   15 ar
  26   14   27 1
  27   15   16 ar
  28   15   28 1
  29   16   17 ar
  30   16   29 1
  31   17   18 ar
  32   17   30 1
  33   18   31 1

#	End of record

