#	Name: ASD04170038
#	Creating user name:	WinNT
#	Creation time:	15. 06. 2019 20:48

#	Modifying user name:	WinNT
#	Modification time:	15. 06. 2019 20:48

#	Program:	/corina/corina34_cracker 3.40 0067  02.08.2006

@<TRIPOS>MOLECULE
ASD04170038
  35   37    0    0    0
SMALL
NO_CHARGES


@<TRIPOS>ATOM
   1 O1             0.0063     0.0481    -0.4099 O.2     
   2 C2            -0.0165     1.2461    -0.2036 C.2     
   3 N3             1.1319     1.9515    -0.2019 N.am    
   4 C4             1.1663     3.4074     0.0423 C.3     
   5 N5             2.5741     3.8292    -0.0313 N.4     
   6 C6             3.1174     3.5451    -1.3620 C.3     
   7 C7             3.0732     2.0437    -1.6519 C.3     
   8 C8             2.4514     1.3212    -0.4389 C.3     
   9 C9             3.3279     1.6297     0.7863 C.3     
  10 C10            3.3610     3.1437     0.9972 C.3     
  11 N11           -1.1906     1.8696     0.0179 N.am    
  12 C12           -2.3916     1.1579    -0.0860 C.ar    
  13 C13           -2.4494    -0.1709     0.3131 C.ar    
  14 C14           -3.6355    -0.8707     0.2095 C.ar    
  15 C15           -4.7655    -0.2491    -0.2913 C.ar    
  16 C16           -4.7107     1.0748    -0.6897 C.ar    
  17 C17           -3.5286     1.7810    -0.5829 C.ar    
  18 Br18          -6.3876    -1.2107    -0.4322 Br      
  19 H19            0.5835     3.9252    -0.7195 H       
  20 H20            0.7643     3.6272     1.0314 H       
  21 H21            2.6269     4.8225     0.1381 H       
  22 H22            2.5278     4.0733    -2.1113 H       
  23 H23            4.1503     3.8901    -1.4097 H       
  24 H24            2.4669     1.8608    -2.5391 H       
  25 H25            4.0852     1.6736    -1.8164 H       
  26 H26            2.3578     0.2496    -0.6151 H       
  27 H27            2.9059     1.1471     1.6679 H       
  28 H28            4.3388     1.2602     0.6143 H       
  29 H29            4.3928     3.4913     0.9457 H       
  30 H30            2.9518     3.3787     1.9798 H       
  31 H31           -1.2035     2.8115     0.2492 H       
  32 H32           -1.5675    -0.6567     0.7038 H       
  33 H33           -3.6809    -1.9043     0.5195 H       
  34 H34           -5.5943     1.5577    -1.0803 H       
  35 H35           -3.4864     2.8144    -0.8941 H       
@<TRIPOS>BOND
   1    1    2 2
   2    2    3 am
   3    2   11 am
   4    3    4 1
   5    3    8 1
   6    4    5 1
   7    4   19 1
   8    4   20 1
   9    5    6 1
  10    5   10 1
  11    5   21 1
  12    6    7 1
  13    6   22 1
  14    6   23 1
  15    7    8 1
  16    7   24 1
  17    7   25 1
  18    8    9 1
  19    8   26 1
  20    9   10 1
  21    9   27 1
  22    9   28 1
  23   10   29 1
  24   10   30 1
  25   11   12 1
  26   11   31 1
  27   12   13 ar
  28   12   17 ar
  29   13   14 ar
  30   13   32 1
  31   14   15 ar
  32   14   33 1
  33   15   16 ar
  34   15   18 1
  35   16   17 ar
  36   16   34 1
  37   17   35 1

#	End of record

