#	Name: ASD05503068
#	Creating user name:	WinNT
#	Creation time:	15. 06. 2019 21:01

#	Modifying user name:	WinNT
#	Modification time:	15. 06. 2019 21:01

#	Program:	/corina/corina34_cracker 3.40 0067  02.08.2006

@<TRIPOS>MOLECULE
ASD05503068
  42   43    0    0    0
SMALL
NO_CHARGES


@<TRIPOS>ATOM
   1 C1            -0.1215     1.3040    -0.0174 C.ar    
   2 C2            -0.0707    -0.0662     0.2051 C.ar    
   3 C3             1.1492    -0.7270     0.1794 C.ar    
   4 C4             2.3147    -0.0163    -0.0686 C.ar    
   5 C5             2.2570     1.3543    -0.2904 C.ar    
   6 C6             1.0411     2.0091    -0.2641 C.ar    
   7 N7             3.5462    -0.6785    -0.0949 N.am    
   8 C8             3.6289    -1.9281    -0.5930 C.2     
   9 C9             4.9446    -2.5895    -0.7141 C.ar    
  10 C10            6.1040    -1.9232    -0.3136 C.ar    
  11 C11            7.3292    -2.5464    -0.4293 C.ar    
  12 C12            7.4113    -3.8292    -0.9415 C.ar    
  13 C13            6.2671    -4.4961    -1.3410 C.ar    
  14 C14            5.0335    -3.8870    -1.2246 C.ar    
  15 Br15           3.4702    -4.7999    -1.7712 Br      
  16 N16           -1.2483    -0.7792     0.4554 N.am    
  17 C17           -2.2440    -0.2090     1.1623 C.2     
  18 C18           -3.4685    -1.0109     1.5210 C.3     
  19 C19           -4.4368    -0.1344     2.3178 C.3     
  20 C20           -4.9440     1.0033     1.4294 C.3     
  21 O21            2.6210    -2.5110    -0.9426 O.2     
  22 O22           -2.1546     0.9496     1.5099 O.2     
  23 C23           -5.6214    -0.9807     2.7886 C.3     
  24 H24           -1.0712     1.8181    -0.0019 H       
  25 H25            1.1914    -1.7922     0.3524 H       
  26 H26            3.1639     1.9082    -0.4832 H       
  27 H27            0.9988     3.0743    -0.4367 H       
  28 H28            4.3409    -0.2384     0.2453 H       
  29 H29            6.0419    -0.9216     0.0858 H       
  30 H30            8.2267    -2.0316    -0.1197 H       
  31 H31            8.3733    -4.3120    -1.0301 H       
  32 H32            6.3384    -5.4971    -1.7402 H       
  33 H33           -1.3480    -1.6839     0.1200 H       
  34 H34           -3.9568    -1.3558     0.6095 H       
  35 H35           -3.1761    -1.8704     2.1241 H       
  36 H36           -3.9215     0.2825     3.1832 H       
  37 H37           -5.4593     0.5865     0.5641 H       
  38 H38           -5.6338     1.6278     1.9971 H       
  39 H39           -4.1001     1.6062     1.0941 H       
  40 H40           -5.2601    -1.7912     3.4215 H       
  41 H41           -6.3112    -0.3562     3.3563 H       
  42 H42           -6.1367    -1.3975     1.9233 H       
@<TRIPOS>BOND
   1    1    2 ar
   2    1    6 ar
   3    1   24 1
   4    2    3 ar
   5    2   16 1
   6    3    4 ar
   7    3   25 1
   8    4    5 ar
   9    4    7 1
  10    5    6 ar
  11    5   26 1
  12    6   27 1
  13    7    8 am
  14    7   28 1
  15    8    9 1
  16    8   21 2
  17    9   10 ar
  18    9   14 ar
  19   10   11 ar
  20   10   29 1
  21   11   12 ar
  22   11   30 1
  23   12   13 ar
  24   12   31 1
  25   13   14 ar
  26   13   32 1
  27   14   15 1
  28   16   17 am
  29   16   33 1
  30   17   18 1
  31   17   22 2
  32   18   19 1
  33   18   34 1
  34   18   35 1
  35   19   20 1
  36   19   23 1
  37   19   36 1
  38   20   37 1
  39   20   38 1
  40   20   39 1
  41   23   40 1
  42   23   41 1
  43   23   42 1

#	End of record

