#	Name: ASD05313143
#	Creating user name:	WinNT
#	Creation time:	15. 06. 2019 20:58

#	Modifying user name:	WinNT
#	Modification time:	15. 06. 2019 20:58

#	Program:	/corina/corina34_cracker 3.40 0067  02.08.2006

@<TRIPOS>MOLECULE
ASD05313143
  43   46    0    0    0
SMALL
NO_CHARGES


@<TRIPOS>ATOM
   1 C1            -0.3801     0.2318     2.8369 C.ar    
   2 C2            -0.5542    -0.4483     1.6254 C.ar    
   3 C3             0.3841    -0.2922     0.6053 C.ar    
   4 C4             1.4762     0.5296     0.7948 C.ar    
   5 C5             1.6450     1.1997     1.9937 C.ar    
   6 C6             0.7216     1.0532     3.0117 C.ar    
   7 O7            -1.2908     0.0911     3.8346 O.3     
   8 C8            -3.0166    -3.0070     0.9291 C.2     
   9 C9            -3.4616    -4.3671     0.4477 C.3     
  10 N10           -1.7185    -2.5876     0.9134 N.pl3   
  11 N11           -2.3106    -4.9746    -0.2470 N.am    
  12 C12           -0.9823    -4.8510     0.3719 C.3     
  13 C13           -0.5848    -3.3709     0.4261 C.3     
  14 N14           -2.9797    -1.0440     1.7207 N.2     
  15 N15           -3.7348    -2.0448     1.4217 N.2     
  16 C16           -1.7262    -1.3277     1.4287 C.2     
  17 C17           -2.4721    -5.6251    -1.4163 C.2     
  18 O18           -1.5015    -6.0332    -2.0238 O.2     
  19 C19           -3.8290    -5.8424    -1.9597 C.ar    
  20 C20           -4.0891    -5.6086    -3.3125 C.ar    
  21 C21           -5.3599    -5.8140    -3.8129 C.ar    
  22 C22           -6.3729    -6.2493    -2.9780 C.ar    
  23 C23           -6.1215    -6.4821    -1.6373 C.ar    
  24 C24           -4.8555    -6.2877    -1.1251 C.ar    
  25 C25           -5.6434    -5.5627    -5.2715 C.3     
  26 F26           -6.9886    -5.8378    -5.5393 F       
  27 F27           -5.3716    -4.2244    -5.5756 F       
  28 F28           -4.8330    -6.3925    -6.0538 F       
  29 Cl29          -2.8186    -5.0611    -4.3612 Cl      
  30 H30            0.2561    -0.8141    -0.3315 H       
  31 H31            2.2023     0.6499     0.0044 H       
  32 H32            2.5028     1.8406     2.1347 H       
  33 H33            0.8592     1.5797     3.9446 H       
  34 H34           -1.0985    -0.6355     4.4430 H       
  35 H35           -3.7525    -4.9856     1.2968 H       
  36 H36           -4.2993    -4.2621    -0.2417 H       
  37 H37           -1.0127    -5.2570     1.3830 H       
  38 H38           -0.2521    -5.4024    -0.2205 H       
  39 H39           -0.3092    -3.0307    -0.5721 H       
  40 H40            0.2617    -3.2456     1.1013 H       
  41 H41           -7.3650    -6.4081    -3.3742 H       
  42 H42           -6.9176    -6.8213    -0.9911 H       
  43 H43           -4.6601    -6.4749    -0.0796 H       
@<TRIPOS>BOND
   1    1    2 ar
   2    1    6 ar
   3    1    7 1
   4    2    3 ar
   5    2   16 1
   6    3    4 ar
   7    3   30 1
   8    4    5 ar
   9    4   31 1
  10    5    6 ar
  11    5   32 1
  12    6   33 1
  13    7   34 1
  14    8    9 1
  15    8   10 1
  16    8   15 2
  17    9   11 1
  18    9   35 1
  19    9   36 1
  20   10   13 1
  21   10   16 1
  22   11   12 1
  23   11   17 am
  24   12   13 1
  25   12   37 1
  26   12   38 1
  27   13   39 1
  28   13   40 1
  29   14   15 1
  30   14   16 2
  31   17   18 2
  32   17   19 1
  33   19   20 ar
  34   19   24 ar
  35   20   21 ar
  36   20   29 1
  37   21   22 ar
  38   21   25 1
  39   22   23 ar
  40   22   41 1
  41   23   24 ar
  42   23   42 1
  43   24   43 1
  44   25   26 1
  45   25   27 1
  46   25   28 1

#	End of record

