#	Name: ASD01148725
#	Creating user name:	WinNT
#	Creation time:	15. 06. 2019 19:03

#	Modifying user name:	WinNT
#	Modification time:	15. 06. 2019 19:03

#	Program:	/corina/corina34_cracker 3.40 0067  02.08.2006

@<TRIPOS>MOLECULE
ASD01148725
  62   65    0    0    0
SMALL
NO_CHARGES


@<TRIPOS>ATOM
   1 N1            -0.0159     1.3408     0.0806 N.pl3   
   2 C2             0.0025     0.0050    -0.1115 C.2     
   3 C3             1.3183    -0.4070    -0.1550 C.2     
   4 C4             2.1213     0.7502     0.0213 C.2     
   5 C5             1.2767     1.8043     0.1629 C.2     
   6 C6             1.7983    -1.7847    -0.3471 C.2     
   7 O7             1.0016    -2.6919    -0.4869 O.2     
   8 O8             3.1215    -2.0406    -0.3681 O.3     
   9 C9            -1.2064    -0.8835    -0.2535 C.3     
  10 C10            2.4319     5.8515     0.7566 C.ar    
  11 C11            3.3318     4.9447     0.1962 C.ar    
  12 C12            2.9586     3.6336     0.0037 C.ar    
  13 C13            1.6785     3.2114     0.3696 C.ar    
  14 C14            0.7781     4.1200     0.9305 C.ar    
  15 C15            1.1531     5.4308     1.1223 C.ar    
  16 C16            2.8367     7.2620     0.9686 C.ar    
  17 C17            1.9387     8.1699     1.5285 C.ar    
  18 C18            2.3182     9.4810     1.7244 C.ar    
  19 C19            3.5930     9.8974     1.3647 C.ar    
  20 C20            4.4895     8.9958     0.8070 C.ar    
  21 C21            4.1180     7.6820     0.6138 C.ar    
  22 O22            3.9637    11.1901     1.5586 O.3     
  23 C23            5.2896    11.5506     1.1660 C.3     
  24 C24           -1.1689     2.1313     0.1752 C.ar    
  25 C25           -2.0122     2.0032     1.2711 C.ar    
  26 C26           -3.1476     2.7840     1.3617 C.ar    
  27 C27           -3.4454     3.6925     0.3623 C.ar    
  28 C28           -2.6078     3.8222    -0.7299 C.ar    
  29 C29           -1.4675     3.0481    -0.8235 C.ar    
  30 S30           -4.2183     2.6224     2.7518 S.o2    
  31 O31           -5.4876     3.0377     2.2666 O.2     
  32 O32           -4.0064     1.2921     3.2044 O.2     
  33 C33           -3.5766     3.8152     3.9585 C.3     
  34 C34            3.5227    -3.4225    -0.5618 C.3     
  35 C35            5.0498    -3.5157    -0.5570 C.3     
  36 H36            3.2005     0.7856     0.0397 H       
  37 H37           -1.4860    -0.9513    -1.3049 H       
  38 H38           -0.9725    -1.8785     0.1251 H       
  39 H39           -2.0351    -0.4634     0.3164 H       
  40 H40            4.3216     5.2714    -0.0867 H       
  41 H41            3.6552     2.9318    -0.4307 H       
  42 H42           -0.2118     3.7943     1.2141 H       
  43 H43            0.4570     6.1334     1.5560 H       
  44 H44            0.9469     7.8467     1.8082 H       
  45 H45            1.6231    10.1848     2.1577 H       
  46 H46            5.4802     9.3229     0.5279 H       
  47 H47            4.8173     6.9801     0.1840 H       
  48 H48            6.0093    10.9525     1.7249 H       
  49 H49            5.4152    11.3668     0.0990 H       
  50 H50            5.4556    12.6075     1.3746 H       
  51 H51           -1.7805     1.2935     2.0515 H       
  52 H52           -4.3344     4.3015     0.4351 H       
  53 H53           -2.8432     4.5322    -1.5090 H       
  54 H54           -0.8113     3.1530    -1.6748 H       
  55 H55           -3.6117     4.8178     3.5323 H       
  56 H56           -4.1866     3.7826     4.8612 H       
  57 H57           -2.5460     3.5619     4.2070 H       
  58 H58            3.1187    -4.0346     0.2446 H       
  59 H59            3.1398    -3.7815    -1.5171 H       
  60 H60            5.3510    -4.5531    -0.7024 H       
  61 H61            5.4537    -2.9037    -1.3634 H       
  62 H62            5.4327    -3.1567     0.3983 H       
@<TRIPOS>BOND
   1    1    2 1
   2    1    5 1
   3    1   24 1
   4    2    3 2
   5    2    9 1
   6    3    4 1
   7    3    6 1
   8    4    5 2
   9    4   36 1
  10    5   13 1
  11    6    7 2
  12    6    8 1
  13    8   34 1
  14    9   37 1
  15    9   38 1
  16    9   39 1
  17   10   11 ar
  18   10   15 ar
  19   10   16 1
  20   11   12 ar
  21   11   40 1
  22   12   13 ar
  23   12   41 1
  24   13   14 ar
  25   14   15 ar
  26   14   42 1
  27   15   43 1
  28   16   17 ar
  29   16   21 ar
  30   17   18 ar
  31   17   44 1
  32   18   19 ar
  33   18   45 1
  34   19   20 ar
  35   19   22 1
  36   20   21 ar
  37   20   46 1
  38   21   47 1
  39   22   23 1
  40   23   48 1
  41   23   49 1
  42   23   50 1
  43   24   25 ar
  44   24   29 ar
  45   25   26 ar
  46   25   51 1
  47   26   27 ar
  48   26   30 1
  49   27   28 ar
  50   27   52 1
  51   28   29 ar
  52   28   53 1
  53   29   54 1
  54   30   31 2
  55   30   32 2
  56   30   33 1
  57   33   55 1
  58   33   56 1
  59   33   57 1
  60   34   35 1
  61   34   58 1
  62   34   59 1
  63   35   60 1
  64   35   61 1
  65   35   62 1

#	End of record

