#	Name: ASD08150650
#	Creating user name:	WinNT
#	Creation time:	15. 06. 2019 21:16

#	Modifying user name:	WinNT
#	Modification time:	15. 06. 2019 21:16

#	Program:	/corina/corina34_cracker 3.40 0067  02.08.2006

@<TRIPOS>MOLECULE
ASD08150650
  65   69    0    0    0
SMALL
NO_CHARGES


@<TRIPOS>ATOM
   1 N1             0.6791     0.3876     1.2991 N.am    
   2 C2             1.9059     1.1912     1.1874 C.3     
   3 C3             2.8856     0.4582     0.2648 C.3     
   4 N4             2.2212     0.1585    -1.0106 N.3     
   5 C5             1.0840    -0.7513    -0.8181 C.3     
   6 C6             0.0305    -0.0679     0.0601 C.3     
   7 C7             0.1661     0.0723     2.5048 C.2     
   8 O8             0.7180     0.4528     3.5183 O.2     
   9 O9            -0.9579    -0.6644     2.5864 O.3     
  10 C10            3.1290    -0.3631    -1.9382 C.ar    
  11 C11            3.4210     0.3441    -3.0976 C.ar    
  12 C12            4.3172    -0.1706    -4.0127 C.ar    
  13 C13            4.9269    -1.3953    -3.7743 C.ar    
  14 C14            4.6352    -2.1023    -2.6157 C.ar    
  15 C15            3.7428    -1.5854    -1.6976 C.ar    
  16 C16            2.7590     1.6730    -3.3566 C.3     
  17 F17            3.2901     2.2395    -4.5203 F       
  18 F18            1.3819     1.4847    -3.5160 F       
  19 F19            2.9906     2.5282    -2.2740 F       
  20 N20            9.5413    -0.1583    -5.3339 N.ar    
  21 C21            9.0623    -1.0270    -6.1957 C.ar    
  22 C22            7.8268    -1.6270    -6.0070 C.ar    
  23 C23            7.0723    -1.3123    -4.8895 C.ar    
  24 C24            7.5946    -0.3790    -3.9706 C.ar    
  25 C25            6.8927    -0.0084    -2.8161 C.ar    
  26 C26            7.4388     0.8980    -1.9559 C.ar    
  27 C27            8.6877     1.4609    -2.2116 C.ar    
  28 C28            9.3955     1.1225    -3.3240 C.ar    
  29 C29            8.8653     0.1918    -4.2334 C.ar    
  30 O30            6.3972    -3.5420    -6.2956 O.3     
  31 C31            5.5177    -3.0138    -5.4247 C.2     
  32 N32            5.8372    -1.9183    -4.7045 N.am    
  33 C33            7.2771    -2.6207    -6.9979 C.3     
  34 O34            4.4257    -3.5281    -5.2856 O.2     
  35 Cl35           6.5678     1.3564    -0.5259 Cl      
  36 C36           -1.4534    -0.9659     3.9175 C.3     
  37 C37           -1.7626     0.3389     4.6543 C.3     
  38 C38           -2.7282    -1.8049     3.8093 C.3     
  39 C39           -0.3913    -1.7493     4.6917 C.3     
  40 H40            1.6669     2.1676     0.7661 H       
  41 H41            2.3539     1.3144     2.1734 H       
  42 H42            3.7551     1.0897     0.0824 H       
  43 H43            3.2034    -0.4715     0.7368 H       
  44 H44            0.6469    -0.9970    -1.7859 H       
  45 H45            1.4269    -1.6642    -0.3311 H       
  46 H46           -0.7615    -0.7772     0.3008 H       
  47 H47           -0.3888     0.7875    -0.4695 H       
  48 H48            4.5440     0.3791    -4.9143 H       
  49 H49            5.1095    -3.0547    -2.4306 H       
  50 H50            3.5191    -2.1335    -0.7943 H       
  51 H51            9.6439    -1.2792    -7.0700 H       
  52 H52            5.9238    -0.4380    -2.6086 H       
  53 H53            9.1003     2.1771    -1.5164 H       
  54 H54           10.3618     1.5685    -3.5074 H       
  55 H55            6.7150    -2.0947    -7.7696 H       
  56 H56            8.0977    -3.1746    -7.4537 H       
  57 H57           -2.5192     0.8970     4.1028 H       
  58 H58           -2.1345     0.1126     5.6536 H       
  59 H59           -0.8544     0.9367     4.7314 H       
  60 H60           -2.5079    -2.7345     3.2845 H       
  61 H61           -3.1001    -2.0313     4.8086 H       
  62 H62           -3.4848    -1.2468     3.2579 H       
  63 H63            0.5169    -1.1515     4.7687 H       
  64 H64           -0.7632    -1.9756     5.6909 H       
  65 H65           -0.1710    -2.6789     4.1668 H       
@<TRIPOS>BOND
   1    1    2 1
   2    1    6 1
   3    1    7 am
   4    2    3 1
   5    2   40 1
   6    2   41 1
   7    3    4 1
   8    3   42 1
   9    3   43 1
  10    4    5 1
  11    4   10 1
  12    5    6 1
  13    5   44 1
  14    5   45 1
  15    6   46 1
  16    6   47 1
  17    7    8 2
  18    7    9 1
  19    9   36 1
  20   10   11 ar
  21   10   15 ar
  22   11   12 ar
  23   11   16 1
  24   12   13 ar
  25   12   48 1
  26   13   14 ar
  27   13   32 1
  28   14   15 ar
  29   14   49 1
  30   15   50 1
  31   16   17 1
  32   16   18 1
  33   16   19 1
  34   20   21 ar
  35   20   29 ar
  36   21   22 ar
  37   21   51 1
  38   22   23 ar
  39   22   33 1
  40   23   24 ar
  41   23   32 1
  42   24   25 ar
  43   24   29 ar
  44   25   26 ar
  45   25   52 1
  46   26   27 ar
  47   26   35 1
  48   27   28 ar
  49   27   53 1
  50   28   29 ar
  51   28   54 1
  52   30   31 1
  53   30   33 1
  54   31   32 am
  55   31   34 2
  56   33   55 1
  57   33   56 1
  58   36   37 1
  59   36   39 1
  60   36   38 1
  61   37   57 1
  62   37   58 1
  63   37   59 1
  64   38   60 1
  65   38   61 1
  66   38   62 1
  67   39   63 1
  68   39   64 1
  69   39   65 1

#	End of record

