#	Name: ASD04660027
#	Creating user name:	WinNT
#	Creation time:	15. 06. 2019 20:52

#	Modifying user name:	WinNT
#	Modification time:	15. 06. 2019 20:52

#	Program:	/corina/corina34_cracker 3.40 0067  02.08.2006

@<TRIPOS>MOLECULE
ASD04660027
  45   48    0    0    0
SMALL
NO_CHARGES


@<TRIPOS>ATOM
   1 N1            -0.0164     1.3551     0.0095 N.am    
   2 C2             0.0021    -0.0041     0.0020 C.2     
   3 C3             1.4040    -0.4384    -0.0137 C.ar    
   4 C4             2.1357     0.7586    -0.0146 C.ar    
   5 C5             3.5293     0.8281    -0.0273 C.ar    
   6 C6             4.1044     2.1096    -0.0257 C.ar    
   7 C7             3.2747     3.1978    -0.0118 C.ar    
   8 C8             1.8839     3.0987     0.0011 C.ar    
   9 C9             1.2797     1.8551    -0.0002 C.ar    
  10 C10            4.2330    -0.3884    -0.0401 C.ar    
  11 C11            3.5275    -1.5620    -0.0392 C.ar    
  12 C12            2.1340    -1.6138    -0.0265 C.ar    
  13 O13           -0.9725    -0.7327     0.0074 O.2     
  14 S14            5.8548     2.3114    -0.0407 S.o2    
  15 O15            6.2922     1.4977    -1.1204 O.2     
  16 O16            6.0450     3.7195    -0.0607 O.2     
  17 C17            6.4040     1.6173     1.5427 C.3     
  18 C18            7.9257     1.7351     1.6507 C.3     
  19 C19            8.3889     1.1496     2.9862 C.3     
  20 O20            8.1155    -0.2527     3.0120 O.3     
  21 C21            9.8702     1.3756     3.1470 C.ar    
  22 C22           10.3293     2.4164     3.9324 C.ar    
  23 C23           11.6881     2.6237     4.0798 C.ar    
  24 C24           12.5877     1.7901     3.4421 C.ar    
  25 C25           12.1285     0.7488     2.6574 C.ar    
  26 C26           10.7698     0.5388     2.5135 C.ar    
  27 N27           14.0426     2.0127     3.5992 N.pl3   
  28 O28           14.4471     2.9304     4.2903 O.2     
  29 O29           14.8352     1.2781     3.0373 O.2     
  30 H30           -0.8199     1.8984     0.0164 H       
  31 H31            3.7191     4.1821    -0.0105 H       
  32 H32            1.2788     3.9932     0.0128 H       
  33 H33            5.3129    -0.3975    -0.0508 H       
  34 H34            4.0766    -2.4919    -0.0488 H       
  35 H35            1.6267    -2.5673    -0.0260 H       
  36 H36            5.9381     2.1661     2.3611 H       
  37 H37            6.1160     0.5676     1.5987 H       
  38 H38            8.3916     1.1863     0.8323 H       
  39 H39            8.2137     2.7848     1.5947 H       
  40 H40            7.8562     1.6387     3.8017 H       
  41 H41            8.5580    -0.7527     2.3125 H       
  42 H42            9.6265     3.0677     4.4306 H       
  43 H43           12.0468     3.4373     4.6929 H       
  44 H44           12.8314     0.0977     2.1589 H       
  45 H45           10.4111    -0.2770     1.9034 H       
@<TRIPOS>BOND
   1    1    2 am
   2    1    9 1
   3    1   30 1
   4    2    3 1
   5    2   13 2
   6    3    4 ar
   7    3   12 ar
   8    4    5 ar
   9    4    9 ar
  10    5    6 ar
  11    5   10 ar
  12    6    7 ar
  13    6   14 1
  14    7    8 ar
  15    7   31 1
  16    8    9 ar
  17    8   32 1
  18   10   11 ar
  19   10   33 1
  20   11   12 ar
  21   11   34 1
  22   12   35 1
  23   14   15 2
  24   14   16 2
  25   14   17 1
  26   17   18 1
  27   17   36 1
  28   17   37 1
  29   18   19 1
  30   18   38 1
  31   18   39 1
  32   19   20 1
  33   19   21 1
  34   19   40 1
  35   20   41 1
  36   21   22 ar
  37   21   26 ar
  38   22   23 ar
  39   22   42 1
  40   23   24 ar
  41   23   43 1
  42   24   25 ar
  43   24   27 1
  44   25   26 ar
  45   25   44 1
  46   26   45 1
  47   27   28 2
  48   27   29 2

#	End of record

