#	Name: ASD02500142
#	Creating user name:	WinNT
#	Creation time:	15. 06. 2019 20:22

#	Modifying user name:	WinNT
#	Modification time:	15. 06. 2019 20:22

#	Program:	/corina/corina34_cracker 3.40 0067  02.08.2006

@<TRIPOS>MOLECULE
ASD02500142
  55   59    0    0    0
SMALL
NO_CHARGES


@<TRIPOS>ATOM
   1 N1            -4.2097     5.5227    -2.1403 N.ar    
   2 C2            -5.4142     5.9845    -2.3725 C.ar    
   3 C3            -6.4609     5.7874    -1.4741 C.ar    
   4 C4            -6.2442     5.0967    -0.3160 C.ar    
   5 C5            -4.9494     4.6018    -0.0702 C.ar    
   6 C6            -4.6510     3.8831     1.0983 C.ar    
   7 C7            -3.3859     3.4212     1.2995 C.ar    
   8 C8            -2.3827     3.6527     0.3611 C.ar    
   9 C9            -2.6370     4.3455    -0.7825 C.ar    
  10 C10           -3.9305     4.8385    -1.0263 C.ar    
  11 S11           -1.3493     4.6244    -1.9525 S.o2    
  12 O12           -1.3804     6.0113    -2.2604 O.2     
  13 O13           -0.1965     3.9667    -1.4448 O.2     
  14 N14           -1.7685     3.8274    -3.3422 N.am    
  15 C15           -1.9273     2.4461    -3.3305 C.ar    
  16 C16           -3.0741     1.8740    -3.8744 C.ar    
  17 C17           -3.2342     0.5073    -3.8643 C.ar    
  18 C18           -2.2437    -0.3069    -3.3071 C.ar    
  19 C19           -1.0933     0.2706    -2.7618 C.ar    
  20 C20           -0.9365     1.6376    -2.7800 C.ar    
  21 C21           -2.4124    -1.7723    -3.2943 C.2     
  22 O22           -1.4781    -2.4944    -3.5845 O.2     
  23 N23           -3.6021    -2.3108    -2.9609 N.am    
  24 C24           -3.7514    -3.7661    -2.8208 C.3     
  25 C25           -4.3139    -4.0691    -1.4264 C.3     
  26 N26           -5.4849    -3.2115    -1.1959 N.am    
  27 C27           -5.3355    -1.7562    -1.3360 C.3     
  28 C28           -4.7717    -1.4528    -2.7249 C.3     
  29 C29           -6.6745    -3.7500    -0.8625 C.2     
  30 O30           -6.8206    -4.9571    -0.8756 O.2     
  31 S31           -9.9570    -1.8931     0.1468 S.3     
  32 N32           -8.7444    -0.9139     0.0167 N.2     
  33 N33           -7.6979    -1.5617    -0.3131 N.2     
  34 C34           -7.7989    -2.8754    -0.4817 C.2     
  35 C35           -9.0854    -3.3209    -0.2572 C.2     
  36 H36           -5.6003     6.5327    -3.2843 H       
  37 H37           -7.4425     6.1809    -1.6932 H       
  38 H38           -7.0439     4.9350     0.3916 H       
  39 H39           -5.4202     3.6980     1.8334 H       
  40 H40           -3.1572     2.8685     2.1987 H       
  41 H41           -1.3869     3.2765     0.5441 H       
  42 H42           -1.9033     4.3241    -4.1643 H       
  43 H43           -3.8390     2.5036    -4.3043 H       
  44 H44           -4.1242     0.0642    -4.2861 H       
  45 H45           -0.3266    -0.3558    -2.3303 H       
  46 H46           -0.0459     2.0840    -2.3631 H       
  47 H47           -4.4382    -4.1383    -3.5810 H       
  48 H48           -2.7797    -4.2464    -2.9355 H       
  49 H49           -4.6110    -5.1164    -1.3715 H       
  50 H50           -3.5544    -3.8616    -0.6726 H       
  51 H51           -6.3073    -1.2759    -1.2213 H       
  52 H52           -4.6488    -1.3840    -0.5757 H       
  53 H53           -4.4735    -0.4057    -2.7762 H       
  54 H54           -5.5327    -1.6565    -3.4781 H       
  55 H55           -9.4590    -4.3323    -0.3202 H       
@<TRIPOS>BOND
   1    1    2 ar
   2    1   10 ar
   3    2    3 ar
   4    2   36 1
   5    3    4 ar
   6    3   37 1
   7    4    5 ar
   8    4   38 1
   9    5    6 ar
  10    5   10 ar
  11    6    7 ar
  12    6   39 1
  13    7    8 ar
  14    7   40 1
  15    8    9 ar
  16    8   41 1
  17    9   10 ar
  18    9   11 1
  19   11   12 2
  20   11   13 2
  21   11   14 am
  22   14   15 1
  23   14   42 1
  24   15   16 ar
  25   15   20 ar
  26   16   17 ar
  27   16   43 1
  28   17   18 ar
  29   17   44 1
  30   18   19 ar
  31   18   21 1
  32   19   20 ar
  33   19   45 1
  34   20   46 1
  35   21   22 2
  36   21   23 am
  37   23   24 1
  38   23   28 1
  39   24   25 1
  40   24   47 1
  41   24   48 1
  42   25   26 1
  43   25   49 1
  44   25   50 1
  45   26   27 1
  46   26   29 am
  47   27   28 1
  48   27   51 1
  49   27   52 1
  50   28   53 1
  51   28   54 1
  52   29   30 2
  53   29   34 1
  54   31   32 1
  55   31   35 1
  56   32   33 2
  57   33   34 1
  58   34   35 2
  59   35   55 1

#	End of record

