#	Name: ASD01230099
#	Creating user name:	WinNT
#	Creation time:	15. 06. 2019 19:11

#	Modifying user name:	WinNT
#	Modification time:	15. 06. 2019 19:11

#	Program:	/corina/corina34_cracker 3.40 0067  02.08.2006

@<TRIPOS>MOLECULE
ASD01230099
  21   23    0    0    0
SMALL
NO_CHARGES


@<TRIPOS>ATOM
   1 N1            -0.0167     1.3826     0.0096 N.am    
   2 C2             0.0021    -0.0041     0.0020 C.2     
   3 N3            -1.1466    -0.7335     0.0091 N.pl3   
   4 C4            -2.3863    -0.1029     0.0243 C.ar    
   5 C5            -2.4447     1.2996     0.0324 C.ar    
   6 C6            -1.1827     2.0611     0.0300 C.2     
   7 C7             1.0434    -0.8872    -0.0132 C.2     
   8 C8             0.5125    -2.1776    -0.0151 C.2     
   9 N9            -0.7934    -2.0903    -0.0018 N.2     
  10 C10           -3.5626    -0.8385     0.0310 C.ar    
  11 C11           -4.7796    -0.1874     0.0456 C.ar    
  12 C12           -4.8387     1.1977     0.0536 C.ar    
  13 C13           -3.6801     1.9451     0.0476 C.ar    
  14 *14            1.3370    -3.5018    -0.0302 Du      
  15 *15            1.2784     2.1392     0.0013 Du      
  16 O16           -1.1924     3.2776     0.0369 O.2     
  17 *17           -6.1004    -1.0175     0.0527 Du      
  18 H18            2.0927    -0.6319    -0.0224 H       
  19 H19           -3.5261    -1.9179     0.0246 H       
  20 H20           -5.7978     1.6941     0.0650 H       
  21 H21           -3.7294     3.0240     0.0538 H       
@<TRIPOS>BOND
   1    1    2 1
   2    1   15 1
   3    1    6 am
   4    2    3 1
   5    2    7 2
   6    3    4 1
   7    3    9 1
   8    4    5 ar
   9    4   10 ar
  10    5    6 1
  11    5   13 ar
  12    6   16 2
  13    7    8 1
  14    7   18 1
  15    8    9 2
  16    8   14 1
  17   10   11 ar
  18   10   19 1
  19   11   12 ar
  20   11   17 1
  21   12   13 ar
  22   12   20 1
  23   13   21 1

#	End of record

