#	Name: ASD02038096
#	Creating user name:	WinNT
#	Creation time:	15. 06. 2019 20:16

#	Modifying user name:	WinNT
#	Modification time:	15. 06. 2019 20:16

#	Program:	/corina/corina34_cracker 3.40 0067  02.08.2006

@<TRIPOS>MOLECULE
ASD02038096
  54   56    0    0    0
SMALL
NO_CHARGES


@<TRIPOS>ATOM
   1 N1            -0.4541     1.1431     1.9495 N.ar    
   2 C2             0.5256     1.3970     2.7969 C.ar    
   3 C3            -0.3673     0.1802     1.0509 C.ar    
   4 C4             0.7626    -0.6054     0.9633 C.ar    
   5 C5             1.8211    -0.3700     1.8405 C.ar    
   6 C6             1.6891     0.6573     2.7745 C.ar    
   7 N7             2.9789    -1.1402     1.7851 N.3     
   8 C8             3.9480    -0.7082     2.8019 C.3     
   9 C9             5.1705    -1.6281     2.7611 C.3     
  10 N10            5.7667    -1.5870     1.4186 N.3     
  11 C11            4.7976    -2.0191     0.4017 C.3     
  12 C12            3.5751    -1.0992     0.4425 C.3     
  13 C13            6.9888    -2.4000     1.3601 C.3     
  14 C14            8.0623    -1.7718     2.2511 C.3     
  15 C15            9.2989    -2.6726     2.2720 C.3     
  16 O16            8.4173    -0.4872     1.7356 O.3     
  17 O17           10.2558    -2.1465     3.1938 O.3     
  18 C18           11.4212    -2.8336     3.3333 C.ar    
  19 C19           12.3934    -2.3782     4.2114 C.ar    
  20 C20           13.5770    -3.0756     4.3540 C.ar    
  21 C21           13.7934    -4.2330     3.6180 C.ar    
  22 C22           12.8195    -4.6882     2.7391 C.ar    
  23 C23           11.6343    -3.9925     2.6017 C.ar    
  24 N24           14.9925    -4.9400     3.7615 N.am    
  25 S25           16.1510    -4.8536     2.5814 S.o2    
  26 O26           17.2006    -5.6839     3.0591 O.2     
  27 O27           15.4550    -5.1689     1.3833 O.2     
  28 C28           16.6662    -3.1142     2.5793 C.3     
  29 H29            0.4146     2.1944     3.5167 H       
  30 H30           -1.1920     0.0052     0.3758 H       
  31 H31            0.8268    -1.3921     0.2262 H       
  32 H32            2.4870     0.8705     3.4705 H       
  33 H33            4.2572     0.3168     2.5973 H       
  34 H34            3.4872    -0.7593     3.7884 H       
  35 H35            5.9032    -1.2919     3.4948 H       
  36 H36            4.8655    -2.6487     2.9926 H       
  37 H37            5.2584    -1.9680    -0.5847 H       
  38 H38            4.4884    -3.0441     0.6064 H       
  39 H39            2.8424    -1.4353    -0.2911 H       
  40 H40            3.8801    -0.0786     0.2111 H       
  41 H41            6.7710    -3.4091     1.7101 H       
  42 H42            7.3486    -2.4417     0.3321 H       
  43 H43            7.6753    -1.6625     3.2642 H       
  44 H44            9.0112    -3.6775     2.5809 H       
  45 H45            9.7376    -2.7105     1.2750 H       
  46 H46            8.7701    -0.5085     0.8355 H       
  47 H47           12.2251    -1.4778     4.7835 H       
  48 H48           14.3341    -2.7206     5.0375 H       
  49 H49           12.9870    -5.5883     2.1662 H       
  50 H50           10.8766    -4.3466     1.9184 H       
  51 H51           15.1451    -5.4806     4.5523 H       
  52 H52           17.1427    -2.8753     3.5300 H       
  53 H53           17.3723    -2.9454     1.7663 H       
  54 H54           15.7929    -2.4769     2.4402 H       
@<TRIPOS>BOND
   1    1    2 ar
   2    1    3 ar
   3    2    6 ar
   4    2   29 1
   5    3    4 ar
   6    3   30 1
   7    4    5 ar
   8    4   31 1
   9    5    6 ar
  10    5    7 1
  11    6   32 1
  12    7    8 1
  13    7   12 1
  14    8    9 1
  15    8   33 1
  16    8   34 1
  17    9   10 1
  18    9   35 1
  19    9   36 1
  20   10   11 1
  21   10   13 1
  22   11   12 1
  23   11   37 1
  24   11   38 1
  25   12   39 1
  26   12   40 1
  27   13   14 1
  28   13   41 1
  29   13   42 1
  30   14   16 1
  31   14   15 1
  32   14   43 1
  33   15   17 1
  34   15   44 1
  35   15   45 1
  36   16   46 1
  37   17   18 1
  38   18   19 ar
  39   18   23 ar
  40   19   20 ar
  41   19   47 1
  42   20   21 ar
  43   20   48 1
  44   21   22 ar
  45   21   24 1
  46   22   23 ar
  47   22   49 1
  48   23   50 1
  49   24   25 am
  50   24   51 1
  51   25   26 2
  52   25   27 2
  53   25   28 1
  54   28   52 1
  55   28   53 1
  56   28   54 1

#	End of record

