#	Name: ASD01910151
#	Creating user name:	WinNT
#	Creation time:	15. 06. 2019 19:55

#	Modifying user name:	WinNT
#	Modification time:	15. 06. 2019 19:55

#	Program:	/corina/corina34_cracker 3.40 0067  02.08.2006

@<TRIPOS>MOLECULE
ASD01910151
  44   46    0    0    0
SMALL
NO_CHARGES


@<TRIPOS>ATOM
   1 C1            -0.0788     1.2924    -0.1174 C.ar    
   2 C2             0.9933     1.7361     0.6381 C.ar    
   3 C3             0.8663     2.8576     1.4384 C.ar    
   4 C4            -0.3306     3.5416     1.4882 C.ar    
   5 C5            -1.4158     3.1004     0.7288 C.ar    
   6 C6            -1.2807     1.9714    -0.0804 C.ar    
   7 Cl7            0.0904    -0.1157    -1.1184 Cl      
   8 C8            -2.7012     3.8286     0.7782 C.2     
   9 N9            -3.7471     3.4002     0.0439 N.am    
  10 C10           -4.9897     4.0308     0.1625 C.ar    
  11 C11           -5.0562     5.4014     0.3674 C.ar    
  12 C12           -6.2913     6.0233     0.4841 C.ar    
  13 C13           -7.4567     5.2723     0.3955 C.ar    
  14 C14           -7.3870     3.9075     0.1914 C.ar    
  15 C15           -6.1593     3.2861     0.0695 C.ar    
  16 N16           -6.3627     7.4046     0.6911 N.am    
  17 C17           -7.3582     8.1195     0.1304 C.2     
  18 C18           -7.3769     9.5884     0.2635 C.ar    
  19 C19           -6.3648    10.2427     0.9697 C.ar    
  20 C20           -6.3878    11.6155     1.0900 C.ar    
  21 C21           -7.4107    12.3504     0.5139 C.ar    
  22 C22           -8.4176    11.7163    -0.1871 C.ar    
  23 C23           -8.4073    10.3364    -0.3230 C.ar    
  24 O24           -9.3956     9.7122    -1.0114 O.3     
  25 C25          -10.4180    10.5387    -1.5715 C.3     
  26 O26           -2.8150     4.8139     1.4810 O.2     
  27 O27           -8.2411     7.5535    -0.4852 O.2     
  28 H28            1.9326     1.2043     0.6028 H       
  29 H29            1.7061     3.1981     2.0258 H       
  30 H30           -0.4280     4.4166     2.1137 H       
  31 H31           -2.1165     1.6250    -0.6702 H       
  32 H32           -3.6379     2.6545    -0.5668 H       
  33 H33           -4.1488     5.9829     0.4363 H       
  34 H34           -8.4182     5.7557     0.4865 H       
  35 H35           -8.2944     3.3259     0.1228 H       
  36 H36           -6.1082     2.2192    -0.0903 H       
  37 H37           -5.6958     7.8481     1.2383 H       
  38 H38           -5.5656     9.6736     1.4212 H       
  39 H39           -5.6048    12.1204     1.6363 H       
  40 H40           -7.4212    13.4258     0.6138 H       
  41 H41           -9.2120    12.2963    -0.6332 H       
  42 H42          -10.9184    11.0882    -0.7741 H       
  43 H43           -9.9718    11.2430    -2.2736 H       
  44 H44          -11.1436     9.9153    -2.0939 H       
@<TRIPOS>BOND
   1    1    2 ar
   2    1    7 1
   3    1    6 ar
   4    2    3 ar
   5    2   28 1
   6    3    4 ar
   7    3   29 1
   8    4    5 ar
   9    4   30 1
  10    5    6 ar
  11    5    8 1
  12    6   31 1
  13    8    9 am
  14    8   26 2
  15    9   10 1
  16    9   32 1
  17   10   11 ar
  18   10   15 ar
  19   11   12 ar
  20   11   33 1
  21   12   13 ar
  22   12   16 1
  23   13   14 ar
  24   13   34 1
  25   14   15 ar
  26   14   35 1
  27   15   36 1
  28   16   17 am
  29   16   37 1
  30   17   18 1
  31   17   27 2
  32   18   19 ar
  33   18   23 ar
  34   19   20 ar
  35   19   38 1
  36   20   21 ar
  37   20   39 1
  38   21   22 ar
  39   21   40 1
  40   22   23 ar
  41   22   41 1
  42   23   24 1
  43   24   25 1
  44   25   42 1
  45   25   43 1
  46   25   44 1

#	End of record

