#	Name: ASD03330258
#	Creating user name:	WinNT
#	Creation time:	15. 06. 2019 20:36

#	Modifying user name:	WinNT
#	Modification time:	15. 06. 2019 20:36

#	Program:	/corina/corina34_cracker 3.40 0067  02.08.2006

@<TRIPOS>MOLECULE
ASD03330258
  49   52    0    0    0
SMALL
NO_CHARGES


@<TRIPOS>ATOM
   1 C1            -0.0179     1.4655     0.0101 C.3     
   2 N2             0.0021    -0.0041     0.0020 N.3     
   3 C3             0.4494    -0.5231    -1.3031 C.3     
   4 C4             1.7237     0.1898    -1.6760 C.2     
   5 N5             2.1519     1.3316    -1.0766 N.pl3   
   6 C6             1.4184     2.0045    -0.0007 C.3     
   7 C7             2.6412    -0.1377    -2.6198 C.2     
   8 N8             3.6164     0.7992    -2.5865 N.2     
   9 C9             3.3274     1.6849    -1.6595 C.2     
  10 C10            4.1446     2.8676    -1.3094 C.ar    
  11 C11            5.1552     3.2999    -2.1686 C.ar    
  12 C12            2.5858    -1.3038    -3.5191 C.2     
  13 O13            1.6513    -2.0793    -3.4524 O.2     
  14 C14            3.5154    -2.6701    -5.3097 C.3     
  15 N15            3.5706    -1.5109    -4.4156 N.am    
  16 C16            5.9135     4.4038    -1.8366 C.ar    
  17 C17            5.6734     5.0815    -0.6547 C.ar    
  18 C18            4.6727     4.6578     0.2015 C.ar    
  19 C19            3.9040     3.5585    -0.1215 C.ar    
  20 C20            4.7447    -2.6705    -6.2206 C.3     
  21 C21            4.7533    -3.9459    -7.0690 C.3     
  22 C22            5.9425    -3.9008    -8.0321 C.3     
  23 O23            5.8513    -2.7289    -8.8448 O.3     
  24 C24            5.8864    -1.5043    -8.1090 C.3     
  25 C25            4.6950    -1.4532    -7.1490 C.3     
  26 H26           -0.5467     1.8255    -0.8724 H       
  27 H27           -0.5297     1.8160     0.9063 H       
  28 H28            0.5772    -0.3620     0.7498 H       
  29 H29            0.6347    -1.5947    -1.2296 H       
  30 H30           -0.3141    -0.3315    -2.0571 H       
  31 H31            1.4064     3.0795    -0.1803 H       
  32 H32            1.8965     1.7963     0.9564 H       
  33 H33            5.3438     2.7714    -3.0914 H       
  34 H34            3.5016    -3.5852    -4.7176 H       
  35 H35            2.6125    -2.6172    -5.9179 H       
  36 H36            4.3159    -0.8923    -4.4688 H       
  37 H37            6.6963     4.7393    -2.5007 H       
  38 H38            6.2699     5.9449    -0.3992 H       
  39 H39            4.4902     5.1911     1.1228 H       
  40 H40            3.1231     3.2287     0.5477 H       
  41 H41            5.6488    -2.6307    -5.6130 H       
  42 H42            4.8444    -4.8156    -6.4183 H       
  43 H43            3.8260    -4.0111    -7.6380 H       
  44 H44            6.8712    -3.8764    -7.4620 H       
  45 H45            5.9291    -4.7860    -8.6679 H       
  46 H46            6.8144    -1.4486    -7.5400 H       
  47 H47            5.8326    -0.6633    -8.8003 H       
  48 H48            3.7664    -1.4681    -7.7197 H       
  49 H49            4.7443    -0.5403    -6.5556 H       
@<TRIPOS>BOND
   1    1    2 1
   2    1    6 1
   3    1   26 1
   4    1   27 1
   5    2    3 1
   6    2   28 1
   7    3    4 1
   8    3   29 1
   9    3   30 1
  10    4    5 1
  11    4    7 2
  12    5    6 1
  13    5    9 1
  14    6   31 1
  15    6   32 1
  16    7    8 1
  17    7   12 1
  18    8    9 2
  19    9   10 1
  20   10   11 ar
  21   10   19 ar
  22   11   16 ar
  23   11   33 1
  24   12   13 2
  25   12   15 am
  26   14   15 1
  27   14   20 1
  28   14   34 1
  29   14   35 1
  30   15   36 1
  31   16   17 ar
  32   16   37 1
  33   17   18 ar
  34   17   38 1
  35   18   19 ar
  36   18   39 1
  37   19   40 1
  38   20   21 1
  39   20   25 1
  40   20   41 1
  41   21   22 1
  42   21   42 1
  43   21   43 1
  44   22   23 1
  45   22   44 1
  46   22   45 1
  47   23   24 1
  48   24   25 1
  49   24   46 1
  50   24   47 1
  51   25   48 1
  52   25   49 1

#	End of record

