#	Name: ASD00170193
#	Creating user name:	WinNT
#	Creation time:	15. 06. 2019 18:31

#	Modifying user name:	WinNT
#	Modification time:	15. 06. 2019 18:31

#	Program:	/corina/corina34_cracker 3.40 0067  02.08.2006

@<TRIPOS>MOLECULE
ASD00170193
  36   38    0    0    0
SMALL
NO_CHARGES


@<TRIPOS>ATOM
   1 C1            -0.0139     1.3327    -0.1096 C.2     
   2 C2             0.0059    -0.0014    -0.1397 C.2     
   3 C3            -1.3202    -0.5793     0.0267 C.2     
   4 C4            -2.3068     0.3599     0.1716 C.2     
   5 S5            -1.6528     1.9296     0.1168 S.3     
   6 C6             1.2021     2.2259    -0.2442 C.3     
   7 C7             2.0531     1.7758    -1.4304 C.3     
   8 C8             3.0754     0.7475    -0.9542 C.3     
   9 C9             2.4801    -0.0900     0.1755 C.3     
  10 C10            1.2556    -0.8426    -0.3357 C.3     
  11 N11           -3.6460     0.0724     0.3419 N.pl3   
  12 C12           -1.5737    -2.0200     0.0380 C.2     
  13 C13           -1.8288    -2.7356    -1.2301 C.ar    
  14 O14           -1.5746    -2.6298     1.0921 O.2     
  15 C15           -1.9611    -4.1257    -1.2358 C.ar    
  16 C16           -2.1993    -4.7880    -2.4210 C.ar    
  17 C17           -2.3077    -4.0764    -3.6061 C.ar    
  18 C18           -2.1772    -2.6960    -3.6060 C.ar    
  19 C19           -1.9441    -2.0234    -2.4256 C.ar    
  20 F20           -2.5408    -4.7304    -4.7650 F       
  21 H21            0.8793     3.2552    -0.4006 H       
  22 H22            1.7952     2.1693     0.6686 H       
  23 H23            1.4119     1.3272    -2.1892 H       
  24 H24            2.5720     2.6360    -1.8534 H       
  25 H25            3.3469     0.0953    -1.7843 H       
  26 H26            3.9658     1.2622    -0.5931 H       
  27 H27            3.2239    -0.8043     0.5285 H       
  28 H28            2.1873     0.5642     0.9967 H       
  29 H29            1.1512    -1.7783     0.2135 H       
  30 H30            1.3819    -1.0603    -1.3962 H       
  31 H31           -3.9556    -0.8454     0.2890 H       
  32 H32           -4.2776     0.7881     0.5144 H       
  33 H33           -1.8765    -4.6810    -0.3134 H       
  34 H34           -2.3014    -5.8632    -2.4266 H       
  35 H35           -2.2624    -2.1465    -4.5318 H       
  36 H36           -1.8426    -0.9481    -2.4267 H       
@<TRIPOS>BOND
   1    1    2 2
   2    1    6 1
   3    1    5 1
   4    2    3 1
   5    2   10 1
   6    3    4 2
   7    3   12 1
   8    4    5 1
   9    4   11 1
  10    6    7 1
  11    6   21 1
  12    6   22 1
  13    7    8 1
  14    7   23 1
  15    7   24 1
  16    8    9 1
  17    8   25 1
  18    8   26 1
  19    9   10 1
  20    9   27 1
  21    9   28 1
  22   10   29 1
  23   10   30 1
  24   11   31 1
  25   11   32 1
  26   12   13 1
  27   12   14 2
  28   13   15 ar
  29   13   19 ar
  30   15   16 ar
  31   15   33 1
  32   16   17 ar
  33   16   34 1
  34   17   18 ar
  35   17   20 1
  36   18   19 ar
  37   18   35 1
  38   19   36 1

#	End of record

