#	Name: ASD03092157
#	Creating user name:	WinNT
#	Creation time:	15. 06. 2019 20:32

#	Modifying user name:	WinNT
#	Modification time:	15. 06. 2019 20:32

#	Program:	/corina/corina34_cracker 3.40 0067  02.08.2006

@<TRIPOS>MOLECULE
ASD03092157
  53   55    0    0    0
SMALL
NO_CHARGES


@<TRIPOS>ATOM
   1 N1            -0.3035     1.4425    -0.3251 N.pl3   
   2 C2            -0.3544     0.1576     0.1279 C.2     
   3 C3            -1.6625    -0.1305     0.3954 C.2     
   4 C4            -2.4212     1.0082     0.0968 C.2     
   5 N5            -1.6094     1.9486    -0.3283 N.2     
   6 N6            -3.8099     1.1254     0.2330 N.pl3   
   7 C7            -4.4315     2.3574     0.0154 C.ar    
   8 C8            -5.7583     2.4052    -0.3931 C.ar    
   9 C9            -6.3700     3.6250    -0.6068 C.ar    
  10 C10           -5.6631     4.7977    -0.4146 C.ar    
  11 C11           -3.7257     3.5380     0.2128 C.ar    
  12 C12            0.7959    -0.7569     0.2980 C.ar    
  13 C13            0.9035     2.1670    -0.7306 C.3     
  14 C14            1.9904    -0.5473    -0.3999 C.ar    
  15 C15            3.0379    -1.4249    -0.2113 C.ar    
  16 N16            2.9238    -2.4489     0.6128 N.ar    
  17 C17            1.8155    -2.6827     1.2900 C.ar    
  18 C18            0.7214    -1.8525     1.1659 C.ar    
  19 C19           -4.3418     4.7538    -0.0078 C.ar    
  20 C20            1.0654     2.0786    -2.2494 C.3     
  21 C21            1.7469    -3.8694     2.2162 C.3     
  22 O22            0.4593    -3.9174     2.8342 O.3     
  23 O23           -0.0489     2.7085    -2.8847 O.3     
  24 C24            0.2884    -5.0118     3.7370 C.3     
  25 C25            2.3568     2.7852    -2.6666 C.3     
  26 C26            2.5829     2.5902    -4.1672 C.3     
  27 C27           -7.8092     3.6778    -1.0505 C.3     
  28 F28           -8.6422     3.7207     0.0727 F       
  29 F29           -8.0157     4.8223    -1.8282 F       
  30 F30           -8.1058     2.5396    -1.8079 F       
  31 H31           -2.0437    -1.0690     0.7697 H       
  32 H32           -4.3402     0.3512     0.4784 H       
  33 H33           -6.3109     1.4896    -0.5438 H       
  34 H34           -6.1437     5.7502    -0.5827 H       
  35 H35           -2.6954     3.5045     0.5346 H       
  36 H36            0.8163     3.2125    -0.4347 H       
  37 H37            1.7734     1.7237    -0.2460 H       
  38 H38            2.0907     0.2886    -1.0763 H       
  39 H39            3.9639    -1.2718    -0.7456 H       
  40 H40           -0.1822    -2.0497     1.7235 H       
  41 H41           -3.7927     5.6717     0.1414 H       
  42 H42            1.1108     1.0318    -2.5496 H       
  43 H43            1.9111    -4.7845     1.6471 H       
  44 H44            2.5151    -3.7762     2.9838 H       
  45 H45           -0.1510     3.6441    -2.6626 H       
  46 H46            0.4223    -5.9506     3.1995 H       
  47 H47            1.0263    -4.9423     4.5362 H       
  48 H48           -0.7139    -4.9775     4.1640 H       
  49 H49            2.2758     3.8498    -2.4468 H       
  50 H50            3.1966     2.3631    -2.1147 H       
  51 H51            2.6639     1.5257    -4.3871 H       
  52 H52            1.7431     3.0123    -4.7191 H       
  53 H53            3.5029     3.0936    -4.4644 H       
@<TRIPOS>BOND
   1    1    2 1
   2    1   13 1
   3    1    5 1
   4    2    3 2
   5    2   12 1
   6    3    4 1
   7    3   31 1
   8    4    5 2
   9    4    6 1
  10    6    7 1
  11    6   32 1
  12    7    8 ar
  13    7   11 ar
  14    8    9 ar
  15    8   33 1
  16    9   10 ar
  17    9   27 1
  18   10   19 ar
  19   10   34 1
  20   11   19 ar
  21   11   35 1
  22   12   14 ar
  23   12   18 ar
  24   13   20 1
  25   13   36 1
  26   13   37 1
  27   14   15 ar
  28   14   38 1
  29   15   16 ar
  30   15   39 1
  31   16   17 ar
  32   17   18 ar
  33   17   21 1
  34   18   40 1
  35   19   41 1
  36   20   23 1
  37   20   25 1
  38   20   42 1
  39   21   22 1
  40   21   43 1
  41   21   44 1
  42   22   24 1
  43   23   45 1
  44   24   46 1
  45   24   47 1
  46   24   48 1
  47   25   26 1
  48   25   49 1
  49   25   50 1
  50   26   51 1
  51   26   52 1
  52   26   53 1
  53   27   28 1
  54   27   29 1
  55   27   30 1

#	End of record

