#	Name: ASD01914575
#	Creating user name:	WinNT
#	Creation time:	15. 06. 2019 20:03

#	Modifying user name:	WinNT
#	Modification time:	15. 06. 2019 20:03

#	Program:	/corina/corina34_cracker 3.40 0067  02.08.2006

@<TRIPOS>MOLECULE
ASD01914575
  68   73    0    0    0
SMALL
NO_CHARGES


@<TRIPOS>ATOM
   1 C1            -0.0187     1.5261     0.0104 C.3     
   2 C2             0.0021    -0.0041     0.0020 C.3     
   3 C3             0.7375    -0.4928    -1.2489 C.3     
   4 C4             2.1530     0.0910    -1.2600 C.3     
   5 C5             2.0699     1.6185    -1.2150 C.3     
   6 N6             1.3585     2.0357     0.0000 N.3     
   7 C7             1.3791     3.4183     0.1393 C.ar    
   8 C8             2.6004     4.0922     0.1525 C.ar    
   9 C9             2.6125     5.4677     0.2910 C.ar    
  10 C10            1.4004     6.1337     0.4127 C.ar    
  11 C11            0.2180     5.4014     0.3917 C.ar    
  12 N12            0.2420     4.0802     0.2521 N.ar    
  13 C13           -1.0810     6.1018     0.5213 C.2     
  14 O14           -1.1100     7.3103     0.6451 O.2     
  15 N15           -2.2307     5.3986     0.5019 N.am    
  16 C16           -3.5152     6.0913     0.6300 C.3     
  17 C17           -4.6529     5.0696     0.5777 C.3     
  18 C18           -5.9945     5.7930     0.7115 C.3     
  19 C19           -6.1524     6.7913    -0.4371 C.3     
  20 C20           -5.0147     7.8130    -0.3848 C.3     
  21 C21           -5.0606     8.5596     0.9499 C.3     
  22 C22           -4.9027     7.5613     2.0985 C.3     
  23 C23           -3.5611     6.8379     1.9646 C.3     
  24 C24           -6.0404     6.5396     2.0462 C.3     
  25 C25           -3.6731     7.0896    -0.5186 C.3     
  26 N26           -7.0839     4.8147     0.6615 N.am    
  27 C27           -8.3636     5.2256     0.7608 C.2     
  28 O28           -8.6139     6.4075     0.8919 O.2     
  29 C29           -9.4654     4.2362     0.7102 C.ar    
  30 C30          -10.7861     4.6673     0.8135 C.ar    
  31 C31          -11.8059     3.7302     0.7640 C.ar    
  32 C32          -11.4692     2.3939     0.6129 C.ar    
  33 C33          -10.1340     2.0367     0.5165 C.ar    
  34 N34           -9.1861     2.9474     0.5614 N.ar    
  35 O35            0.8097    -1.9199    -1.2335 O.3     
  36 H36           -0.5461     1.8871    -0.8725 H       
  37 H37           -0.5291     1.8775     0.9071 H       
  38 H38            0.5174    -0.3659     0.8918 H       
  39 H39           -1.0203    -0.3818    -0.0060 H       
  40 H40            0.2008    -0.1639    -2.1388 H       
  41 H41            2.7021    -0.2693    -0.3901 H       
  42 H42            2.6673    -0.2188    -2.1698 H       
  43 H43            3.0763     2.0369    -1.2084 H       
  44 H44            1.5326     1.9790    -2.0923 H       
  45 H45            3.5267     3.5452     0.0561 H       
  46 H46            3.5449     6.0125     0.3045 H       
  47 H47            1.3759     7.2078     0.5226 H       
  48 H48           -2.2075     4.4340     0.4030 H       
  49 H49           -4.6202     4.5377    -0.3731 H       
  50 H50           -4.5405     4.3584     1.3960 H       
  51 H51           -6.1197     6.2594    -1.3879 H       
  52 H52           -7.1081     7.3067    -0.3417 H       
  53 H53           -5.1271     8.5242    -1.2031 H       
  54 H54           -4.2501     9.2875     0.9871 H       
  55 H55           -6.0163     9.0750     1.0452 H       
  56 H56           -4.9354     8.0932     3.0493 H       
  57 H57           -3.4487     6.1267     2.7829 H       
  58 H58           -2.7506     7.5658     2.0019 H       
  59 H59           -6.9962     7.0550     2.1415 H       
  60 H60           -5.9279     5.8284     2.8645 H       
  61 H61           -2.8626     7.8175    -0.4814 H       
  62 H62           -3.6404     6.5577    -1.4694 H       
  63 H63           -6.8841     3.8713     0.5568 H       
  64 H64          -11.0121     5.7169     0.9308 H       
  65 H65          -12.8394     4.0339     0.8417 H       
  66 H66          -12.2401     1.6387     0.5711 H       
  67 H67           -9.8681     0.9965     0.3987 H       
  68 H68            1.2639    -2.2990    -1.9983 H       
@<TRIPOS>BOND
   1    1    2 1
   2    1    6 1
   3    1   36 1
   4    1   37 1
   5    2    3 1
   6    2   38 1
   7    2   39 1
   8    3    4 1
   9    3   35 1
  10    3   40 1
  11    4    5 1
  12    4   41 1
  13    4   42 1
  14    5    6 1
  15    5   43 1
  16    5   44 1
  17    6    7 1
  18    7    8 ar
  19    7   12 ar
  20    8    9 ar
  21    8   45 1
  22    9   10 ar
  23    9   46 1
  24   10   11 ar
  25   10   47 1
  26   11   12 ar
  27   11   13 1
  28   13   14 2
  29   13   15 am
  30   15   16 1
  31   15   48 1
  32   16   17 1
  33   16   23 1
  34   16   25 1
  35   17   18 1
  36   17   49 1
  37   17   50 1
  38   18   19 1
  39   18   24 1
  40   18   26 1
  41   19   20 1
  42   19   51 1
  43   19   52 1
  44   20   21 1
  45   20   25 1
  46   20   53 1
  47   21   22 1
  48   21   54 1
  49   21   55 1
  50   22   23 1
  51   22   24 1
  52   22   56 1
  53   23   57 1
  54   23   58 1
  55   24   59 1
  56   24   60 1
  57   25   61 1
  58   25   62 1
  59   26   27 am
  60   26   63 1
  61   27   28 2
  62   27   29 1
  63   29   30 ar
  64   29   34 ar
  65   30   31 ar
  66   30   64 1
  67   31   32 ar
  68   31   65 1
  69   32   33 ar
  70   32   66 1
  71   33   34 ar
  72   33   67 1
  73   35   68 1

#	End of record

