#	Name: ASD03240181
#	Creating user name:	WinNT
#	Creation time:	15. 06. 2019 20:34

#	Modifying user name:	WinNT
#	Modification time:	15. 06. 2019 20:34

#	Program:	/corina/corina34_cracker 3.40 0067  02.08.2006

@<TRIPOS>MOLECULE
ASD03240181
  73   80    0    0    0
SMALL
NO_CHARGES


@<TRIPOS>ATOM
   1 C1            -0.0171     1.4110     0.0098 C.ar    
   2 C2             0.0021    -0.0041     0.0020 C.ar    
   3 C3             1.1859     2.1158     0.0021 C.ar    
   4 C4             2.3722     1.3857    -0.0131 C.ar    
   5 C5             2.3148    -0.0214    -0.0202 C.ar    
   6 N6             1.1559    -0.6602    -0.0120 N.ar    
   7 C7             3.5746    -0.8006    -0.0369 C.ar    
   8 C8             3.6803     2.0822    -0.0224 C.ar    
   9 C9             3.9249     3.0999    -0.9435 C.ar    
  10 C10            5.1447     3.7451    -0.9470 C.ar    
  11 C11            6.1239     3.3839    -0.0390 C.ar    
  12 C12            5.8872     2.3746     0.8769 C.ar    
  13 C13            4.6692     1.7261     0.8938 C.ar    
  14 C14            3.6572    -2.0129     0.6477 C.ar    
  15 C15            4.8334    -2.7340     0.6284 C.ar    
  16 C16            5.9294    -2.2568    -0.0680 C.ar    
  17 C17            5.8537    -1.0548    -0.7486 C.ar    
  18 C18            4.6811    -0.3275    -0.7419 C.ar    
  19 C19            7.2110    -3.0494    -0.0850 C.3     
  20 N20            7.1984    -3.9765    -1.2244 N.3     
  21 C21            8.5170    -4.5939    -1.4152 C.3     
  22 C22            8.5068    -5.4377    -2.6919 C.3     
  23 C23            7.4285    -6.5185    -2.5750 C.3     
  24 C24            6.0726    -5.8511    -2.3285 C.3     
  25 C25            6.1534    -4.9954    -1.0623 C.3     
  26 C26            7.3730    -7.3148    -3.8532 C.2     
  27 N27            7.1107    -6.8276    -5.0389 N.2     
  28 N28            7.1591    -7.9012    -5.9430 N.pl3   
  29 C29            7.4580    -8.9987    -5.2113 C.2     
  30 N30            7.5883    -8.6225    -3.9556 N.2     
  31 C31            7.6160   -10.3761    -5.7299 C.ar    
  32 N32            7.4612   -10.6132    -7.0268 N.ar    
  33 C33            7.5933   -11.8239    -7.5278 C.ar    
  34 C34            7.8999   -12.8999    -6.7143 C.ar    
  35 C35            8.0703   -12.6968    -5.3522 C.ar    
  36 C36            7.9318   -11.4133    -4.8530 C.ar    
  37 C37           -1.2798    -0.7162     0.0104 C.2     
  38 C38           -2.4295    -0.0296     0.0250 C.2     
  39 N39           -2.4682     1.3415     0.0328 N.pl3   
  40 C40           -1.3146     2.0932     0.0319 C.2     
  41 C41           -3.4927     2.2435     0.0474 C.2     
  42 N42           -2.9590     3.4416     0.0487 N.2     
  43 N43           -1.6756     3.3568     0.0405 N.2     
  44 O44           -4.8176     1.9542     0.0578 O.3     
  45 H45            1.1977     3.1957     0.0074 H       
  46 H46            3.1612     3.3825    -1.6530 H       
  47 H47            5.3354     4.5334    -1.6602 H       
  48 H48            7.0770     3.8917    -0.0455 H       
  49 H49            6.6556     2.0966     1.5831 H       
  50 H50            4.4856     0.9382     1.6093 H       
  51 H51            2.8024    -2.3862     1.1920 H       
  52 H52            4.8987    -3.6728     1.1584 H       
  53 H53            6.7127    -0.6871    -1.2902 H       
  54 H54            4.6232     0.6107    -1.2736 H       
  55 H55            8.0576    -2.3694    -0.1793 H       
  56 H56            7.3008    -3.6149     0.8425 H       
  57 H57            9.2740    -3.8144    -1.5010 H       
  58 H58            8.7468    -5.2307    -0.5609 H       
  59 H59            8.2906    -4.7991    -3.5484 H       
  60 H60            9.4809    -5.9084    -2.8248 H       
  61 H61            7.6653    -7.1807    -1.7422 H       
  62 H62            5.8181    -5.2191    -3.1793 H       
  63 H63            5.3076    -6.6172    -2.2019 H       
  64 H64            6.3943    -5.6303    -0.2097 H       
  65 H65            5.1937    -4.5075    -0.8919 H       
  66 H66            7.0079    -7.8632    -6.9004 H       
  67 H67            7.4601   -11.9790    -8.5883 H       
  68 H68            8.0052   -13.8888    -7.1353 H       
  69 H69            8.3099   -13.5211    -4.6969 H       
  70 H70            8.0576   -11.2193    -3.7981 H       
  71 H71           -1.2967    -1.7961     0.0044 H       
  72 H72           -3.3612    -0.5759     0.0306 H       
  73 H73           -5.1938     1.8652     0.9441 H       
@<TRIPOS>BOND
   1    1    2 ar
   2    1    3 ar
   3    1   40 1
   4    2   37 1
   5    2    6 ar
   6    3    4 ar
   7    3   45 1
   8    4    5 ar
   9    4    8 1
  10    5    6 ar
  11    5    7 1
  12    7   14 ar
  13    7   18 ar
  14    8    9 ar
  15    8   13 ar
  16    9   10 ar
  17    9   46 1
  18   10   11 ar
  19   10   47 1
  20   11   12 ar
  21   11   48 1
  22   12   13 ar
  23   12   49 1
  24   13   50 1
  25   14   15 ar
  26   14   51 1
  27   15   16 ar
  28   15   52 1
  29   16   17 ar
  30   16   19 1
  31   17   18 ar
  32   17   53 1
  33   18   54 1
  34   19   20 1
  35   19   55 1
  36   19   56 1
  37   20   21 1
  38   20   25 1
  39   21   22 1
  40   21   57 1
  41   21   58 1
  42   22   23 1
  43   22   59 1
  44   22   60 1
  45   23   24 1
  46   23   26 1
  47   23   61 1
  48   24   25 1
  49   24   62 1
  50   24   63 1
  51   25   64 1
  52   25   65 1
  53   26   27 2
  54   26   30 1
  55   27   28 1
  56   28   29 1
  57   28   66 1
  58   29   30 2
  59   29   31 1
  60   31   32 ar
  61   31   36 ar
  62   32   33 ar
  63   33   34 ar
  64   33   67 1
  65   34   35 ar
  66   34   68 1
  67   35   36 ar
  68   35   69 1
  69   36   70 1
  70   37   38 2
  71   37   71 1
  72   38   39 1
  73   38   72 1
  74   39   40 1
  75   39   41 1
  76   40   43 2
  77   41   42 2
  78   41   44 1
  79   42   43 1
  80   44   73 1

#	End of record

