#	Name: ASD01510002
#	Creating user name:	WinNT
#	Creation time:	15. 06. 2019 19:21

#	Modifying user name:	WinNT
#	Modification time:	15. 06. 2019 19:21

#	Program:	/corina/corina34_cracker 3.40 0067  02.08.2006

@<TRIPOS>MOLECULE
ASD01510002
  61   65    0    0    0
SMALL
NO_CHARGES


@<TRIPOS>ATOM
   1 N1             0.0175    -1.1399    -0.0042 N.1     
   2 C2             0.0021    -0.0041     0.0020 C.1     
   3 C3            -0.0173     1.4278     0.0099 C.ar    
   4 C4             1.1804     2.1455     0.0023 C.ar    
   5 C5             1.1544     3.5247     0.0095 C.ar    
   6 C6            -0.0549     4.1969     0.0246 C.ar    
   7 C7            -1.2455     3.4920     0.0322 C.ar    
   8 C8            -1.2341     2.1126     0.0193 C.ar    
   9 C9            -0.0753     5.7037     0.0334 C.3     
  10 O10           -0.0944     6.1877    -1.3110 O.3     
  11 C11           -0.1148     7.6127    -1.4156 C.3     
  12 C12           -0.1339     8.0156    -2.8915 C.3     
  13 O13           -1.3694     7.6075    -3.4905 O.3     
  14 C14           -2.0938     8.7582    -3.9536 C.3     
  15 C15           -1.0167     9.8474    -4.1869 C.3     
  16 C16           -0.0398     9.5514    -3.0164 C.3     
  17 O17            1.2901     9.9540    -3.3497 O.3     
  18 O18           -0.3735     9.6733    -5.4510 O.3     
  19 N19           -2.7871     8.4520    -5.2073 N.pl3   
  20 C20           -4.0696     8.8011    -5.5293 C.2     
  21 N21           -4.9287     9.5087    -4.7129 N.pl3   
  22 C22           -6.2838     9.8228    -5.1726 C.3     
  23 C23           -7.0108    10.5957    -4.1025 C.ar    
  24 C24           -6.9463    11.9762    -4.0831 C.ar    
  25 C25           -7.6131    12.6865    -3.1021 C.ar    
  26 C26           -8.3453    12.0156    -2.1395 C.ar    
  27 C27           -8.4099    10.6323    -2.1590 C.ar    
  28 C28           -7.7465     9.9237    -3.1441 C.ar    
  29 Cl29          -9.3285     9.7887    -0.9514 Cl      
  30 Cl30          -9.1824    12.9069    -0.9072 Cl      
  31 N31           -4.3597     8.3634    -6.7292 N.2     
  32 C32           -3.2860     7.7119    -7.2429 C.ar    
  33 C33           -2.2656     7.7653    -6.2797 C.ar    
  34 N34           -1.0966     7.1924    -6.5447 N.ar    
  35 C35           -0.8933     6.5819    -7.6934 C.ar    
  36 N36           -1.8222     6.5060    -8.6290 N.ar    
  37 C37           -3.0206     7.0535    -8.4546 C.ar    
  38 N38           -3.9889     6.9688    -9.4420 N.pl3   
  39 H39            2.1250     1.6220    -0.0088 H       
  40 H40            2.0800     4.0810     0.0036 H       
  41 H41           -2.1859     4.0230     0.0444 H       
  42 H42           -2.1642     1.5636     0.0250 H       
  43 H43           -0.9653     6.0520     0.5576 H       
  44 H44            0.8144     6.0762     0.5410 H       
  45 H45           -1.0056     8.0006    -0.9215 H       
  46 H46            0.7742     8.0248    -0.9380 H       
  47 H47            0.7018     7.5489    -3.4129 H       
  48 H48           -2.8062     9.0865    -3.1968 H       
  49 H49           -1.4432    10.8467    -4.0995 H       
  50 H50           -0.3748    10.0364    -2.0995 H       
  51 H51            1.3823    10.9005    -3.5250 H       
  52 H52            0.3082    10.3327    -5.6396 H       
  53 H53           -4.6352     9.7980    -3.8348 H       
  54 H54           -6.2294    10.4231    -6.0808 H       
  55 H55           -6.8206     8.8972    -5.3805 H       
  56 H56           -6.3744    12.5004    -4.8344 H       
  57 H57           -7.5621    13.7651    -3.0874 H       
  58 H58           -7.7965     8.8450    -3.1599 H       
  59 H59            0.0686     6.1267    -7.8774 H       
  60 H60           -3.7958     6.5059   -10.2723 H       
  61 H61           -4.8599     7.3724    -9.3030 H       
@<TRIPOS>BOND
   1    1    2 3
   2    2    3 1
   3    3    4 ar
   4    3    8 ar
   5    4    5 ar
   6    4   39 1
   7    5    6 ar
   8    5   40 1
   9    6    7 ar
  10    6    9 1
  11    7    8 ar
  12    7   41 1
  13    8   42 1
  14    9   10 1
  15    9   43 1
  16    9   44 1
  17   10   11 1
  18   11   12 1
  19   11   45 1
  20   11   46 1
  21   12   13 1
  22   12   16 1
  23   12   47 1
  24   13   14 1
  25   14   15 1
  26   14   19 1
  27   14   48 1
  28   15   16 1
  29   15   18 1
  30   15   49 1
  31   16   17 1
  32   16   50 1
  33   17   51 1
  34   18   52 1
  35   19   20 1
  36   19   33 1
  37   20   21 1
  38   20   31 2
  39   21   22 1
  40   21   53 1
  41   22   23 1
  42   22   54 1
  43   22   55 1
  44   23   24 ar
  45   23   28 ar
  46   24   25 ar
  47   24   56 1
  48   25   26 ar
  49   25   57 1
  50   26   27 ar
  51   26   30 1
  52   27   28 ar
  53   27   29 1
  54   28   58 1
  55   31   32 1
  56   32   33 ar
  57   32   37 ar
  58   33   34 ar
  59   34   35 ar
  60   35   36 ar
  61   35   59 1
  62   36   37 ar
  63   37   38 1
  64   38   60 1
  65   38   61 1

#	End of record

