#	Name: ASD01230754
#	Creating user name:	WinNT
#	Creation time:	15. 06. 2019 19:15

#	Modifying user name:	WinNT
#	Modification time:	15. 06. 2019 19:15

#	Program:	/corina/corina34_cracker 3.40 0067  02.08.2006

@<TRIPOS>MOLECULE
ASD01230754
  30   32    0    0    0
SMALL
NO_CHARGES


@<TRIPOS>ATOM
   1 C1            -0.0166     1.3738     0.0096 C.2     
   2 C2             0.0021    -0.0041     0.0020 C.2     
   3 C3            -1.2144    -0.7001     0.0083 C.2     
   4 C4            -2.3849    -0.0392     0.0110 C.2     
   5 N5            -2.4623     1.3311     0.0018 N.pl3   
   6 C6            -1.3175     2.0758     0.0320 C.2     
   7 C7            -3.8099     1.9043    -0.0478 C.3     
   8 C8            -3.8779     3.1899     0.7818 C.3     
   9 S9            -2.6221     4.3261     0.1134 S.o2    
  10 N10           -1.2620     3.3846     0.0820 N.am    
  11 C11            1.2497     2.1411     0.0016 C.ar    
  12 C12            2.1022     2.0733    -1.1009 C.ar    
  13 O13           -2.8875     4.6255    -1.2501 O.2     
  14 O14           -2.3210     5.3519     1.0495 O.2     
  15 C15            1.5915     2.9384     1.0939 C.ar    
  16 C16            2.7733     3.6522     1.0811 C.ar    
  17 C17            3.6189     3.5773    -0.0153 C.ar    
  18 C18            3.2806     2.7902    -1.1042 C.ar    
  19 F19            4.7740     4.2778    -0.0237 F       
  20 Cl20           3.2009     4.6453     2.4393 Cl      
  21 H21            0.9399    -0.5395    -0.0090 H       
  22 H22           -1.2114    -1.7801     0.0107 H       
  23 H23           -3.3018    -0.6097     0.0204 H       
  24 H24           -4.0668     2.1302    -1.0827 H       
  25 H25           -4.5228     1.1818     0.3496 H       
  26 H26           -4.8680     3.6370     0.6934 H       
  27 H27           -3.6608     2.9694     1.8269 H       
  28 H28            1.8398     1.4602    -1.9504 H       
  29 H29            0.9329     2.9976     1.9477 H       
  30 H30            3.9426     2.7352    -1.9558 H       
@<TRIPOS>BOND
   1    1    2 2
   2    1   11 1
   3    1    6 1
   4    2    3 1
   5    2   21 1
   6    3    4 2
   7    3   22 1
   8    4    5 1
   9    4   23 1
  10    5    6 1
  11    5    7 1
  12    6   10 2
  13    7    8 1
  14    7   24 1
  15    7   25 1
  16    8    9 1
  17    8   26 1
  18    8   27 1
  19    9   10 am
  20    9   13 2
  21    9   14 2
  22   11   12 ar
  23   11   15 ar
  24   12   18 ar
  25   12   28 1
  26   15   16 ar
  27   15   29 1
  28   16   17 ar
  29   16   20 1
  30   17   18 ar
  31   17   19 1
  32   18   30 1

#	End of record

