#	Name: ASD03092174
#	Creating user name:	WinNT
#	Creation time:	15. 06. 2019 20:32

#	Modifying user name:	WinNT
#	Modification time:	15. 06. 2019 20:32

#	Program:	/corina/corina34_cracker 3.40 0067  02.08.2006

@<TRIPOS>MOLECULE
ASD03092174
  53   56    0    0    0
SMALL
NO_CHARGES


@<TRIPOS>ATOM
   1 N1            -0.0733     1.2723    -0.2860 N.pl3   
   2 C2            -0.2602     0.0126     0.2002 C.2     
   3 C3            -1.6055    -0.1771     0.3393 C.2     
   4 C4            -2.2482     0.9973    -0.0731 C.2     
   5 N5            -1.3332     1.8643    -0.4405 N.2     
   6 N6            -3.6316     1.2125    -0.0853 N.pl3   
   7 C7            -4.1402     2.4738    -0.4104 C.ar    
   8 C8            -5.4128     2.5913    -0.9537 C.ar    
   9 C9            -5.9137     3.8401    -1.2740 C.ar    
  10 C10           -5.1454     4.9731    -1.0526 C.ar    
  11 C11           -3.3753     3.6113    -0.1850 C.ar    
  12 C12            0.8000    -0.9692     0.5183 C.ar    
  13 C13            1.2166     1.8980    -0.5875 C.3     
  14 C14            0.5469    -2.0049     1.4176 C.ar    
  15 C15            1.5373    -2.9183     1.7132 C.ar    
  16 C16            2.7873    -2.8115     1.1189 C.ar    
  17 C17            3.0449    -1.7820     0.2186 C.ar    
  18 C18            2.0536    -0.8651    -0.0848 C.ar    
  19 C19           -3.8768     4.8563    -0.5110 C.ar    
  20 C20            1.5156     1.7560    -2.0812 C.3     
  21 C21            2.8461     2.3928    -2.3900 C.2     
  22 O22            3.7521    -3.7197     1.4312 O.3     
  23 C23            4.8681    -3.8061     0.5387 C.3     
  24 C24            5.3461    -2.3815     0.2269 C.3     
  25 O25            4.2628    -1.6679    -0.3789 O.3     
  26 N26            3.3187     2.3882    -3.6521 N.am    
  27 O27            3.4916     2.9093    -1.5026 O.2     
  28 C28            4.6121     3.0073    -3.9522 C.3     
  29 C29            2.5390     1.7642    -4.7240 C.3     
  30 F30           -5.6354     6.1925    -1.3662 F       
  31 F31           -7.1514     3.9561    -1.8031 F       
  32 H32           -2.0877    -1.0727     0.7021 H       
  33 H33           -4.2373     0.4865     0.1318 H       
  34 H34           -6.0105     1.7085    -1.1263 H       
  35 H35           -2.3872     3.5218     0.2416 H       
  36 H36            1.1782     2.9548    -0.3235 H       
  37 H37            2.0016     1.4079    -0.0116 H       
  38 H38           -0.4240    -2.0914     1.8826 H       
  39 H39            1.3397    -3.7195     2.4100 H       
  40 H40            2.2530    -0.0645    -0.7817 H       
  41 H41           -3.2802     5.7400    -0.3394 H       
  42 H42            1.5483     0.6992    -2.3464 H       
  43 H43            0.7336     2.2510    -2.6570 H       
  44 H44            5.6734    -4.3689     1.0107 H       
  45 H45            4.5639    -4.3017    -0.3832 H       
  46 H46            5.6439    -1.8835     1.1496 H       
  47 H47            6.1913    -2.4195    -0.4603 H       
  48 H48            5.0406     3.4155    -3.0369 H       
  49 H49            5.2864     2.2576    -4.3662 H       
  50 H50            4.4716     3.8093    -4.6769 H       
  51 H51            1.8752     2.5054    -5.1692 H       
  52 H52            3.2146     1.3769    -5.4866 H       
  53 H53            1.9470     0.9461    -4.3137 H       
@<TRIPOS>BOND
   1    1    2 1
   2    1   13 1
   3    1    5 1
   4    2    3 2
   5    2   12 1
   6    3    4 1
   7    3   32 1
   8    4    5 2
   9    4    6 1
  10    6    7 1
  11    6   33 1
  12    7    8 ar
  13    7   11 ar
  14    8    9 ar
  15    8   34 1
  16    9   10 ar
  17    9   31 1
  18   10   19 ar
  19   10   30 1
  20   11   19 ar
  21   11   35 1
  22   12   14 ar
  23   12   18 ar
  24   13   20 1
  25   13   36 1
  26   13   37 1
  27   14   15 ar
  28   14   38 1
  29   15   16 ar
  30   15   39 1
  31   16   17 ar
  32   16   22 1
  33   17   18 ar
  34   17   25 1
  35   18   40 1
  36   19   41 1
  37   20   21 1
  38   20   42 1
  39   20   43 1
  40   21   26 am
  41   21   27 2
  42   22   23 1
  43   23   24 1
  44   23   44 1
  45   23   45 1
  46   24   25 1
  47   24   46 1
  48   24   47 1
  49   26   28 1
  50   26   29 1
  51   28   48 1
  52   28   49 1
  53   28   50 1
  54   29   51 1
  55   29   52 1
  56   29   53 1

#	End of record

