#	Name: ASD03180056
#	Creating user name:	WinNT
#	Creation time:	15. 06. 2019 20:33

#	Modifying user name:	WinNT
#	Modification time:	15. 06. 2019 20:33

#	Program:	/corina/corina34_cracker 3.40 0067  02.08.2006

@<TRIPOS>MOLECULE
ASD03180056
  35   37    0    0    0
SMALL
NO_CHARGES


@<TRIPOS>ATOM
   1 C1             0.7552     0.0624    -1.1532 C.ar    
   2 C2             0.0005    -0.0014     0.0038 C.ar    
   3 C3             0.4336     0.6361     1.1519 C.ar    
   4 C4             1.6221     1.3401     1.1475 C.ar    
   5 C5             2.3836     1.4073    -0.0116 C.ar    
   6 C6             1.9463     0.7649    -1.1651 C.ar    
   7 N7             3.5876     2.1198    -0.0194 N.pl3   
   8 C8             2.0917     2.0349     2.3996 C.3     
   9 N9             4.6405     4.2268    -0.3824 N.2     
  10 C10            4.4692     5.4759    -0.8143 C.2     
  11 C11            3.6056     3.4457    -0.4229 C.2     
  12 S12            2.2275     4.3299    -1.0705 S.3     
  13 C13            3.2278     5.7700    -1.2426 C.2     
  14 C14            5.5657     6.4687    -0.8218 C.2     
  15 S15            5.4492     8.1400    -1.3676 S.3     
  16 C16            7.0990     8.3874    -0.9942 C.2     
  17 N17            7.6196     7.3061    -0.5198 N.2     
  18 C18            6.8329     6.2577    -0.4061 C.2     
  19 C19            7.8405     9.6844    -1.1917 C.3     
  20 C20            7.3064     4.9341     0.1370 C.3     
  21 F21            2.6840     0.8270    -2.2953 F       
  22 H22            0.4163    -0.4403    -2.0470 H       
  23 H23           -0.9296    -0.5503     0.0106 H       
  24 H24           -0.1586     0.5839     2.0535 H       
  25 H25            4.4097     1.6860     0.2577 H       
  26 H26            2.7092     1.3528     2.9839 H       
  27 H27            2.6769     2.9140     2.1295 H       
  28 H28            1.2286     2.3407     2.9909 H       
  29 H29            2.9007     6.7252    -1.6262 H       
  30 H30            7.7603    10.2899    -0.2888 H       
  31 H31            8.8904     9.4751    -1.3967 H       
  32 H32            7.4072    10.2264    -2.0323 H       
  33 H33            7.6825     4.3194    -0.6807 H       
  34 H34            8.1035     5.1028     0.8611 H       
  35 H35            6.4758     4.4229     0.6236 H       
@<TRIPOS>BOND
   1    1    2 ar
   2    1    6 ar
   3    1   22 1
   4    2    3 ar
   5    2   23 1
   6    3    4 ar
   7    3   24 1
   8    4    5 ar
   9    4    8 1
  10    5    6 ar
  11    5    7 1
  12    6   21 1
  13    7   11 1
  14    7   25 1
  15    8   26 1
  16    8   27 1
  17    8   28 1
  18    9   11 2
  19    9   10 1
  20   10   13 2
  21   10   14 1
  22   11   12 1
  23   12   13 1
  24   13   29 1
  25   14   15 1
  26   14   18 2
  27   15   16 1
  28   16   17 2
  29   16   19 1
  30   17   18 1
  31   18   20 1
  32   19   30 1
  33   19   31 1
  34   19   32 1
  35   20   33 1
  36   20   34 1
  37   20   35 1

#	End of record

