#	Name: ASD01200037
#	Creating user name:	WinNT
#	Creation time:	15. 06. 2019 19:08

#	Modifying user name:	WinNT
#	Modification time:	15. 06. 2019 19:08

#	Program:	/corina/corina34_cracker 3.40 0067  02.08.2006

@<TRIPOS>MOLECULE
ASD01200037
  27   28    0    0    0
SMALL
NO_CHARGES


@<TRIPOS>ATOM
   1 C1            -0.0887     1.2343     0.0415 C.ar    
   2 C2             0.1064    -0.0801    -0.3567 C.ar    
   3 C3             1.3795    -0.6144    -0.4044 C.ar    
   4 C4             2.4740     0.1640    -0.0524 C.ar    
   5 C5             2.2792     1.4950     0.3510 C.ar    
   6 C6             0.9853     2.0213     0.3937 C.ar    
   7 C7             3.4322     2.3315     0.7275 C.2     
   8 N8             3.2557     3.6400     0.9981 N.am    
   9 C9             4.3426     4.4285     1.3531 C.2     
  10 N10            3.7548    -0.3710    -0.0987 N.pl3   
  11 N11            4.2829     5.6931     1.6324 N.2     
  12 C12            5.4169     6.2887     1.9513 C.2     
  13 C13            6.4854     5.4895     1.9409 C.2     
  14 S14            5.9529     3.8712     1.4924 S.3     
  15 O15            4.5431     1.8412     0.7942 O.2     
  16 Cl16          -1.2575    -1.0597    -0.7971 Cl      
  17 C17            5.4983     7.7529     2.2985 C.3     
  18 H18           -1.0876     1.6440     0.0712 H       
  19 H19            1.5235    -1.6386    -0.7155 H       
  20 H20            0.8277     3.0441     0.7026 H       
  21 H21            2.3696     4.0310     0.9450 H       
  22 H22            3.8815    -1.3313    -0.0474 H       
  23 H23            4.5228     0.2157    -0.1823 H       
  24 H24            7.4990     5.7826     2.1713 H       
  25 H25            5.3586     7.8801     3.3720 H       
  26 H26            6.4755     8.1407     2.0108 H       
  27 H27            4.7197     8.2969     1.7638 H       
@<TRIPOS>BOND
   1    1    2 ar
   2    1    6 ar
   3    1   18 1
   4    2    3 ar
   5    2   16 1
   6    3    4 ar
   7    3   19 1
   8    4    5 ar
   9    4   10 1
  10    5    6 ar
  11    5    7 1
  12    6   20 1
  13    7    8 am
  14    7   15 2
  15    8    9 1
  16    8   21 1
  17    9   11 2
  18    9   14 1
  19   10   22 1
  20   10   23 1
  21   11   12 1
  22   12   13 2
  23   12   17 1
  24   13   14 1
  25   13   24 1
  26   17   25 1
  27   17   26 1
  28   17   27 1

#	End of record

