#	Name: ASD03091134
#	Creating user name:	WinNT
#	Creation time:	15. 06. 2019 20:30

#	Modifying user name:	WinNT
#	Modification time:	15. 06. 2019 20:30

#	Program:	/corina/corina34_cracker 3.40 0067  02.08.2006

@<TRIPOS>MOLECULE
ASD03091134
  40   42    0    0    0
SMALL
NO_CHARGES


@<TRIPOS>ATOM
   1 C1             0.5346     0.4413    -1.1971 C.ar    
   2 C2            -0.0042     0.0068     0.0004 C.ar    
   3 C3             0.6492     0.2668     1.1908 C.ar    
   4 C4             1.8431     0.9614     1.1878 C.ar    
   5 C5             2.3872     1.3987    -0.0129 C.ar    
   6 C6             1.7278     1.1362    -1.2073 C.ar    
   7 S7            -0.2988     0.1013    -2.7118 S.o2    
   8 O8            -1.6721     0.3890    -2.4876 O.2     
   9 O9             0.4669     0.7175    -3.7381 O.2     
  10 N10           -0.1992    -1.5314    -2.9704 N.am    
  11 N11           -1.2833    -0.7378     0.0075 N.pl3   
  12 O12           -2.1012    -0.5348     0.8869 O.2     
  13 O13           -1.5180    -1.5535    -0.8661 O.2     
  14 N14            6.4389     2.6324     0.6095 N.3     
  15 C15            5.3245     3.1839     1.3954 C.3     
  16 C16            4.1194     2.2579     1.3420 C.3     
  17 N17            3.5941     2.1018    -0.0196 N.3     
  18 C18            4.5830     1.4423    -0.8839 C.3     
  19 C19            5.4105     2.4781    -1.6300 C.3     
  20 C20            6.4187     3.1897    -0.7505 C.3     
  21 C21            6.5834     1.1926     0.6263 C.3     
  22 C22            5.4173     0.4889    -0.0482 C.3     
  23 H23            0.2254    -0.0733     2.1242 H       
  24 H24            2.3528     1.1645     2.1180 H       
  25 H25            2.1479     1.4752    -2.1427 H       
  26 H26           -0.9033    -1.9894    -3.4555 H       
  27 H27            0.5632    -2.0297    -2.6367 H       
  28 H28            5.6404     3.3028     2.4319 H       
  29 H29            5.0474     4.1576     0.9913 H       
  30 H30            4.4095     1.2787     1.7229 H       
  31 H31            3.3337     2.6639     1.9792 H       
  32 H32            4.0433     0.8462    -1.6198 H       
  33 H33            5.9432     1.9816    -2.4411 H       
  34 H34            4.7372     3.2195    -2.0601 H       
  35 H35            6.1611     4.2475    -0.6979 H       
  36 H36            7.4103     3.0878    -1.1916 H       
  37 H37            7.5050     0.9238     0.1100 H       
  38 H38            6.6489     0.8559     1.6610 H       
  39 H39            4.7834     0.0408     0.7170 H       
  40 H40            5.8045    -0.3007    -0.6921 H       
@<TRIPOS>BOND
   1    1    2 ar
   2    1    6 ar
   3    1    7 1
   4    2    3 ar
   5    2   11 1
   6    3    4 ar
   7    3   23 1
   8    4    5 ar
   9    4   24 1
  10    5    6 ar
  11    5   17 1
  12    6   25 1
  13    7    8 2
  14    7    9 2
  15    7   10 am
  16   10   26 1
  17   10   27 1
  18   11   12 2
  19   11   13 2
  20   14   15 1
  21   14   20 1
  22   14   21 1
  23   15   16 1
  24   15   28 1
  25   15   29 1
  26   16   17 1
  27   16   30 1
  28   16   31 1
  29   17   18 1
  30   18   19 1
  31   18   22 1
  32   18   32 1
  33   19   20 1
  34   19   33 1
  35   19   34 1
  36   20   35 1
  37   20   36 1
  38   21   22 1
  39   21   37 1
  40   21   38 1
  41   22   39 1
  42   22   40 1

#	End of record

