#	Name: ASD01230349
#	Creating user name:	WinNT
#	Creation time:	15. 06. 2019 19:14

#	Modifying user name:	WinNT
#	Modification time:	15. 06. 2019 19:14

#	Program:	/corina/corina34_cracker 3.40 0067  02.08.2006

@<TRIPOS>MOLECULE
ASD01230349
  50   53    0    0    0
SMALL
NO_CHARGES


@<TRIPOS>ATOM
   1 S1            -0.0203     1.6432     0.0111 S.o2    
   2 N2             0.0021    -0.0041     0.0020 N.am    
   3 C3             1.0582    -0.7115     0.0766 C.2     
   4 N4             2.3239    -0.2014     0.2156 N.pl3   
   5 C5             2.5547     1.1284     0.7685 C.3     
   6 C6             1.7187     2.1517    -0.0028 C.3     
   7 C7             0.9691    -2.2282     0.0263 C.3     
   8 C8             2.0432    -2.7791     0.9676 C.3     
   9 C9             3.4382    -2.3754     0.5096 C.3     
  10 C10            3.4443    -1.0396    -0.2239 C.3     
  11 C11           -0.3942    -2.6772     0.4854 C.ar    
  12 C12           -1.2069    -3.4010    -0.3669 C.ar    
  13 C13           -2.4575    -3.8128     0.0543 C.ar    
  14 C14           -2.8952    -3.5012     1.3279 C.ar    
  15 C15           -2.0821    -2.7781     2.1806 C.ar    
  16 C16           -0.8298    -2.3701     1.7609 C.ar    
  17 C17           -4.2589    -3.9493     1.7867 C.3     
  18 C18           -4.1514    -5.3084     2.4288 C.ar    
  19 C19           -3.9143    -5.4140     3.7869 C.ar    
  20 C20           -3.8160    -6.6597     4.3767 C.ar    
  21 C21           -3.9551    -7.8025     3.6072 C.ar    
  22 C22           -4.1925    -7.6955     2.2475 C.ar    
  23 C23           -4.2957    -6.4484     1.6606 C.ar    
  24 C24           -3.5570    -6.7745     5.8569 C.3     
  25 F25           -3.8587    -9.0210     4.1828 F       
  26 F26           -4.7626    -3.0330     2.7162 F       
  27 F27           -5.1210    -4.0198     0.6872 F       
  28 O28           -0.6472     1.9881    -1.2166 O.2     
  29 O29           -0.6237     1.9749     1.2541 O.2     
  30 H30            2.2653     1.1405     1.8193 H       
  31 H31            3.6113     1.3809     0.6793 H       
  32 H32            2.0726     2.2083    -1.0322 H       
  33 H33            1.8152     3.1296     0.4690 H       
  34 H34            1.1525    -2.5769    -0.9900 H       
  35 H35            1.8709    -2.3915     1.9717 H       
  36 H36            1.9753    -3.8668     0.9892 H       
  37 H37            4.0887    -2.3026     1.3812 H       
  38 H38            3.8279    -3.1455    -0.1561 H       
  39 H39            3.3602    -1.2183    -1.2958 H       
  40 H40            4.3816    -0.5221    -0.0194 H       
  41 H41           -0.8650    -3.6444    -1.3620 H       
  42 H42           -3.0927    -4.3777    -0.6119 H       
  43 H43           -2.4242    -2.5344     3.1756 H       
  44 H44           -0.1931    -1.8083     2.4283 H       
  45 H45           -3.8054    -4.5226     4.3868 H       
  46 H46           -4.3008    -8.5862     1.6463 H       
  47 H47           -4.4853    -6.3647     0.6007 H       
  48 H48           -4.5068    -6.7980     6.3912 H       
  49 H49           -3.0037    -7.6916     6.0589 H       
  50 H50           -2.9732    -5.9169     6.1912 H       
@<TRIPOS>BOND
   1    1    2 am
   2    1    6 1
   3    1   28 2
   4    1   29 2
   5    2    3 2
   6    3    4 1
   7    3    7 1
   8    4    5 1
   9    4   10 1
  10    5    6 1
  11    5   30 1
  12    5   31 1
  13    6   32 1
  14    6   33 1
  15    7    8 1
  16    7   11 1
  17    7   34 1
  18    8    9 1
  19    8   35 1
  20    8   36 1
  21    9   10 1
  22    9   37 1
  23    9   38 1
  24   10   39 1
  25   10   40 1
  26   11   12 ar
  27   11   16 ar
  28   12   13 ar
  29   12   41 1
  30   13   14 ar
  31   13   42 1
  32   14   15 ar
  33   14   17 1
  34   15   16 ar
  35   15   43 1
  36   16   44 1
  37   17   18 1
  38   17   26 1
  39   17   27 1
  40   18   19 ar
  41   18   23 ar
  42   19   20 ar
  43   19   45 1
  44   20   21 ar
  45   20   24 1
  46   21   22 ar
  47   21   25 1
  48   22   23 ar
  49   22   46 1
  50   23   47 1
  51   24   48 1
  52   24   49 1
  53   24   50 1

#	End of record

