#	Name: ASD01120358
#	Creating user name:	WinNT
#	Creation time:	15. 06. 2019 18:59

#	Modifying user name:	WinNT
#	Modification time:	15. 06. 2019 18:59

#	Program:	/corina/corina34_cracker 3.40 0067  02.08.2006

@<TRIPOS>MOLECULE
ASD01120358
  40   42    0    0    0
SMALL
NO_CHARGES


@<TRIPOS>ATOM
   1 C1            -0.0320     1.3618    -0.5227 C.ar    
   2 C2            -0.0096    -0.0215    -0.4413 C.ar    
   3 C3             1.1825    -0.7020    -0.3163 C.ar    
   4 C4             2.3860    -0.0042    -0.2694 C.ar    
   5 C5             2.3786     1.4014    -0.3510 C.ar    
   6 C6             1.1510     2.0854    -0.4793 C.ar    
   7 N7             3.6972    -0.4018    -0.1515 N.pl3   
   8 C8             4.5037     0.7202    -0.1578 C.2     
   9 C9             3.7228     1.8281    -0.2783 C.2     
  10 C10            4.2059     3.2548    -0.3251 C.3     
  11 C11            4.3289     3.7041    -1.7825 C.3     
  12 C12            4.8119     5.1308    -1.8294 C.2     
  13 O13            4.9944     5.7390    -3.0120 O.3     
  14 O14            5.0350     5.7271    -0.8025 O.2     
  15 C15            5.9683     0.7175    -0.0517 C.2     
  16 O16            6.5809     1.7675    -0.0674 O.2     
  17 O17            6.6338    -0.4498     0.0633 O.3     
  18 C18            1.1256     3.5639    -0.5669 C.ar    
  19 C19            0.6037     4.1893    -1.6990 C.ar    
  20 C20            0.5829     5.5669    -1.7748 C.ar    
  21 C21            1.0782     6.3275    -0.7307 C.ar    
  22 C22            1.5971     5.7129     0.3949 C.ar    
  23 C23            1.6182     4.3361     0.4848 C.ar    
  24 N24            1.1828    -2.1798    -0.2310 N.pl3   
  25 O25            0.1308    -2.7924    -0.2714 O.2     
  26 O26            2.2350    -2.7832    -0.1204 O.2     
  27 H27           -0.9746     1.8789    -0.6250 H       
  28 H28           -0.9375    -0.5729    -0.4760 H       
  29 H29            4.0051    -1.3186    -0.0761 H       
  30 H30            3.4942     3.8967     0.1941 H       
  31 H31            5.1795     3.3249     0.1600 H       
  32 H32            5.0406     3.0622    -2.3018 H       
  33 H33            3.3553     3.6340    -2.2677 H       
  34 H34            5.3054     6.6544    -2.9914 H       
  35 H35            7.5972    -0.4010     0.1303 H       
  36 H36            0.2171     3.5966    -2.5148 H       
  37 H37            0.1793     6.0524    -2.6511 H       
  38 H38            1.0600     7.4054    -0.7947 H       
  39 H39            1.9827     6.3119     1.2066 H       
  40 H40            2.0235     3.8574     1.3640 H       
@<TRIPOS>BOND
   1    1    2 ar
   2    1    6 ar
   3    1   27 1
   4    2    3 ar
   5    2   28 1
   6    3   24 1
   7    3    4 ar
   8    4    5 ar
   9    4    7 1
  10    5    6 ar
  11    5    9 1
  12    6   18 1
  13    7    8 1
  14    7   29 1
  15    8    9 2
  16    8   15 1
  17    9   10 1
  18   10   11 1
  19   10   30 1
  20   10   31 1
  21   11   12 1
  22   11   32 1
  23   11   33 1
  24   12   13 1
  25   12   14 2
  26   13   34 1
  27   15   16 2
  28   15   17 1
  29   17   35 1
  30   18   19 ar
  31   18   23 ar
  32   19   20 ar
  33   19   36 1
  34   20   21 ar
  35   20   37 1
  36   21   22 ar
  37   21   38 1
  38   22   23 ar
  39   22   39 1
  40   23   40 1
  41   24   25 2
  42   24   26 2

#	End of record

