#	Name: ASD05430352
#	Creating user name:	WinNT
#	Creation time:	15. 06. 2019 21:00

#	Modifying user name:	WinNT
#	Modification time:	15. 06. 2019 21:00

#	Program:	/corina/corina34_cracker 3.40 0067  02.08.2006

@<TRIPOS>MOLECULE
ASD05430352
  58   62    0    0    0
SMALL
NO_CHARGES


@<TRIPOS>ATOM
   1 C1            -0.0168     1.3903     0.0097 C.ar    
   2 C2             0.0021    -0.0041     0.0020 C.ar    
   3 C3            -1.1893    -0.7181     0.0096 C.ar    
   4 C4            -2.3954    -0.0522     0.0247 C.ar    
   5 C5            -2.4221     1.3461     0.0329 C.ar    
   6 C6            -1.2229     2.0649     0.0306 C.ar    
   7 C7            -4.8632     1.3659     0.0549 C.2     
   8 C8            -3.7098     2.0594     0.0485 C.2     
   9 N9            -7.3487     1.3607     0.0771 N.pl3   
  10 C10           -6.1474     2.0773     0.0705 C.2     
  11 C11           -8.3725     2.3783     1.9644 C.ar    
  12 C12           -9.3593     3.0641     2.6477 C.ar    
  13 C13           -7.2349     1.9581     2.6282 C.ar    
  14 C14           -7.0833     2.2230     3.9761 C.ar    
  15 C15           -8.0710     2.9098     4.6615 C.ar    
  16 C16           -9.2096     3.3304     3.9955 C.ar    
  17 F17           -7.9240     3.1689     5.9793 F       
  18 O18            1.1512     2.0860     0.0023 O.3     
  19 C19            1.0570     3.5119     0.0108 C.3     
  20 C20            1.6011    -1.7068     0.8215 C.2     
  21 N21            1.2260    -0.6865    -0.0138 N.pl3   
  22 C22            2.8468    -2.0688     0.4602 C.2     
  23 N23            3.2267    -1.2943    -0.5668 N.2     
  24 C24            2.2646    -0.4623    -0.8600 C.2     
  25 C25            3.6717    -3.1559     1.0996 C.3     
  26 C26           -8.5397     2.0830     0.4961 C.3     
  27 C27           -8.5613     3.4350    -0.2207 C.3     
  28 O28           -7.3612     4.1361     0.1247 O.3     
  29 N29           -6.1749     3.3765     0.0786 N.2     
  30 C30           -7.3479    -0.0240    -0.3805 C.3     
  31 C31           -8.6843    -0.6924    -0.0504 C.3     
  32 O32           -9.7256     0.1963    -0.4852 O.3     
  33 C33           -9.8431     1.3389     0.3603 C.3     
  34 H34           -1.1702    -1.7980     0.0032 H       
  35 H35           -3.3202    -0.6100     0.0298 H       
  36 H36           -1.2390     3.1448     0.0373 H       
  37 H37           -4.8440     0.2861     0.0486 H       
  38 H38           -3.7289     3.1392     0.0549 H       
  39 H39          -10.2474     3.3921     2.1280 H       
  40 H40           -6.4646     1.4224     2.0933 H       
  41 H41           -6.1948     1.8941     4.4946 H       
  42 H42           -9.9806     3.8666     4.5291 H       
  43 H43            0.5119     3.8453    -0.8722 H       
  44 H44            0.5289     3.8358     0.9076 H       
  45 H45            2.0585     3.9422     0.0036 H       
  46 H46            1.0123    -2.1349     1.6193 H       
  47 H47            2.2900     0.2798    -1.6443 H       
  48 H48            3.4803    -4.1023     0.5938 H       
  49 H49            4.7294    -2.9064     1.0155 H       
  50 H50            3.4020    -3.2453     2.1519 H       
  51 H51           -8.6006     3.2801    -1.2989 H       
  52 H52           -9.4297     4.0094     0.1019 H       
  53 H53           -7.1892    -0.0477    -1.4586 H       
  54 H54           -6.5414    -0.5667     0.1126 H       
  55 H55           -8.7637    -1.6429    -0.5778 H       
  56 H56           -8.7614    -0.8562     1.0245 H       
  57 H57          -10.1705     1.0157     1.3484 H       
  58 H58          -10.5927     2.0117    -0.0563 H       
@<TRIPOS>BOND
   1    1    2 ar
   2    1   18 1
   3    1    6 ar
   4    2    3 ar
   5    2   21 1
   6    3    4 ar
   7    3   34 1
   8    4    5 ar
   9    4   35 1
  10    5    6 ar
  11    5    8 1
  12    6   36 1
  13    7    8 2
  14    7   10 1
  15    7   37 1
  16    8   38 1
  17    9   10 1
  18    9   26 1
  19    9   30 1
  20   10   29 2
  21   11   12 ar
  22   11   13 ar
  23   11   26 1
  24   12   16 ar
  25   12   39 1
  26   13   14 ar
  27   13   40 1
  28   14   15 ar
  29   14   41 1
  30   15   16 ar
  31   15   17 1
  32   16   42 1
  33   18   19 1
  34   19   43 1
  35   19   44 1
  36   19   45 1
  37   20   21 1
  38   20   22 2
  39   20   46 1
  40   21   24 1
  41   22   23 1
  42   22   25 1
  43   23   24 2
  44   24   47 1
  45   25   48 1
  46   25   49 1
  47   25   50 1
  48   26   27 1
  49   26   33 1
  50   27   28 1
  51   27   51 1
  52   27   52 1
  53   28   29 1
  54   30   31 1
  55   30   53 1
  56   30   54 1
  57   31   32 1
  58   31   55 1
  59   31   56 1
  60   32   33 1
  61   33   57 1
  62   33   58 1

#	End of record

