#	Name: ASD03731780
#	Creating user name:	WinNT
#	Creation time:	15. 06. 2019 20:46

#	Modifying user name:	WinNT
#	Modification time:	15. 06. 2019 20:46

#	Program:	/corina/corina34_cracker 3.40 0067  02.08.2006

@<TRIPOS>MOLECULE
ASD03731780
  39   41    0    0    0
SMALL
NO_CHARGES


@<TRIPOS>ATOM
   1 C1            -0.3875     1.1269    -1.9075 C.2     
   2 C2            -0.2700    -0.2580    -1.4106 C.ar    
   3 C3             0.9125    -0.9756    -1.6092 C.ar    
   4 C4             1.0183    -2.2673    -1.1442 C.ar    
   5 C5            -0.0496    -2.8578    -0.4782 C.ar    
   6 C6            -1.2277    -2.1472    -0.2786 C.ar    
   7 C7            -1.3389    -0.8529    -0.7352 C.ar    
   8 O8             0.5453     1.6447    -2.4906 O.2     
   9 N9            -1.5308     1.8154    -1.7199 N.am    
  10 O10            0.0580    -4.1313    -0.0222 O.3     
  11 C11            1.5247    -5.5018    -1.2534 C.ar    
  12 C12            1.2606    -4.7522    -0.1420 C.ar    
  13 C13            2.2121    -4.6153     0.8735 C.ar    
  14 C14            3.4247    -5.2243     0.7820 C.ar    
  15 C15            3.7301    -6.0035    -0.3473 C.ar    
  16 C16            4.9734    -6.6460    -0.4744 C.ar    
  17 C17            5.2359    -7.3926    -1.5817 C.ar    
  18 C18            4.2893    -7.5308    -2.5953 C.ar    
  19 C19            3.0747    -6.9234    -2.5071 C.ar    
  20 C20            2.7669    -6.1443    -1.3781 C.ar    
  21 S21           -1.6626     3.3692    -2.2774 S.o2    
  22 O22           -2.9669     3.7732    -1.8839 O.2     
  23 O23           -0.5083     4.0232    -1.7685 O.2     
  24 C24           -1.5620     3.2126    -4.0818 C.3     
  25 H25            1.7423    -0.5177    -2.1272 H       
  26 H26            1.9319    -2.8225    -1.2974 H       
  27 H27           -2.0552    -2.6094     0.2392 H       
  28 H28           -2.2529    -0.3000    -0.5759 H       
  29 H29           -2.2764     1.4009    -1.2582 H       
  30 H30            0.7804    -5.6034    -2.0293 H       
  31 H31            1.9809    -4.0174     1.7427 H       
  32 H32            4.1503    -5.1093     1.5737 H       
  33 H33            5.7171    -6.5476     0.3025 H       
  34 H34            6.1923    -7.8852    -1.6765 H       
  35 H35            4.5233    -8.1285    -3.4638 H       
  36 H36            2.3511    -7.0391    -3.3004 H       
  37 H37           -2.3767     2.5821    -4.4378 H       
  38 H38           -1.6410     4.1998    -4.5371 H       
  39 H39           -0.6078     2.7620    -4.3548 H       
@<TRIPOS>BOND
   1    1    2 1
   2    1    8 2
   3    1    9 am
   4    2    3 ar
   5    2    7 ar
   6    3    4 ar
   7    3   25 1
   8    4    5 ar
   9    4   26 1
  10    5    6 ar
  11    5   10 1
  12    6    7 ar
  13    6   27 1
  14    7   28 1
  15    9   21 am
  16    9   29 1
  17   10   12 1
  18   11   12 ar
  19   11   20 ar
  20   11   30 1
  21   12   13 ar
  22   13   14 ar
  23   13   31 1
  24   14   15 ar
  25   14   32 1
  26   15   16 ar
  27   15   20 ar
  28   16   17 ar
  29   16   33 1
  30   17   18 ar
  31   17   34 1
  32   18   19 ar
  33   18   35 1
  34   19   20 ar
  35   19   36 1
  36   21   22 2
  37   21   23 2
  38   21   24 1
  39   24   37 1
  40   24   38 1
  41   24   39 1

#	End of record

