#	Name: ASD03330244
#	Creating user name:	WinNT
#	Creation time:	15. 06. 2019 20:36

#	Modifying user name:	WinNT
#	Modification time:	15. 06. 2019 20:36

#	Program:	/corina/corina34_cracker 3.40 0067  02.08.2006

@<TRIPOS>MOLECULE
ASD03330244
  57   60    0    0    0
SMALL
NO_CHARGES


@<TRIPOS>ATOM
   1 C1            -0.1683     1.6113    -0.2622 C.3     
   2 N2            -0.2153     0.1416    -0.2858 N.am    
   3 C3             0.4156    -0.5544    -1.4236 C.3     
   4 C4             1.7334     0.1333    -1.6825 C.2     
   5 N5             2.1041     1.3121    -1.1092 N.pl3   
   6 C6             1.2903     2.0707    -0.1567 C.3     
   7 C7             2.7501    -0.2616    -2.4904 C.2     
   8 N8             3.7235     0.6735    -2.4107 N.2     
   9 C9             3.3424     1.6214    -1.5856 C.2     
  10 C10            4.1268     2.8253    -1.2328 C.ar    
  11 C11            5.2282     3.1949    -2.0053 C.ar    
  12 C12            2.7867    -1.4879    -3.3064 C.2     
  13 O13            1.8433    -2.2555    -3.2931 O.2     
  14 C14            3.9490    -2.9743    -4.7543 C.ar    
  15 N15            3.8654    -1.7589    -4.0675 N.am    
  16 C16            5.9556     4.3187    -1.6711 C.ar    
  17 C17            5.5948     5.0784    -0.5726 C.ar    
  18 C18            4.5037     4.7172     0.1974 C.ar    
  19 C19            3.7646     3.5989    -0.1297 C.ar    
  20 C20            4.5588    -3.0286    -6.0011 C.ar    
  21 C21           -0.8166    -0.5492     0.7030 C.2     
  22 O22           -1.3858     0.1060     1.7323 O.3     
  23 O23           -0.8451    -1.7634     0.6655 O.2     
  24 C24           -2.0152    -0.7024     2.7612 C.3     
  25 C25           -0.9731    -1.6295     3.3899 C.3     
  26 C26           -2.6020     0.2108     3.8394 C.3     
  27 C27           -3.1336    -1.5403     2.1384 C.3     
  28 C28            4.6401    -4.2305    -6.6765 C.ar    
  29 C29            4.1154    -5.3791    -6.1128 C.ar    
  30 C30            3.5076    -5.3284    -4.8717 C.ar    
  31 C31            3.4277    -4.1307    -4.1887 C.ar    
  32 H32           -0.6080     2.0041    -1.1790 H       
  33 H33           -0.7287     1.9794     0.5972 H       
  34 H34            0.5852    -1.6013    -1.1718 H       
  35 H35           -0.2220    -0.4810    -2.3046 H       
  36 H36            1.3549     3.1338    -0.3882 H       
  37 H37            1.6552     1.8946     0.8552 H       
  38 H38            5.5110     2.6025    -2.8629 H       
  39 H39            4.5838    -1.1111    -4.1389 H       
  40 H40            6.8086     4.6057    -2.2680 H       
  41 H41            6.1676     5.9570    -0.3148 H       
  42 H42            4.2271     5.3143     1.0538 H       
  43 H43            2.9131     3.3179     0.4722 H       
  44 H44            4.9685    -2.1319    -6.4420 H       
  45 H45           -0.1763    -1.0326     3.8336 H       
  46 H46           -1.4455    -2.2364     4.1623 H       
  47 H47           -0.5550    -2.2801     2.6218 H       
  48 H48           -3.3445     0.8713     3.3915 H       
  49 H49           -3.0745    -0.3961     4.6118 H       
  50 H50           -1.8052     0.8077     4.2831 H       
  51 H51           -2.7156    -2.1909     1.3702 H       
  52 H52           -3.6061    -2.1472     2.9108 H       
  53 H53           -3.8761    -0.8798     1.6905 H       
  54 H54            5.1138    -4.2734    -7.6461 H       
  55 H55            4.1800    -6.3176    -6.6433 H       
  56 H56            3.0985    -6.2271    -4.4344 H       
  57 H57            2.9529    -4.0918    -3.2194 H       
@<TRIPOS>BOND
   1    1    2 1
   2    1    6 1
   3    1   32 1
   4    1   33 1
   5    2    3 1
   6    2   21 am
   7    3    4 1
   8    3   34 1
   9    3   35 1
  10    4    5 1
  11    4    7 2
  12    5    6 1
  13    5    9 1
  14    6   36 1
  15    6   37 1
  16    7    8 1
  17    7   12 1
  18    8    9 2
  19    9   10 1
  20   10   11 ar
  21   10   19 ar
  22   11   16 ar
  23   11   38 1
  24   12   13 2
  25   12   15 am
  26   14   15 1
  27   14   20 ar
  28   14   31 ar
  29   15   39 1
  30   16   17 ar
  31   16   40 1
  32   17   18 ar
  33   17   41 1
  34   18   19 ar
  35   18   42 1
  36   19   43 1
  37   20   28 ar
  38   20   44 1
  39   21   22 1
  40   21   23 2
  41   22   24 1
  42   24   25 1
  43   24   26 1
  44   24   27 1
  45   25   45 1
  46   25   46 1
  47   25   47 1
  48   26   48 1
  49   26   49 1
  50   26   50 1
  51   27   51 1
  52   27   52 1
  53   27   53 1
  54   28   29 ar
  55   28   54 1
  56   29   30 ar
  57   29   55 1
  58   30   31 ar
  59   30   56 1
  60   31   57 1

#	End of record

