#	Name: ASD03430038
#	Creating user name:	WinNT
#	Creation time:	15. 06. 2019 20:40

#	Modifying user name:	WinNT
#	Modification time:	15. 06. 2019 20:40

#	Program:	/corina/corina34_cracker 3.40 0067  02.08.2006

@<TRIPOS>MOLECULE
ASD03430038
  40   44    0    0    0
SMALL
NO_CHARGES


@<TRIPOS>ATOM
   1 C1             0.0759     1.3796    -0.0525 C.ar    
   2 C2             0.0723    -0.0068    -0.0448 C.ar    
   3 C3             1.2620    -0.7039    -0.0447 C.ar    
   4 C4             2.4788    -0.0287    -0.0423 C.ar    
   5 C5             2.4788     1.3625    -0.0547 C.ar    
   6 C6             1.2854     2.0647    -0.0584 C.ar    
   7 O7             3.5275    -0.9003    -0.0137 O.3     
   8 C8             1.5868    -2.1737    -0.0589 C.3     
   9 C9             3.0754    -2.2021    -0.4328 C.3     
  10 C10            0.4289    -3.8586     1.0095 C.ar    
  11 C11            1.3298    -2.8282     1.2659 C.ar    
  12 C12            0.7497    -2.9325    -1.0482 C.2     
  13 N13            0.1098    -3.8937    -0.3529 N.am    
  14 O14            0.6658    -2.7217    -2.2390 O.2     
  15 C15            1.7876    -2.5999     2.5442 C.ar    
  16 C16            1.3544    -3.3980     3.5884 C.ar    
  17 C17            0.4609    -4.4245     3.3449 C.ar    
  18 C18           -0.0017    -4.6562     2.0657 C.ar    
  19 C19           -0.7376    -4.7846    -0.9049 C.2     
  20 O20           -1.1080     2.0522    -0.0599 O.3     
  21 C21           -1.0639     3.4363     0.3043 C.3     
  22 C22            0.1043     4.0924    -0.4442 C.3     
  23 O23            1.3125     3.4262    -0.0633 O.3     
  24 O24           -1.1935    -5.6845    -0.2326 O.2     
  25 C25           -1.1183    -4.6621    -2.3578 C.3     
  26 H26           -0.8654    -0.5426    -0.0384 H       
  27 H27            3.4164     1.8985    -0.0608 H       
  28 H28            3.2020    -2.3282    -1.5080 H       
  29 H29            3.5969    -2.9875     0.1142 H       
  30 H30            2.4857    -1.7975     2.7320 H       
  31 H31            1.7138    -3.2197     4.5911 H       
  32 H32            0.1231    -5.0476     4.1598 H       
  33 H33           -0.7001    -5.4595     1.8834 H       
  34 H34           -1.9991     3.9205     0.0231 H       
  35 H35           -0.9100     3.5288     1.3794 H       
  36 H36           -0.0460     3.9934    -1.5193 H       
  37 H37            0.1659     5.1473    -0.1768 H       
  38 H38           -0.6950    -3.7454    -2.7683 H       
  39 H39           -0.7312    -5.5194    -2.9084 H       
  40 H40           -2.2042    -4.6328    -2.4476 H       
@<TRIPOS>BOND
   1    1    2 ar
   2    1    6 ar
   3    1   20 1
   4    2    3 ar
   5    2   26 1
   6    3    4 ar
   7    3    8 1
   8    4    5 ar
   9    4    7 1
  10    5    6 ar
  11    5   27 1
  12    6   23 1
  13    7    9 1
  14    8    9 1
  15    8   11 1
  16    8   12 1
  17    9   28 1
  18    9   29 1
  19   10   11 ar
  20   10   13 1
  21   10   18 ar
  22   11   15 ar
  23   12   13 am
  24   12   14 2
  25   13   19 am
  26   15   16 ar
  27   15   30 1
  28   16   17 ar
  29   16   31 1
  30   17   18 ar
  31   17   32 1
  32   18   33 1
  33   19   24 2
  34   19   25 1
  35   20   21 1
  36   21   22 1
  37   21   34 1
  38   21   35 1
  39   22   23 1
  40   22   36 1
  41   22   37 1
  42   25   38 1
  43   25   39 1
  44   25   40 1

#	End of record

