#	Name: ASD07930368
#	Creating user name:	WinNT
#	Creation time:	15. 06. 2019 21:12

#	Modifying user name:	WinNT
#	Modification time:	15. 06. 2019 21:12

#	Program:	/corina/corina34_cracker 3.40 0067  02.08.2006

@<TRIPOS>MOLECULE
ASD07930368
  49   50    0    0    0
SMALL
NO_CHARGES


@<TRIPOS>ATOM
   1 N1            -0.0120     1.4568     0.1319 N.pl3   
   2 C2             0.0021    -0.0041     0.0020 C.3     
   3 C3             0.8071    -0.6058     1.1627 C.3     
   4 N4             2.1274     1.7751     1.0548 N.am    
   5 C5             1.1655     2.1535     0.1462 C.2     
   6 C6            -1.4106    -0.5271     0.0446 C.ar    
   7 C7            -1.6468    -1.8872    -0.0473 C.ar    
   8 C8             2.8201     2.7562     1.8938 C.3     
   9 C9             0.6526    -0.3929    -1.3271 C.3     
  10 C10           -2.4675     0.3515     0.1810 C.ar    
  11 C11           -3.7700    -0.1300     0.2204 C.ar    
  12 C12           -4.0068    -1.4946     0.1224 C.ar    
  13 C13           -2.9448    -2.3713    -0.0089 C.ar    
  14 N14           -4.8403     0.7577     0.3588 N.pl3   
  15 Cl15          -0.3154    -2.9889    -0.2115 Cl      
  16 F16           -3.1733    -3.6994    -0.1043 F       
  17 S17            2.4652     0.1464     1.1542 S.o2    
  18 O18            3.0972    -0.0113     2.4171 O.2     
  19 O19            3.1483    -0.1517    -0.0557 O.2     
  20 N20            1.3732     3.1602    -0.6885 N.2     
  21 O21            0.6349     4.5366    -2.4145 O.3     
  22 C22           -0.4221     4.8560    -3.3216 C.3     
  23 C23           -1.6773     5.2300    -2.5307 C.3     
  24 C24           -0.0017     6.0365    -4.1993 C.3     
  25 C25           -0.7190     3.6433    -4.2059 C.3     
  26 C26            0.4232     3.5106    -1.5638 C.2     
  27 O27           -0.6317     2.9039    -1.5926 O.2     
  28 H28           -0.8561     1.9293     0.2036 H       
  29 H29            0.3092    -0.3880     2.1075 H       
  30 H30            0.8920    -1.6845     1.0311 H       
  31 H31            2.4476     3.7552     1.6676 H       
  32 H32            2.6373     2.5294     2.9442 H       
  33 H33            3.8908     2.7137     1.6939 H       
  34 H34            1.6751    -0.0162    -1.3551 H       
  35 H35            0.6627    -1.4786    -1.4228 H       
  36 H36            0.0836     0.0391    -2.1503 H       
  37 H37           -2.2813     1.4126     0.2574 H       
  38 H38           -5.0184    -1.8714     0.1531 H       
  39 H39           -4.6740     1.7109     0.4275 H       
  40 H40           -5.7495     0.4207     0.3862 H       
  41 H41           -1.4657     6.0940    -1.9006 H       
  42 H42           -2.4835     5.4736    -3.2226 H       
  43 H43           -1.9768     4.3890    -1.9054 H       
  44 H44            0.8925     5.7701    -4.7628 H       
  45 H45           -0.8080     6.2801    -4.8912 H       
  46 H46            0.2099     6.9005    -3.5693 H       
  47 H47           -1.0185     2.8022    -3.5806 H       
  48 H48           -1.5253     3.8869    -4.8978 H       
  49 H49            0.1752     3.3768    -4.7694 H       
@<TRIPOS>BOND
   1    1    2 1
   2    1    5 1
   3    1   28 1
   4    2    3 1
   5    2    6 1
   6    2    9 1
   7    3   17 1
   8    3   29 1
   9    3   30 1
  10    4    5 1
  11    4    8 1
  12    4   17 am
  13    5   20 2
  14    6   10 ar
  15    6    7 ar
  16    7   15 1
  17    7   13 ar
  18    8   31 1
  19    8   32 1
  20    8   33 1
  21    9   34 1
  22    9   35 1
  23    9   36 1
  24   10   11 ar
  25   10   37 1
  26   11   12 ar
  27   11   14 1
  28   12   13 ar
  29   12   38 1
  30   13   16 1
  31   14   39 1
  32   14   40 1
  33   17   18 2
  34   17   19 2
  35   20   26 1
  36   21   22 1
  37   21   26 1
  38   22   23 1
  39   22   24 1
  40   22   25 1
  41   23   41 1
  42   23   42 1
  43   23   43 1
  44   24   44 1
  45   24   45 1
  46   24   46 1
  47   25   47 1
  48   25   48 1
  49   25   49 1
  50   26   27 2

#	End of record

