#	Name: ASD01940530
#	Creating user name:	WinNT
#	Creation time:	15. 06. 2019 20:12

#	Modifying user name:	WinNT
#	Modification time:	15. 06. 2019 20:12

#	Program:	/corina/corina34_cracker 3.40 0067  02.08.2006

@<TRIPOS>MOLECULE
ASD01940530
  36   38    0    0    0
SMALL
NO_CHARGES


@<TRIPOS>ATOM
   1 C1             0.3268     0.9815     1.1563 C.ar    
   2 C2            -0.1485     0.2377     0.0920 C.ar    
   3 C3             0.6514     0.0188    -1.0166 C.ar    
   4 C4             1.9327     0.5444    -1.0645 C.ar    
   5 C5             2.4152     1.2925     0.0012 C.ar    
   6 C6             1.6078     1.5115     1.1162 C.ar    
   7 N7             2.0894     2.2662     2.1943 N.am    
   8 S8             1.6715     1.8570     3.7436 S.o2    
   9 C9             2.2855     0.1620     3.9453 C.3     
  10 O10            2.4138     2.7562     4.5558 O.2     
  11 O11            0.2507     1.8755     3.7398 O.2     
  12 F12            0.1821    -0.7091    -2.0534 F       
  13 F13            2.7118     0.3288    -2.1468 F       
  14 N14            3.7109     1.8253    -0.0438 N.pl3   
  15 C15            4.8065     1.0299     0.3067 C.ar    
  16 C16            6.0775     1.5905     0.3880 C.ar    
  17 C17            4.6277    -0.3193     0.5799 C.ar    
  18 C18            5.7119    -1.1029     0.9260 C.ar    
  19 C19            6.9754    -0.5451     1.0007 C.ar    
  20 C20            7.1578     0.8009     0.7348 C.ar    
  21 F21            6.2554     2.9042     0.1280 F       
  22 Br22           8.4556    -1.6222     1.4747 Br      
  23 C23            1.9510    -0.5597     5.2523 C.3     
  24 C24            1.2531    -0.9671     3.9531 C.3     
  25 H25           -0.3015     1.1537     2.0177 H       
  26 H26           -1.1464    -0.1739     0.1258 H       
  27 H27            2.6675     3.0282     2.0331 H       
  28 H28            3.2541    -0.0445     3.4900 H       
  29 H29            3.8476     2.7456    -0.3180 H       
  30 H30            3.6416    -0.7562     0.5223 H       
  31 H31            5.5725    -2.1525     1.1388 H       
  32 H32            8.1456     1.2336     0.7935 H       
  33 H33            2.6994    -1.2412     5.6567 H       
  34 H34            1.3620    -0.0160     5.9909 H       
  35 H35            0.2049    -0.6915     3.8371 H       
  36 H36            1.5423    -1.9167     3.5028 H       
@<TRIPOS>BOND
   1    1    2 ar
   2    1    6 ar
   3    1   25 1
   4    2    3 ar
   5    2   26 1
   6    3    4 ar
   7    3   12 1
   8    4    5 ar
   9    4   13 1
  10    5    6 ar
  11    5   14 1
  12    6    7 1
  13    7    8 am
  14    7   27 1
  15    8    9 1
  16    8   10 2
  17    8   11 2
  18    9   23 1
  19    9   24 1
  20    9   28 1
  21   14   15 1
  22   14   29 1
  23   15   16 ar
  24   15   17 ar
  25   16   21 1
  26   16   20 ar
  27   17   18 ar
  28   17   30 1
  29   18   19 ar
  30   18   31 1
  31   19   20 ar
  32   19   22 1
  33   20   32 1
  34   23   24 1
  35   23   33 1
  36   23   34 1
  37   24   35 1
  38   24   36 1

#	End of record

