#	Name: ASD02039140
#	Creating user name:	WinNT
#	Creation time:	15. 06. 2019 20:17

#	Modifying user name:	WinNT
#	Modification time:	15. 06. 2019 20:17

#	Program:	/corina/corina34_cracker 3.40 0067  02.08.2006

@<TRIPOS>MOLECULE
ASD02039140
  41   44    0    0    0
SMALL
NO_CHARGES


@<TRIPOS>ATOM
   1 N1            -0.3571     1.8873     0.2997 N.am    
   2 C2            -0.4060     0.5471     0.4103 C.2     
   3 C3             0.8578    -0.2628     0.5188 C.3     
   4 C4             1.9581     0.3727    -0.3317 C.3     
   5 C5             2.0327     1.8486    -0.0385 C.ar    
   6 C6             3.2488     2.5016    -0.0727 C.ar    
   7 C7             3.3138     3.8607     0.1974 C.ar    
   8 C8             2.1574     4.5642     0.5020 C.ar    
   9 C9             0.9408     3.9121     0.5370 C.ar    
  10 C10            0.8750     2.5519     0.2662 C.ar    
  11 O11           -1.4810    -0.0146     0.4231 O.2     
  12 O12            4.5114     4.5036     0.1640 O.3     
  13 C13            4.5047     5.9032     0.4524 C.3     
  14 O14            6.7953     6.5085     1.3677 O.3     
  15 N15            7.8342     6.9910     0.9688 N.2     
  16 C16            7.7369     7.2805    -0.3014 C.2     
  17 N17            6.4954     6.9274    -0.6979 N.2     
  18 C18            5.9103     6.4402     0.3685 C.2     
  19 N19            8.7263     7.8462    -1.0960 N.pl3   
  20 C20            9.9304     8.2650    -0.5212 C.ar    
  21 C21           11.0983     8.2616    -1.2730 C.ar    
  22 C22           12.2867     8.6764    -0.7025 C.ar    
  23 C23           12.3131     9.0947     0.6178 C.ar    
  24 C24           11.1508     9.0983     1.3681 C.ar    
  25 C25            9.9593     8.6904     0.8005 C.ar    
  26 Cl26          13.8073     9.6148     1.3323 Cl      
  27 Cl27          13.7473     8.6728    -1.6407 Cl      
  28 H28           -1.1808     2.3961     0.2388 H       
  29 H29            1.1785    -0.2956     1.5600 H       
  30 H30            0.6690    -1.2772     0.1674 H       
  31 H31            2.9147    -0.0933    -0.0952 H       
  32 H32            1.7329     0.2232    -1.3877 H       
  33 H33            4.1493     1.9543    -0.3094 H       
  34 H34            2.2089     5.6223     0.7122 H       
  35 H35            0.0409     4.4598     0.7749 H       
  36 H36            3.8745     6.4202    -0.2713 H       
  37 H37            4.1131     6.0654     1.4566 H       
  38 H38            8.5818     7.9506    -2.0495 H       
  39 H39           11.0779     7.9348    -2.3022 H       
  40 H40           11.1743     9.4242     2.3974 H       
  41 H41            9.0515     8.6980     1.3856 H       
@<TRIPOS>BOND
   1    1    2 am
   2    1   10 1
   3    1   28 1
   4    2    3 1
   5    2   11 2
   6    3    4 1
   7    3   29 1
   8    3   30 1
   9    4    5 1
  10    4   31 1
  11    4   32 1
  12    5    6 ar
  13    5   10 ar
  14    6    7 ar
  15    6   33 1
  16    7    8 ar
  17    7   12 1
  18    8    9 ar
  19    8   34 1
  20    9   10 ar
  21    9   35 1
  22   12   13 1
  23   13   18 1
  24   13   36 1
  25   13   37 1
  26   14   15 1
  27   14   18 1
  28   15   16 2
  29   16   17 1
  30   16   19 1
  31   17   18 2
  32   19   20 1
  33   19   38 1
  34   20   21 ar
  35   20   25 ar
  36   21   22 ar
  37   21   39 1
  38   22   23 ar
  39   22   27 1
  40   23   24 ar
  41   23   26 1
  42   24   25 ar
  43   24   40 1
  44   25   41 1

#	End of record

