#	Name: ASD02030157
#	Creating user name:	WinNT
#	Creation time:	15. 06. 2019 20:14

#	Modifying user name:	WinNT
#	Modification time:	15. 06. 2019 20:14

#	Program:	/corina/corina34_cracker 3.40 0067  02.08.2006

@<TRIPOS>MOLECULE
ASD02030157
  58   61    0    0    0
SMALL
NO_CHARGES


@<TRIPOS>ATOM
   1 N1            -0.1362     1.6277    -0.2921 N.am    
   2 C2            -0.2333     0.1643    -0.3864 C.3     
   3 C3            -1.0511    -0.3503     0.8047 C.3     
   4 N4            -2.2884     0.4369     0.9000 N.am    
   5 C5            -2.1913     1.9003     0.9944 C.3     
   6 C6            -1.3734     2.4146    -0.1911 C.3     
   7 C7             1.0660     2.2369    -0.2926 C.2     
   8 C8             2.3037     1.4296    -0.2473 C.2     
   9 N9             3.5264     1.8950    -0.1090 N.2     
  10 N10            2.3776     0.0888    -0.3344 N.2     
  11 C11            3.6425    -0.2372    -0.2526 C.2     
  12 N12            4.3490     0.9032    -0.1118 N.pl3   
  13 O13            1.1327     3.4500    -0.3303 O.2     
  14 C14           -3.4907    -0.1722     0.9006 C.2     
  15 C15           -3.5718    -1.6512     0.8701 C.ar    
  16 O16           -4.5081     0.4917     0.9260 O.2     
  17 C17           -1.0292     3.8898     0.0239 C.3     
  18 C18           -2.1814     2.2548    -1.4804 C.3     
  19 N19           -2.4989    -2.3752     1.1686 N.ar    
  20 C20            5.7421     0.9940     0.0098 C.ar    
  21 C21            6.3483     2.2347     0.1496 C.ar    
  22 C22            7.7240     2.3208     0.2694 C.ar    
  23 C23            8.4945     1.1702     0.2498 C.ar    
  24 C24            7.8913    -0.0661     0.1105 C.ar    
  25 C25            6.5181    -0.1578    -0.0036 C.ar    
  26 F26            8.3158     3.5277     0.4051 F       
  27 C27            9.9928     1.2659     0.3799 C.3     
  28 C28           -2.5297    -3.6940     1.1532 C.ar    
  29 C29           -3.6976    -4.3754     0.8206 C.ar    
  30 C30           -4.8355    -3.6546     0.5038 C.ar    
  31 C31           -4.7728    -2.2689     0.5345 C.ar    
  32 O32           -1.4103    -4.3945     1.4645 O.3     
  33 C33           -0.2437    -3.6390     1.7966 C.3     
  34 H34           -0.7300    -0.1101    -1.3170 H       
  35 H35            0.7656    -0.2711    -0.3598 H       
  36 H36           -1.2970    -1.4013     0.6528 H       
  37 H37           -0.4732    -0.2361     1.7218 H       
  38 H38           -3.1902     2.3357     0.9677 H       
  39 H39           -1.6946     2.1748     1.9250 H       
  40 H40            4.0470    -1.2379    -0.2887 H       
  41 H41           -0.2738     3.9766     0.8049 H       
  42 H42           -0.6428     4.3117    -0.9039 H       
  43 H43           -1.9259     4.4321     0.3239 H       
  44 H44           -3.1060     2.8270    -1.4030 H       
  45 H45           -1.5965     2.6220    -2.3237 H       
  46 H46           -2.4176     1.2017    -1.6331 H       
  47 H47            5.7470     3.1317     0.1645 H       
  48 H48            8.4946    -0.9618     0.0955 H       
  49 H49            6.0484    -1.1242    -0.1123 H       
  50 H50           10.2700     1.2153     1.4328 H       
  51 H51           10.4577     0.4400    -0.1584 H       
  52 H52           10.3343     2.2117    -0.0407 H       
  53 H53           -3.7151    -5.4552     0.8098 H       
  54 H54           -5.7536    -4.1597     0.2425 H       
  55 H55           -5.6430    -1.6769     0.2925 H       
  56 H56           -0.4501    -3.0152     2.6662 H       
  57 H57            0.5771    -4.3192     2.0240 H       
  58 H58            0.0319    -3.0064     0.9528 H       
@<TRIPOS>BOND
   1    1    2 1
   2    1    7 am
   3    1    6 1
   4    2    3 1
   5    2   34 1
   6    2   35 1
   7    3    4 1
   8    3   36 1
   9    3   37 1
  10    4    5 1
  11    4   14 am
  12    5    6 1
  13    5   38 1
  14    5   39 1
  15    6   17 1
  16    6   18 1
  17    7    8 1
  18    7   13 2
  19    8    9 2
  20    8   10 1
  21    9   12 1
  22   10   11 2
  23   11   12 1
  24   11   40 1
  25   12   20 1
  26   14   15 1
  27   14   16 2
  28   15   19 ar
  29   15   31 ar
  30   17   41 1
  31   17   42 1
  32   17   43 1
  33   18   44 1
  34   18   45 1
  35   18   46 1
  36   19   28 ar
  37   20   21 ar
  38   20   25 ar
  39   21   22 ar
  40   21   47 1
  41   22   23 ar
  42   22   26 1
  43   23   24 ar
  44   23   27 1
  45   24   25 ar
  46   24   48 1
  47   25   49 1
  48   27   50 1
  49   27   51 1
  50   27   52 1
  51   28   29 ar
  52   28   32 1
  53   29   30 ar
  54   29   53 1
  55   30   31 ar
  56   30   54 1
  57   31   55 1
  58   32   33 1
  59   33   56 1
  60   33   57 1
  61   33   58 1

#	End of record

