#	Name: ASD09720008
#	Creating user name:	WinNT
#	Creation time:	15. 06. 2019 21:22

#	Modifying user name:	WinNT
#	Modification time:	15. 06. 2019 21:22

#	Program:	/corina/corina34_cracker 3.40 0067  02.08.2006

@<TRIPOS>MOLECULE
ASD09720008
  33   34    0    0    0
SMALL
NO_CHARGES


@<TRIPOS>ATOM
   1 C1            -0.2511     0.3312     0.8694 C.2     
   2 S2             0.1834     1.1168    -0.6387 S.3     
   3 C3            -1.4300     1.5667    -0.9541 C.2     
   4 C4            -2.2543     1.1398     0.0386 C.2     
   5 C5            -1.5601     0.4231     1.0830 C.2     
   6 Cl6            0.8709    -0.4619     1.9305 Cl      
   7 Cl7           -1.9502     2.4514    -2.3542 Cl      
   8 C8            -3.7074     1.3798     0.0464 C.2     
   9 N9            -4.5290     0.3828    -0.0486 N.2     
  10 C10           -4.2383     2.7851     0.1650 C.3     
  11 O11           -4.0331    -0.9244    -0.2734 O.3     
  12 S12           -6.0519     2.7500     0.1455 S.3     
  13 C13           -6.4956     4.5024     0.2954 C.3     
  14 C14           -8.0126     4.6570     0.1689 C.3     
  15 C15           -8.3868     6.1352     0.2954 C.3     
  16 C16           -7.9324     6.6616     1.6582 C.3     
  17 C17           -6.4155     6.5070     1.7846 C.3     
  18 C18           -6.0412     5.0288     1.6582 C.3     
  19 H19           -2.0525     0.0106     1.9512 H       
  20 H20           -3.8936     3.2260     1.1003 H       
  21 H21           -3.8774     3.3818    -0.6727 H       
  22 H22           -4.7210    -1.6017    -0.3297 H       
  23 H23           -6.0054     5.0703    -0.4954 H       
  24 H24           -8.3363     4.2820    -0.8020 H       
  25 H25           -8.5028     4.0892     0.9597 H       
  26 H26           -7.8966     6.7030    -0.4954 H       
  27 H27           -9.4675     6.2453     0.2053 H       
  28 H28           -8.1990     7.7146     1.7482 H       
  29 H29           -8.4226     6.0937     2.4489 H       
  30 H30           -5.9252     7.0748     0.9938 H       
  31 H31           -6.0917     6.8820     2.7555 H       
  32 H32           -6.5314     4.4610     2.4489 H       
  33 H33           -4.9605     4.9187     1.7482 H       
@<TRIPOS>BOND
   1    1    2 1
   2    1    6 1
   3    1    5 2
   4    2    3 1
   5    3    4 2
   6    3    7 1
   7    4    5 1
   8    4    8 1
   9    5   19 1
  10    8    9 2
  11    8   10 1
  12    9   11 1
  13   10   12 1
  14   10   20 1
  15   10   21 1
  16   11   22 1
  17   12   13 1
  18   13   14 1
  19   13   18 1
  20   13   23 1
  21   14   15 1
  22   14   24 1
  23   14   25 1
  24   15   16 1
  25   15   26 1
  26   15   27 1
  27   16   17 1
  28   16   28 1
  29   16   29 1
  30   17   18 1
  31   17   30 1
  32   17   31 1
  33   18   32 1
  34   18   33 1

#	End of record

