#	Name: ASD07931935
#	Creating user name:	WinNT
#	Creation time:	15. 06. 2019 21:13

#	Modifying user name:	WinNT
#	Modification time:	15. 06. 2019 21:13

#	Program:	/corina/corina34_cracker 3.40 0067  02.08.2006

@<TRIPOS>MOLECULE
ASD07931935
  28   28    0    0    0
SMALL
NO_CHARGES


@<TRIPOS>ATOM
   1 C1            -0.0184     1.5028     0.0103 C.2     
   2 C2             0.0021    -0.0041     0.0020 C.3     
   3 O3            -1.3386    -0.4987     0.0122 O.3     
   4 C4            -1.4792    -2.4258    -1.4394 C.3     
   5 C5            -1.4321    -1.9246     0.0054 C.3     
   6 C6            -2.6859    -2.3492     0.7255 C.2     
   7 C7            -2.6051    -3.1143     1.7858 C.2     
   8 F8            -0.3152    -2.0316    -2.1080 F       
   9 F9            -1.5707    -3.8218    -1.4461 F       
  10 F10           -2.5948    -1.8822    -2.0854 F       
  11 C11            1.2444     2.2549     0.0023 C.ar    
  12 C12            1.2302     3.6564     0.0099 C.ar    
  13 C13            2.4233     4.3544     0.0023 C.ar    
  14 C14            3.6263     3.6730    -0.0134 C.ar    
  15 C15            3.6474     2.2884    -0.0210 C.ar    
  16 C16            2.4678     1.5761    -0.0073 C.ar    
  17 F17            0.0549     4.3225     0.0243 F       
  18 O18           -1.0767     2.0948     0.0185 O.2     
  19 H19            0.5123    -0.3556    -0.8948 H       
  20 H20            0.5293    -0.3651     0.8851 H       
  21 H21           -0.5629    -2.3481     0.5087 H       
  22 H22           -3.6511    -2.0228     0.3675 H       
  23 H23           -1.6399    -3.4408     2.1439 H       
  24 H24           -3.5037    -3.4186     2.3019 H       
  25 H25            2.4157     5.4344     0.0081 H       
  26 H26            4.5552     4.2240    -0.0201 H       
  27 H27            4.5919     1.7649    -0.0336 H       
  28 H28            2.4876     0.4963    -0.0087 H       
@<TRIPOS>BOND
   1    1    2 1
   2    1   11 1
   3    1   18 2
   4    2    3 1
   5    2   19 1
   6    2   20 1
   7    3    5 1
   8    4    5 1
   9    4    8 1
  10    4    9 1
  11    4   10 1
  12    5    6 1
  13    5   21 1
  14    6    7 2
  15    6   22 1
  16    7   23 1
  17    7   24 1
  18   11   12 ar
  19   11   16 ar
  20   12   13 ar
  21   12   17 1
  22   13   14 ar
  23   13   25 1
  24   14   15 ar
  25   14   26 1
  26   15   16 ar
  27   15   27 1
  28   16   28 1

#	End of record

