#	Name: ASD08070365
#	Creating user name:	WinNT
#	Creation time:	15. 06. 2019 21:14

#	Modifying user name:	WinNT
#	Modification time:	15. 06. 2019 21:14

#	Program:	/corina/corina34_cracker 3.40 0067  02.08.2006

@<TRIPOS>MOLECULE
ASD08070365
  43   44    0    0    0
SMALL
NO_CHARGES


@<TRIPOS>ATOM
   1 O1            -0.0174     1.4354     0.0099 O.3     
   2 C2             0.0021    -0.0041     0.0020 C.3     
   3 O3             1.2438    -0.3266    -0.6516 O.3     
   4 C4             2.0691     0.7335    -0.4082 C.ar    
   5 C5             1.2912     1.8185    -0.0005 C.ar    
   6 C6             1.8951     3.0290     0.3108 C.ar    
   7 C7             3.2633     3.1655     0.2185 C.ar    
   8 C8             4.0471     2.0840    -0.1895 C.ar    
   9 C9             3.4405     0.8645    -0.5026 C.ar    
  10 C10            5.5127     2.2285    -0.2894 C.2     
  11 O11            6.1937     1.2859    -0.6447 O.2     
  12 N12            6.0961     3.4052     0.0132 N.am    
  13 C13            8.0728     4.7110    -2.7844 C.3     
  14 C14            7.3591     5.4740    -1.6666 C.3     
  15 C15            7.9039     5.0201    -0.3108 C.3     
  16 C16            7.5507     3.5485    -0.0859 C.3     
  17 C17            8.2008     3.0603     1.2101 C.3     
  18 C18            7.9521     1.5593     1.3715 C.3     
  19 C19            8.6022     1.0710     2.6676 C.3     
  20 C20            7.6025     6.9748    -1.8376 C.3     
  21 H21           -0.0068    -0.3927     1.0203 H       
  22 H22           -0.8423    -0.3953    -0.5655 H       
  23 H23            1.2907     3.8666     0.6262 H       
  24 H24            3.7294     4.1091     0.4612 H       
  25 H25            4.0434     0.0258    -0.8180 H       
  26 H26            5.5528     4.1571     0.2967 H       
  27 H27            9.1428     4.9133    -2.7366 H       
  28 H28            7.8994     3.6418    -2.6626 H       
  29 H29            7.6847     5.0343    -3.7502 H       
  30 H30            6.2891     5.2716    -1.7144 H       
  31 H31            8.9872     5.1401    -0.2960 H       
  32 H32            7.4605     5.6252     0.4799 H       
  33 H33            7.9181     2.9547    -0.9229 H       
  34 H34            9.2737     3.2488     1.1719 H       
  35 H35            7.7682     3.5933     2.0568 H       
  36 H36            6.8792     1.3708     1.4098 H       
  37 H37            8.3846     1.0262     0.5248 H       
  38 H38            8.1697     1.6041     3.5143 H       
  39 H39            8.4251     0.0017     2.7825 H       
  40 H40            9.6751     1.2595     2.6293 H       
  41 H41            7.2144     7.2981    -2.8034 H       
  42 H42            7.0940     7.5183    -1.0412 H       
  43 H43            8.6725     7.1771    -1.7898 H       
@<TRIPOS>BOND
   1    1    2 1
   2    1    5 1
   3    2    3 1
   4    2   21 1
   5    2   22 1
   6    3    4 1
   7    4    5 ar
   8    4    9 ar
   9    5    6 ar
  10    6    7 ar
  11    6   23 1
  12    7    8 ar
  13    7   24 1
  14    8    9 ar
  15    8   10 1
  16    9   25 1
  17   10   11 2
  18   10   12 am
  19   12   16 1
  20   12   26 1
  21   13   14 1
  22   13   27 1
  23   13   28 1
  24   13   29 1
  25   14   15 1
  26   14   20 1
  27   14   30 1
  28   15   16 1
  29   15   31 1
  30   15   32 1
  31   16   17 1
  32   16   33 1
  33   17   18 1
  34   17   34 1
  35   17   35 1
  36   18   19 1
  37   18   36 1
  38   18   37 1
  39   19   38 1
  40   19   39 1
  41   19   40 1
  42   20   41 1
  43   20   42 1
  44   20   43 1

#	End of record

