#	Name: ASD00960288
#	Creating user name:	WinNT
#	Creation time:	15. 06. 2019 18:53

#	Modifying user name:	WinNT
#	Modification time:	15. 06. 2019 18:53

#	Program:	/corina/corina34_cracker 3.40 0067  02.08.2006

@<TRIPOS>MOLECULE
ASD00960288
  39   42    0    0    0
SMALL
NO_CHARGES


@<TRIPOS>ATOM
   1 C1            -0.0167     1.3783     0.0096 C.2     
   2 C2             0.0021    -0.0041     0.0020 C.2     
   3 N3             1.2774     1.8199    -0.0004 N.pl3   
   4 C4             2.1091     0.7461    -0.0004 C.2     
   5 C5             1.3582    -0.3980    -0.0066 C.2     
   6 N6             1.7776     3.1313     0.0043 N.2     
   7 C7             3.0428     3.3120    -0.2321 C.2     
   8 N8             3.8852     2.2617    -0.5236 N.pl3   
   9 C9             3.6108     0.9183     0.0172 C.3     
  10 N10            4.1121     0.8179     1.3943 N.3     
  11 C11            1.8703    -1.7855    -0.0195 C.2     
  12 N12            1.1266    -2.9198    -0.0257 N.pl3   
  13 N13            2.0589    -3.9719    -0.0379 N.2     
  14 N14            3.2302    -3.4340    -0.0383 N.2     
  15 N15            3.1349    -2.1534    -0.0329 N.2     
  16 C16           -1.2133     2.2221     0.0201 C.2     
  17 O17           -2.3173     1.7117     0.0232 O.2     
  18 O18           -1.0912     3.5655     0.0263 O.3     
  19 C19           -2.3200     4.3390     0.0366 C.3     
  20 C20           -1.9882     5.8090     0.0423 C.ar    
  21 C21           -1.8422     6.4893    -1.1522 C.ar    
  22 C22           -1.5377     7.8377    -1.1469 C.ar    
  23 C23           -1.3798     8.5059     0.0529 C.ar    
  24 C24           -1.5267     7.8258     1.2474 C.ar    
  25 C25           -1.8354     6.4784     1.2421 C.ar    
  26 H26           -0.8572    -0.6584     0.0029 H       
  27 H27            3.4450     4.3137    -0.1988 H       
  28 H28            4.6615     2.4066    -1.0868 H       
  29 H29            4.0814     0.1603    -0.6090 H       
  30 H30            5.1077     0.9781     1.4293 H       
  31 H31            3.6219     1.4543     2.0049 H       
  32 H32            0.1591    -2.9899    -0.0220 H       
  33 H33           -2.9058     4.1023    -0.8516 H       
  34 H34           -2.8966     4.0932     0.9283 H       
  35 H35           -1.9656     5.9673    -2.0895 H       
  36 H36           -1.4230     8.3691    -2.0801 H       
  37 H37           -1.1412     9.5592     0.0570 H       
  38 H38           -1.4029     8.3478     2.1847 H       
  39 H39           -1.9538     5.9479     2.1753 H       
@<TRIPOS>BOND
   1    1    2 2
   2    1    3 1
   3    1   16 1
   4    2    5 1
   5    2   26 1
   6    3    4 1
   7    3    6 1
   8    4    5 2
   9    4    9 1
  10    5   11 1
  11    6    7 2
  12    7    8 1
  13    7   27 1
  14    8    9 1
  15    8   28 1
  16    9   10 1
  17    9   29 1
  18   10   30 1
  19   10   31 1
  20   11   12 1
  21   11   15 2
  22   12   13 1
  23   12   32 1
  24   13   14 2
  25   14   15 1
  26   16   17 2
  27   16   18 1
  28   18   19 1
  29   19   20 1
  30   19   33 1
  31   19   34 1
  32   20   21 ar
  33   20   25 ar
  34   21   22 ar
  35   21   35 1
  36   22   23 ar
  37   22   36 1
  38   23   24 ar
  39   23   37 1
  40   24   25 ar
  41   24   38 1
  42   25   39 1

#	End of record

