#	Name: ASD01190181
#	Creating user name:	WinNT
#	Creation time:	15. 06. 2019 19:07

#	Modifying user name:	WinNT
#	Modification time:	15. 06. 2019 19:07

#	Program:	/corina/corina34_cracker 3.40 0067  02.08.2006

@<TRIPOS>MOLECULE
ASD01190181
  48   52    0    0    0
SMALL
NO_CHARGES


@<TRIPOS>ATOM
   1 C1            -0.0187     1.5258     0.0104 C.3     
   2 C2             0.5214     0.1130    -0.2204 C.3     
   3 N3             3.1195     3.1620     1.0261 N.pl3   
   4 C4             2.3874     2.0743     0.6346 C.2     
   5 C5             1.1069     2.4292     0.4440 C.2     
   6 C6             1.0111     3.8612     0.7375 C.ar    
   7 C7            -0.0336     4.7875     0.7215 C.ar    
   8 C8             0.2090     6.0893     1.0574 C.ar    
   9 C9             1.4865     6.4992     1.4147 C.ar    
  10 C10            2.5316     5.6022     1.4368 C.ar    
  11 C11            2.3073     4.2714     1.0989 C.ar    
  12 C12            4.5528     3.1470     1.3289 C.3     
  13 N13           -2.4971     3.4623    -4.6496 N.pl3   
  14 N14           -3.8269     3.4272    -4.2173 N.2     
  15 C15           -3.8882     2.9845    -2.9933 C.2     
  16 C16           -2.5266     2.6972    -2.5535 C.ar    
  17 C17           -1.9706     2.2104    -1.3652 C.ar    
  18 C18           -0.6187     2.0494    -1.2689 C.ar    
  19 C19            0.2097     2.3643    -2.3392 C.ar    
  20 C20           -0.3097     2.8415    -3.5093 C.ar    
  21 C21           -1.6850     3.0161    -3.6369 C.ar    
  22 C22           -0.8597     4.5545    -6.0592 C.ar    
  23 C23           -2.0642     3.8802    -5.9150 C.ar    
  24 C24           -2.8364     3.6242    -7.0457 C.ar    
  25 C25           -2.3675     4.0558    -8.2748 C.ar    
  26 C26           -1.1550     4.7230    -8.3395 C.ar    
  27 N27           -0.4475     4.9495    -7.2478 N.ar    
  28 F28           -0.6903     5.1470    -9.5351 F       
  29 F29            1.0784    -0.3732     0.9673 F       
  30 F30           -0.5235    -0.7257    -0.6229 F       
  31 F31            1.5030     0.1460    -1.2166 F       
  32 O32           -1.0214     1.4921     1.0280 O.3     
  33 H33            2.7815     1.0780     0.4987 H       
  34 H34           -1.0298     4.4760     0.4442 H       
  35 H35           -0.5993     6.8055     1.0445 H       
  36 H36            1.6626     7.5318     1.6777 H       
  37 H37            3.5218     5.9308     1.7158 H       
  38 H38            5.1182     3.3564     0.4208 H       
  39 H39            4.7739     3.9074     2.0779 H       
  40 H40            4.8328     2.1662     1.7131 H       
  41 H41           -4.7866     2.8540    -2.4083 H       
  42 H42           -2.6077     1.9639    -0.5287 H       
  43 H43            1.2772     2.2304    -2.2448 H       
  44 H44            0.3453     3.0830    -4.3334 H       
  45 H45           -0.2557     4.7618    -5.1882 H       
  46 H46           -3.7780     3.1013    -6.9656 H       
  47 H47           -2.9399     3.8743    -9.1725 H       
  48 H48           -1.4089     2.3553     1.2270 H       
@<TRIPOS>BOND
   1    1    2 1
   2    1    5 1
   3    1   18 1
   4    1   32 1
   5    2   29 1
   6    2   30 1
   7    2   31 1
   8    3    4 1
   9    3   11 1
  10    3   12 1
  11    4    5 2
  12    4   33 1
  13    5    6 1
  14    6    7 ar
  15    6   11 ar
  16    7    8 ar
  17    7   34 1
  18    8    9 ar
  19    8   35 1
  20    9   10 ar
  21    9   36 1
  22   10   11 ar
  23   10   37 1
  24   12   38 1
  25   12   39 1
  26   12   40 1
  27   13   14 1
  28   13   21 1
  29   13   23 1
  30   14   15 2
  31   15   16 1
  32   15   41 1
  33   16   17 ar
  34   16   21 ar
  35   17   18 ar
  36   17   42 1
  37   18   19 ar
  38   19   20 ar
  39   19   43 1
  40   20   21 ar
  41   20   44 1
  42   22   23 ar
  43   22   27 ar
  44   22   45 1
  45   23   24 ar
  46   24   25 ar
  47   24   46 1
  48   25   26 ar
  49   25   47 1
  50   26   27 ar
  51   26   28 1
  52   32   48 1

#	End of record

