#	Name: ASD02500889
#	Creating user name:	WinNT
#	Creation time:	15. 06. 2019 20:23

#	Modifying user name:	WinNT
#	Modification time:	15. 06. 2019 20:23

#	Program:	/corina/corina34_cracker 3.40 0067  02.08.2006

@<TRIPOS>MOLECULE
ASD02500889
  49   51    0    0    0
SMALL
NO_CHARGES


@<TRIPOS>ATOM
   1 C1            -0.0168     1.3848     0.0097 C.ar    
   2 C2            -0.0502     0.0891     0.5090 C.ar    
   3 C3            -1.2363    -0.6173     0.5163 C.ar    
   4 C4            -2.3957    -0.0326     0.0247 C.ar    
   5 C5            -2.3625     1.2623    -0.4749 C.ar    
   6 C6            -1.1780     1.9714    -0.4768 C.ar    
   7 N7            -3.6010    -0.7508     0.0323 N.am    
   8 C8            -4.4202    -0.6818     1.0881 C.2     
   9 S9            -5.8163    -1.7108     0.7234 S.3     
  10 C10           -5.2181    -2.1993    -0.8746 C.2     
  11 C11           -3.9387    -1.4967    -1.0064 C.2     
  12 C12           -5.8142    -3.0332    -1.7751 C.2     
  13 O13           -3.2358    -1.5977    -1.9954 O.2     
  14 S14           -4.1677     0.2260     2.5174 S.2     
  15 N15            1.1847     2.1006     0.0020 N.pl3   
  16 C16            1.2198     3.4672    -0.5247 C.3     
  17 C17            2.4081     1.4838     0.5207 C.3     
  18 C18            0.9340     4.4571     0.6064 C.3     
  19 C19            3.1320     0.7549    -0.6131 C.3     
  20 C20           -7.0599    -3.6193    -1.4750 C.2     
  21 C21           -7.6515    -4.4469    -2.3686 C.2     
  22 C22           -8.9513    -5.0584    -2.0556 C.ar    
  23 C23           -9.5661    -5.9142    -2.9764 C.ar    
  24 C24          -10.7848    -6.4839    -2.6749 C.ar    
  25 C25          -11.4004    -6.2111    -1.4655 C.ar    
  26 C26          -10.7989    -5.3656    -0.5492 C.ar    
  27 C27           -9.5777    -4.7923    -0.8328 C.ar    
  28 H28            0.8517    -0.3659     0.8911 H       
  29 H29           -1.2624    -1.6249     0.9042 H       
  30 H30           -3.2644     1.7165    -0.8580 H       
  31 H31           -1.1523     2.9789    -0.8651 H       
  32 H32           -5.3313    -3.2441    -2.7178 H       
  33 H33            2.2052     3.6696    -0.9443 H       
  34 H34            0.4641     3.5763    -1.3026 H       
  35 H35            3.0591     2.2563     0.9300 H       
  36 H36            2.1516     0.7717     1.3051 H       
  37 H37            0.9601     5.4739     0.2145 H       
  38 H38           -0.0514     4.2547     1.0260 H       
  39 H39            1.6896     4.3481     1.3843 H       
  40 H40            2.4811    -0.0176    -1.0224 H       
  41 H41            3.3885     1.4670    -1.3974 H       
  42 H42            4.0423     0.2960    -0.2271 H       
  43 H43           -7.5428    -3.4084    -0.5323 H       
  44 H44           -7.1686    -4.6577    -3.3114 H       
  45 H45           -9.0874    -6.1275    -3.9207 H       
  46 H46          -11.2606    -7.1447    -3.3844 H       
  47 H47          -12.3554    -6.6601    -1.2356 H       
  48 H48          -11.2858    -5.1578     0.3922 H       
  49 H49           -9.1095    -4.1332    -0.1167 H       
@<TRIPOS>BOND
   1    1    2 ar
   2    1   15 1
   3    1    6 ar
   4    2    3 ar
   5    2   28 1
   6    3    4 ar
   7    3   29 1
   8    4    5 ar
   9    4    7 1
  10    5    6 ar
  11    5   30 1
  12    6   31 1
  13    7    8 am
  14    7   11 am
  15    8    9 1
  16    8   14 2
  17    9   10 1
  18   10   11 1
  19   10   12 2
  20   11   13 2
  21   12   20 1
  22   12   32 1
  23   15   16 1
  24   15   17 1
  25   16   18 1
  26   16   33 1
  27   16   34 1
  28   17   19 1
  29   17   35 1
  30   17   36 1
  31   18   37 1
  32   18   38 1
  33   18   39 1
  34   19   40 1
  35   19   41 1
  36   19   42 1
  37   20   21 2
  38   20   43 1
  39   21   22 1
  40   21   44 1
  41   22   23 ar
  42   22   27 ar
  43   23   24 ar
  44   23   45 1
  45   24   25 ar
  46   24   46 1
  47   25   26 ar
  48   25   47 1
  49   26   27 ar
  50   26   48 1
  51   27   49 1

#	End of record

