#	Name: ASD03090284
#	Creating user name:	WinNT
#	Creation time:	15. 06. 2019 20:28

#	Modifying user name:	WinNT
#	Modification time:	15. 06. 2019 20:28

#	Program:	/corina/corina34_cracker 3.40 0067  02.08.2006

@<TRIPOS>MOLECULE
ASD03090284
  56   59    0    0    0
SMALL
NO_CHARGES


@<TRIPOS>ATOM
   1 N1             0.4458     1.5134     1.4664 N.ar    
   2 C2             0.4078     0.1951     1.4315 C.ar    
   3 C3             1.5344    -0.5382     1.1212 C.ar    
   4 C4             2.7276     0.1371     0.8416 C.ar    
   5 C5             2.7220     1.5350     0.8902 C.ar    
   6 C6             1.5492     2.1887     1.2095 C.ar    
   7 C7             3.9616    -0.6072     0.5041 C.2     
   8 N8             5.7409    -3.4560    -0.5314 N.pl3   
   9 C9             4.8144    -4.4457    -0.8757 C.ar    
  10 C10            3.5980    -4.0918    -1.4446 C.ar    
  11 C11            2.6844    -5.0709    -1.7837 C.ar    
  12 C12            2.9806    -6.4041    -1.5564 C.ar    
  13 C13            4.1931    -6.7593    -0.9892 C.ar    
  14 C14            5.1119    -5.7844    -0.6542 C.ar    
  15 N15            4.0261    -1.8633     0.1104 N.2     
  16 C16            5.2976    -2.2023    -0.1059 C.2     
  17 N17            6.0658    -1.1672     0.1465 N.2     
  18 N18            5.2206    -0.1169     0.5398 N.pl3   
  19 C19            5.6242     1.2389     0.9208 C.3     
  20 F20            2.0853    -7.3599    -1.8880 F       
  21 C21            5.7280     2.1111    -0.3319 C.3     
  22 N22            6.1316     3.4669     0.0491 N.am    
  23 C23            6.2875     4.4145    -0.8966 C.2     
  24 O24            6.6584     5.6605    -0.5465 O.3     
  25 O25            6.0934     4.1442    -2.0653 O.2     
  26 C26            6.8071     6.6295    -1.6175 C.3     
  27 C27            7.2300     7.9776    -1.0305 C.3     
  28 C28           -0.8838    -0.5195     1.7353 C.3     
  29 C29           -1.7682    -0.9144     0.5509 C.3     
  30 C30           -0.9938    -1.9876     1.3186 C.3     
  31 C31            4.5123    -8.2114    -0.7425 C.3     
  32 F32            5.7830    -8.3183    -0.1671 F       
  33 F33            3.5601    -8.7574     0.1249 F       
  34 F34            4.4902    -8.9064    -1.9565 F       
  35 H35            1.4961    -1.6172     1.0948 H       
  36 H36            3.6219     2.0944     0.6813 H       
  37 H37            1.5347     3.2679     1.2493 H       
  38 H38            6.6915    -3.6407    -0.5883 H       
  39 H39            3.3662    -3.0519    -1.6214 H       
  40 H40            1.7383    -4.7961    -2.2261 H       
  41 H41            6.0574    -6.0619    -0.2123 H       
  42 H42            4.8821     1.6622     1.5977 H       
  43 H43            6.5926     1.2030     1.4198 H       
  44 H44            6.4701     1.6879    -1.0089 H       
  45 H45            4.7596     2.1470    -0.8309 H       
  46 H46            6.2866     3.6827     0.9820 H       
  47 H47            7.5675     6.2834    -2.3176 H       
  48 H48            5.8570     6.7426    -2.1397 H       
  49 H49            6.4697     8.3237    -0.3304 H       
  50 H50            8.1801     7.8645    -0.5084 H       
  51 H51            7.3417     8.7051    -1.8345 H       
  52 H52           -1.3818    -0.2190     2.6571 H       
  53 H53           -2.8481    -0.8739     0.6936 H       
  54 H54           -1.4159    -0.6572    -0.4480 H       
  55 H55           -0.1320    -2.4365     0.8247 H       
  56 H56           -1.5642    -2.6532     1.9664 H       
@<TRIPOS>BOND
   1    1    2 ar
   2    1    6 ar
   3    2    3 ar
   4    2   28 1
   5    3    4 ar
   6    3   35 1
   7    4    5 ar
   8    4    7 1
   9    5    6 ar
  10    5   36 1
  11    6   37 1
  12    7   15 2
  13    7   18 1
  14    8    9 1
  15    8   16 1
  16    8   38 1
  17    9   10 ar
  18    9   14 ar
  19   10   11 ar
  20   10   39 1
  21   11   12 ar
  22   11   40 1
  23   12   13 ar
  24   12   20 1
  25   13   14 ar
  26   13   31 1
  27   14   41 1
  28   15   16 1
  29   16   17 2
  30   17   18 1
  31   18   19 1
  32   19   21 1
  33   19   42 1
  34   19   43 1
  35   21   22 1
  36   21   44 1
  37   21   45 1
  38   22   23 am
  39   22   46 1
  40   23   24 1
  41   23   25 2
  42   24   26 1
  43   26   27 1
  44   26   47 1
  45   26   48 1
  46   27   49 1
  47   27   50 1
  48   27   51 1
  49   28   29 1
  50   28   30 1
  51   28   52 1
  52   29   30 1
  53   29   53 1
  54   29   54 1
  55   30   55 1
  56   30   56 1
  57   31   32 1
  58   31   33 1
  59   31   34 1

#	End of record

