#	Name: ASD01883700
#	Creating user name:	WinNT
#	Creation time:	15. 06. 2019 19:46

#	Modifying user name:	WinNT
#	Modification time:	15. 06. 2019 19:46

#	Program:	/corina/corina34_cracker 3.40 0067  02.08.2006

@<TRIPOS>MOLECULE
ASD01883700
  51   54    0    0    0
SMALL
NO_CHARGES


@<TRIPOS>ATOM
   1 C1            -0.0169     1.3984     0.0097 C.2     
   2 C2             0.0021    -0.0041     0.0020 C.2     
   3 C3            -1.2223    -0.7047     0.0099 C.2     
   4 C4            -2.3969    -0.0475     0.0242 C.2     
   5 N5            -2.4615     1.3157     0.0321 N.pl3   
   6 C6            -1.3172     2.0717     0.0319 C.2     
   7 C7            -3.5157     2.1918     0.0464 C.2     
   8 C8            -2.9979     3.4382     0.0483 C.2     
   9 N9            -1.6639     3.3462     0.0404 N.2     
  10 C10           -4.9788     1.8308     0.0574 C.3     
  11 C11           -5.5169     1.8388    -1.3749 C.3     
  12 C12            1.2855    -0.7368    -0.0146 C.ar    
  13 C13            1.6508    -1.5333     1.0733 C.ar    
  14 C14            2.8472    -2.2152     1.0546 C.ar    
  15 C15            3.6917    -2.1114    -0.0462 C.ar    
  16 C16            3.3308    -1.3185    -1.1310 C.ar    
  17 C17            2.1331    -0.6387    -1.1207 C.ar    
  18 F18           -4.8121     0.9058    -2.1430 F       
  19 F19           -6.8751     1.5038    -1.3647 F       
  20 F20           -5.3553     3.1143    -1.9266 F       
  21 N21            4.9015    -2.8026    -0.0621 N.pl3   
  22 C22            5.7918    -2.6943    -1.2205 C.3     
  23 C23            6.6770    -3.9396    -1.3015 C.3     
  24 C24            7.6069    -3.8265    -2.5113 C.3     
  25 C25            8.4871    -2.5838    -2.3636 C.3     
  26 C26            7.6018    -1.3385    -2.2825 C.3     
  27 C27            6.6720    -1.4516    -1.0728 C.3     
  28 O28            9.2675    -2.6918    -1.1714 O.3     
  29 C29            1.2014     2.1509     0.0021 C.1     
  30 N30            2.1678     2.7479    -0.0039 N.1     
  31 H31           -1.2171    -1.7847     0.0041 H       
  32 H32           -3.3154    -0.6157     0.0291 H       
  33 H33           -3.5661     4.3566     0.0585 H       
  34 H34           -5.1047     0.8371     0.4872 H       
  35 H35           -5.5279     2.5578     0.6558 H       
  36 H36            0.9959    -1.6141     1.9282 H       
  37 H37            3.1303    -2.8310     1.8955 H       
  38 H38            3.9887    -1.2393    -1.9838 H       
  39 H39            1.8534    -0.0236    -1.9632 H       
  40 H40            5.1542    -3.3554     0.6938 H       
  41 H41            5.1965    -2.6119    -2.1298 H       
  42 H42            7.2723    -4.0220    -0.3921 H       
  43 H43            6.0500    -4.8249    -1.4067 H       
  44 H44            8.2375    -4.7137    -2.5690 H       
  45 H45            7.0116    -3.7441    -3.4206 H       
  46 H46            9.1495    -2.5032    -3.2254 H       
  47 H47            8.2289    -0.4532    -2.1773 H       
  48 H48            7.0065    -1.2561    -3.1919 H       
  49 H49            6.0414    -0.5644    -1.0151 H       
  50 H50            7.2673    -1.5340    -0.1634 H       
  51 H51            9.8508    -1.9369    -1.0134 H       
@<TRIPOS>BOND
   1    1    2 2
   2    1   29 1
   3    1    6 1
   4    2    3 1
   5    2   12 1
   6    3    4 2
   7    3   31 1
   8    4    5 1
   9    4   32 1
  10    5    6 1
  11    5    7 1
  12    6    9 2
  13    7    8 2
  14    7   10 1
  15    8    9 1
  16    8   33 1
  17   10   11 1
  18   10   34 1
  19   10   35 1
  20   11   18 1
  21   11   19 1
  22   11   20 1
  23   12   13 ar
  24   12   17 ar
  25   13   14 ar
  26   13   36 1
  27   14   15 ar
  28   14   37 1
  29   15   16 ar
  30   15   21 1
  31   16   17 ar
  32   16   38 1
  33   17   39 1
  34   21   22 1
  35   21   40 1
  36   22   23 1
  37   22   27 1
  38   22   41 1
  39   23   24 1
  40   23   42 1
  41   23   43 1
  42   24   25 1
  43   24   44 1
  44   24   45 1
  45   25   26 1
  46   25   28 1
  47   25   46 1
  48   26   27 1
  49   26   47 1
  50   26   48 1
  51   27   49 1
  52   27   50 1
  53   28   51 1
  54   29   30 3

#	End of record

