#	Name: ASD01870592
#	Creating user name:	WinNT
#	Creation time:	15. 06. 2019 19:39

#	Modifying user name:	WinNT
#	Modification time:	15. 06. 2019 19:39

#	Program:	/corina/corina34_cracker 3.40 0067  02.08.2006

@<TRIPOS>MOLECULE
ASD01870592
  40   43    0    0    0
SMALL
NO_CHARGES


@<TRIPOS>ATOM
   1 C1            -0.0107     1.3959     0.0269 C.ar    
   2 C2             0.0041     0.0063     0.0173 C.ar    
   3 C3             1.2080    -0.6711    -0.0036 C.ar    
   4 C4             2.4026     0.0368    -0.0149 C.ar    
   5 C5             2.3872     1.4257    -0.0049 C.ar    
   6 C6             1.1845     2.1029     0.0155 C.ar    
   7 N7             3.6228    -0.6495    -0.0360 N.am    
   8 C8             4.6710    -0.1399    -0.7128 C.2     
   9 O9             4.5310     0.8646    -1.3844 O.2     
  10 N10           -1.2310     2.0832     0.0421 N.am    
  11 C11           -1.9228     2.4745    -1.0419 C.2     
  12 C12           -3.1585     3.1693    -0.6370 C.ar    
  13 C13           -1.9681     2.4894     1.2441 C.3     
  14 C14           -5.2523     4.3480    -0.7124 C.ar    
  15 C15           -5.2912     4.3675     0.6701 C.ar    
  16 C16           -4.2690     3.7891     1.4044 C.ar    
  17 C17           -3.2094     3.1956     0.7590 C.ar    
  18 C18           -4.1942     3.7535    -1.3716 C.ar    
  19 O19           -1.5785     2.2830    -2.1921 O.2     
  20 C20            5.9856    -0.7991    -0.6392 C.2     
  21 Cl21          -1.4896    -0.8781     0.0320 Cl      
  22 N22            6.2083    -1.9066     0.0734 N.2     
  23 C23            7.0788    -0.3431    -1.2915 C.2     
  24 S24            8.3957    -1.3788    -0.9519 S.3     
  25 C25            7.4106    -2.3627     0.0369 C.2     
  26 C26            7.1279     0.8776    -2.1738 C.3     
  27 Cl27          -4.1504     3.7324    -3.1069 Cl      
  28 H28            1.2200    -1.7510    -0.0107 H       
  29 H29            3.3165     1.9759    -0.0133 H       
  30 H30            1.1730     3.1828     0.0229 H       
  31 H31            3.7137    -1.4918     0.4364 H       
  32 H32           -2.2392     1.6122     1.8316 H       
  33 H33           -1.3625     3.1695     1.8431 H       
  34 H34           -6.0525     4.8008    -1.2791 H       
  35 H35           -6.1218     4.8342     1.1786 H       
  36 H36           -4.3027     3.8067     2.4837 H       
  37 H37            7.7494    -3.2462     0.5575 H       
  38 H38            7.3840     1.7502    -1.5729 H       
  39 H39            7.8816     0.7360    -2.9484 H       
  40 H40            6.1536     1.0296    -2.6384 H       
@<TRIPOS>BOND
   1    1    2 ar
   2    1    6 ar
   3    1   10 1
   4    2    3 ar
   5    2   21 1
   6    3    4 ar
   7    3   28 1
   8    4    5 ar
   9    4    7 1
  10    5    6 ar
  11    5   29 1
  12    6   30 1
  13    7    8 am
  14    7   31 1
  15    8    9 2
  16    8   20 1
  17   10   11 am
  18   10   13 1
  19   11   12 1
  20   11   19 2
  21   12   18 ar
  22   12   17 ar
  23   13   17 1
  24   13   32 1
  25   13   33 1
  26   14   15 ar
  27   14   18 ar
  28   14   34 1
  29   15   16 ar
  30   15   35 1
  31   16   17 ar
  32   16   36 1
  33   18   27 1
  34   20   23 2
  35   20   22 1
  36   22   25 2
  37   23   24 1
  38   23   26 1
  39   24   25 1
  40   25   37 1
  41   26   38 1
  42   26   39 1
  43   26   40 1

#	End of record

