#	Name: ASD01148909
#	Creating user name:	WinNT
#	Creation time:	15. 06. 2019 19:03

#	Modifying user name:	WinNT
#	Modification time:	15. 06. 2019 19:03

#	Program:	/corina/corina34_cracker 3.40 0067  02.08.2006

@<TRIPOS>MOLECULE
ASD01148909
  41   43    0    0    0
SMALL
NO_CHARGES


@<TRIPOS>ATOM
   1 C1            -0.1622     1.0854     0.2058 C.ar    
   2 C2            -0.0438    -0.2825     0.3698 C.ar    
   3 C3             1.1986    -0.8824     0.3044 C.ar    
   4 C4             2.3293    -0.1104     0.0738 C.ar    
   5 C5             2.2073     1.2628    -0.0904 C.ar    
   6 C6             0.9622     1.8569    -0.0240 C.ar    
   7 S7            -1.7497     1.8461     0.2826 S.o2    
   8 O8            -1.6456     3.0658    -0.4390 O.2     
   9 O9            -2.6954     0.8339    -0.0343 O.2     
  10 N10           -2.0192     2.2595     1.8633 N.am    
  11 N11            3.5913    -0.7160     0.0075 N.pl3   
  12 C12            4.0201    -1.5592    -0.9769 C.2     
  13 C13            5.2861    -1.9364    -0.6958 C.2     
  14 C14            5.6632    -1.3095     0.5034 C.2     
  15 C15            4.6065    -0.5563     0.9187 C.2     
  16 C16            4.5596     0.2812     2.1360 C.ar    
  17 C17            3.3308     0.6529     2.6843 C.ar    
  18 C18            4.4718     1.8503     4.4161 C.ar    
  19 C19            5.7436     0.6991     2.7452 C.ar    
  20 C20            3.2941     1.4346     3.8202 C.ar    
  21 C21            5.6929     1.4807     3.8811 C.ar    
  22 C22            1.9685     1.8372     4.4133 C.3     
  23 C23            3.2162    -1.9960    -2.1745 C.3     
  24 H24           -0.9238    -0.8824     0.5495 H       
  25 H25            1.2904    -1.9507     0.4329 H       
  26 H26            3.0851     1.8660    -0.2696 H       
  27 H27            0.8665     2.9250    -0.1521 H       
  28 H28           -2.5712     3.0281     2.0763 H       
  29 H29           -1.6250     1.7330     2.5763 H       
  30 H30            5.8987    -2.6011    -1.2869 H       
  31 H31            6.6167    -1.4035     1.0019 H       
  32 H32            2.4109     0.3294     2.2200 H       
  33 H33            4.4376     2.4625     5.3052 H       
  34 H34            6.6975     0.4109     2.3287 H       
  35 H35            6.6084     1.8088     4.3507 H       
  36 H36            1.6525     1.0878     5.1390 H       
  37 H37            2.0705     2.8026     4.9090 H       
  38 H38            1.2238     1.9125     3.6210 H       
  39 H39            3.3793    -1.2980    -2.9957 H       
  40 H40            3.5304    -2.9945    -2.4784 H       
  41 H41            2.1576    -2.0113    -1.9155 H       
@<TRIPOS>BOND
   1    1    2 ar
   2    1    6 ar
   3    1    7 1
   4    2    3 ar
   5    2   24 1
   6    3    4 ar
   7    3   25 1
   8    4    5 ar
   9    4   11 1
  10    5    6 ar
  11    5   26 1
  12    6   27 1
  13    7    8 2
  14    7    9 2
  15    7   10 am
  16   10   28 1
  17   10   29 1
  18   11   12 1
  19   11   15 1
  20   12   13 2
  21   12   23 1
  22   13   14 1
  23   13   30 1
  24   14   15 2
  25   14   31 1
  26   15   16 1
  27   16   17 ar
  28   16   19 ar
  29   17   20 ar
  30   17   32 1
  31   18   20 ar
  32   18   21 ar
  33   18   33 1
  34   19   21 ar
  35   19   34 1
  36   20   22 1
  37   21   35 1
  38   22   36 1
  39   22   37 1
  40   22   38 1
  41   23   39 1
  42   23   40 1
  43   23   41 1

#	End of record

