#	Name: ASD07300413
#	Creating user name:	WinNT
#	Creation time:	15. 06. 2019 21:09

#	Modifying user name:	WinNT
#	Modification time:	15. 06. 2019 21:09

#	Program:	/corina/corina34_cracker 3.40 0067  02.08.2006

@<TRIPOS>MOLECULE
ASD07300413
  42   43    0    0    0
SMALL
NO_CHARGES


@<TRIPOS>ATOM
   1 C1            -0.0170     1.4022     0.0098 C.ar    
   2 C2             0.0021    -0.0041     0.0020 C.ar    
   3 C3             1.2204    -0.6700    -0.0136 C.ar    
   4 C4             2.3798     0.0869    -0.0210 C.ar    
   5 C5             2.2911     1.4697    -0.0127 C.ar    
   6 N6             1.1270     2.0821     0.0025 N.ar    
   7 C7            -2.0811     0.7175     0.0345 C.2     
   8 N8            -1.3214     1.7749     0.0297 N.2     
   9 N9            -1.3177    -0.4066     0.0129 N.pl3   
  10 C10           -1.8050    -1.7881     0.0096 C.3     
  11 O11           -1.9505    -2.2452     1.3557 O.3     
  12 C12           -2.4232    -3.5892     1.4653 C.3     
  13 C13           -2.5402    -3.9699     2.9426 C.3     
  14 Si14          -3.1565    -5.7221     3.0855 Si      
  15 C15           -1.9591    -6.8725     2.2407 C.3     
  16 C16           -3.2989    -6.1856     4.8843 C.3     
  17 C17           -4.8279    -5.8606     2.2743 C.3     
  18 S18           -3.8428     0.7406     0.0588 S.o2    
  19 O19           -4.2012    -0.4946     0.6630 O.2     
  20 O20           -4.1685     1.9791     0.6746 O.2     
  21 C21           -4.3195     0.7551    -1.6914 C.3     
  22 H22            1.2626    -1.7492    -0.0195 H       
  23 H23            3.3454    -0.3966    -0.0328 H       
  24 H24            3.1972     2.0574    -0.0182 H       
  25 H25           -2.7701    -1.8318    -0.4952 H       
  26 H26           -1.0916    -2.4238    -0.5149 H       
  27 H27           -3.4011    -3.6703     0.9907 H       
  28 H28           -1.7226    -4.2623     0.9711 H       
  29 H29           -1.5623    -3.8889     3.4172 H       
  30 H30           -3.2408    -3.2968     3.4368 H       
  31 H31           -0.9812    -6.7915     2.7153 H       
  32 H32           -2.3197    -7.8977     2.3243 H       
  33 H33           -1.8758    -6.6013     1.1883 H       
  34 H34           -3.9995    -5.5126     5.3785 H       
  35 H35           -3.6595    -7.2108     4.9679 H       
  36 H36           -2.3210    -6.1046     5.3589 H       
  37 H37           -4.7446    -5.5895     1.2219 H       
  38 H38           -5.1886    -6.8858     2.3579 H       
  39 H39           -5.5286    -5.1876     2.7686 H       
  40 H40           -3.9310    -0.1378    -2.1812 H       
  41 H41           -5.4064     0.7698    -1.7718 H       
  42 H42           -3.9075     1.6420    -2.1728 H       
@<TRIPOS>BOND
   1    1    2 ar
   2    1    6 ar
   3    1    8 1
   4    2    3 ar
   5    2    9 1
   6    3    4 ar
   7    3   22 1
   8    4    5 ar
   9    4   23 1
  10    5    6 ar
  11    5   24 1
  12    7    8 2
  13    7    9 1
  14    7   18 1
  15    9   10 1
  16   10   11 1
  17   10   25 1
  18   10   26 1
  19   11   12 1
  20   12   13 1
  21   12   27 1
  22   12   28 1
  23   13   14 1
  24   13   29 1
  25   13   30 1
  26   14   15 1
  27   14   16 1
  28   14   17 1
  29   15   31 1
  30   15   32 1
  31   15   33 1
  32   16   34 1
  33   16   35 1
  34   16   36 1
  35   17   37 1
  36   17   38 1
  37   17   39 1
  38   18   19 2
  39   18   20 2
  40   18   21 1
  41   21   40 1
  42   21   41 1
  43   21   42 1

#	End of record

