#	Name: ASD01000051
#	Creating user name:	WinNT
#	Creation time:	15. 06. 2019 18:54

#	Modifying user name:	WinNT
#	Modification time:	15. 06. 2019 18:54

#	Program:	/corina/corina34_cracker 3.40 0067  02.08.2006

@<TRIPOS>MOLECULE
ASD01000051
  42   44    0    0    0
SMALL
NO_CHARGES


@<TRIPOS>ATOM
   1 C1            -0.6644     1.0704    -1.3430 C.ar    
   2 C2            -0.4936    -0.2881    -1.1578 C.ar    
   3 C3             0.7375    -0.7849    -0.7720 C.ar    
   4 C4             1.8009     0.0759    -0.5710 C.ar    
   5 C5             1.6353     1.4348    -0.7548 C.ar    
   6 C6             0.4007     1.9360    -1.1419 C.ar    
   7 C7             3.1415    -0.4690    -0.1505 C.3     
   8 N8             2.9178    -1.4351     0.9383 N.am    
   9 C9             3.3472    -2.7014     0.7706 C.2     
  10 N10            3.9657    -3.1026    -0.3470 N.am    
  11 C11            4.2184    -2.2836    -1.4079 C.2     
  12 C12            3.8465    -0.9829    -1.3895 C.2     
  13 C13            4.3958    -4.5003    -0.4352 C.3     
  14 C14            4.9226    -2.8364    -2.6201 C.3     
  15 C15            4.1067    -0.1321    -2.4889 C.2     
  16 O16            3.5561    -0.3313    -3.5567 O.2     
  17 C17            5.0482     1.0001    -2.3418 C.ar    
  18 C18            5.7686     1.1632    -1.1576 C.ar    
  19 C19            5.2239     1.9061    -3.3887 C.ar    
  20 C20            6.1034     2.9592    -3.2453 C.ar    
  21 C21            6.8107     3.1182    -2.0667 C.ar    
  22 C22            6.6450     2.2205    -1.0269 C.ar    
  23 O23            0.2353     3.2725    -1.3239 O.3     
  24 S24            3.0940    -3.8346     2.0287 S.2     
  25 H25           -1.6253     1.4577    -1.6483 H       
  26 H26           -1.3226    -0.9624    -1.3142 H       
  27 H27            0.8688    -1.8470    -0.6271 H       
  28 H28            2.4660     2.1067    -0.5969 H       
  29 H29            3.7270     0.3587     0.2497 H       
  30 H30            2.4721    -1.1662     1.7568 H       
  31 H31            4.1255    -5.0222     0.4828 H       
  32 H32            3.9054    -4.9786    -1.2830 H       
  33 H33            5.4766    -4.5400    -0.5709 H       
  34 H34            5.1451    -3.8916    -2.4614 H       
  35 H35            4.2805    -2.7280    -3.4942 H       
  36 H36            5.8515    -2.2895    -2.7816 H       
  37 H37            5.6399     0.4633    -0.3451 H       
  38 H38            4.6727     1.7829    -4.3092 H       
  39 H39            6.2405     3.6608    -4.0548 H       
  40 H40            7.4983     3.9441    -1.9595 H       
  41 H41            7.2028     2.3480    -0.1109 H       
  42 H42           -0.0432     3.7463    -0.5282 H       
@<TRIPOS>BOND
   1    1    2 ar
   2    1    6 ar
   3    1   25 1
   4    2    3 ar
   5    2   26 1
   6    3    4 ar
   7    3   27 1
   8    4    5 ar
   9    4    7 1
  10    5    6 ar
  11    5   28 1
  12    6   23 1
  13    7    8 1
  14    7   12 1
  15    7   29 1
  16    8    9 am
  17    8   30 1
  18    9   10 am
  19    9   24 2
  20   10   11 1
  21   10   13 1
  22   11   12 2
  23   11   14 1
  24   12   15 1
  25   13   31 1
  26   13   32 1
  27   13   33 1
  28   14   34 1
  29   14   35 1
  30   14   36 1
  31   15   16 2
  32   15   17 1
  33   17   19 ar
  34   17   18 ar
  35   18   22 ar
  36   18   37 1
  37   19   20 ar
  38   19   38 1
  39   20   21 ar
  40   20   39 1
  41   21   22 ar
  42   21   40 1
  43   22   41 1
  44   23   42 1

#	End of record

