#	Name: ASD00431280
#	Creating user name:	WinNT
#	Creation time:	15. 06. 2019 18:35

#	Modifying user name:	WinNT
#	Modification time:	15. 06. 2019 18:35

#	Program:	/corina/corina34_cracker 3.40 0067  02.08.2006

@<TRIPOS>MOLECULE
ASD00431280
  59   63    0    0    0
SMALL
NO_CHARGES


@<TRIPOS>ATOM
   1 C1             1.5198     0.2495     0.1911 C.2     
   2 N2             1.1009    -1.0146     0.0009 N.am    
   3 C3             2.1307    -1.8251    -0.3028 C.2     
   4 C4             3.3724    -1.0232    -0.3188 C.ar    
   5 C5             4.7062    -1.3093    -0.5615 C.ar    
   6 C6             5.6498    -0.2962    -0.4937 C.ar    
   7 C7             5.2691     0.9965    -0.1859 C.ar    
   8 C8             3.9384     1.2976     0.0593 C.ar    
   9 C9             2.9842     0.2949    -0.0049 C.ar    
  10 O10            0.8125     1.1960     0.4718 O.2     
  11 O11            2.0534    -3.0164    -0.5259 O.2     
  12 C12           -0.2932    -1.4513     0.1106 C.3     
  13 C13           -0.7504    -2.0386    -1.2262 C.3     
  14 O14            0.4589    -3.4944     1.4302 O.3     
  15 N15            0.1035    -4.1833     2.3581 N.2     
  16 C16           -1.0302    -3.7607     2.8609 C.2     
  17 C17           -1.4044    -2.6236     2.0912 C.2     
  18 C18           -0.4077    -2.5010     1.1858 C.2     
  19 C19           -1.7737    -4.3489     4.0021 C.ar    
  20 C20           -1.2719    -5.4718     4.6581 C.ar    
  21 C21           -1.9649    -6.0163     5.7183 C.ar    
  22 C22           -3.1620    -5.4471     6.1329 C.ar    
  23 C23           -3.6646    -4.3285     5.4808 C.ar    
  24 C24           -2.9725    -3.7762     4.4240 C.ar    
  25 O25           -3.8427    -5.9856     7.1776 O.3     
  26 C26           -4.9318    -6.7517     6.9029 C.ar    
  27 C27           -5.2953    -6.9940     5.5862 C.ar    
  28 C28           -6.4017    -7.7723     5.3073 C.ar    
  29 C29           -7.1494    -8.3116     6.3437 C.ar    
  30 C30           -6.7860    -8.0694     7.6602 C.ar    
  31 C31           -5.6763    -7.2958     7.9393 C.ar    
  32 O32           -8.2389    -9.0774     6.0690 O.3     
  33 C33           -8.6070    -9.2128     4.6949 C.3     
  34 C34           -7.7859   -10.3340     4.0550 C.3     
  35 C35          -10.0959    -9.5511     4.5967 C.3     
  36 H36            5.0095    -2.3176    -0.8021 H       
  37 H37            6.6897    -0.5184    -0.6823 H       
  38 H38            6.0136     1.7773    -0.1357 H       
  39 H39            3.6467     2.3093     0.2997 H       
  40 H40           -0.9220    -0.5986     0.3668 H       
  41 H41           -0.6675    -1.2794    -2.0039 H       
  42 H42           -0.1216    -2.8913    -1.4825 H       
  43 H43           -1.7876    -2.3635    -1.1446 H       
  44 H44           -2.2811    -2.0030     2.2040 H       
  45 H45           -0.3412    -5.9151     4.3359 H       
  46 H46           -1.5767    -6.8866     6.2266 H       
  47 H47           -4.5958    -3.8881     5.8050 H       
  48 H48           -3.3613    -2.9034     3.9204 H       
  49 H49           -4.7133    -6.5738     4.7793 H       
  50 H50           -6.6849    -7.9606     4.2823 H       
  51 H51           -7.3685    -8.4891     8.4671 H       
  52 H52           -5.3908    -7.1109     8.9643 H       
  53 H53           -8.4121    -8.2761     4.1726 H       
  54 H54           -6.7252   -10.0929     4.1249 H       
  55 H55           -7.9808   -11.2706     4.5773 H       
  56 H56           -8.0667   -10.4372     3.0069 H       
  57 H57          -10.6808    -8.7524     5.0526 H       
  58 H58          -10.3767    -9.6544     3.5486 H       
  59 H59          -10.2908   -10.4878     5.1190 H       
@<TRIPOS>BOND
   1    1    2 am
   2    1    9 1
   3    1   10 2
   4    2    3 am
   5    2   12 1
   6    3    4 1
   7    3   11 2
   8    4    5 ar
   9    4    9 ar
  10    5    6 ar
  11    5   36 1
  12    6    7 ar
  13    6   37 1
  14    7    8 ar
  15    7   38 1
  16    8    9 ar
  17    8   39 1
  18   12   13 1
  19   12   18 1
  20   12   40 1
  21   13   41 1
  22   13   42 1
  23   13   43 1
  24   14   15 1
  25   14   18 1
  26   15   16 2
  27   16   17 1
  28   16   19 1
  29   17   18 2
  30   17   44 1
  31   19   20 ar
  32   19   24 ar
  33   20   21 ar
  34   20   45 1
  35   21   22 ar
  36   21   46 1
  37   22   23 ar
  38   22   25 1
  39   23   24 ar
  40   23   47 1
  41   24   48 1
  42   25   26 1
  43   26   27 ar
  44   26   31 ar
  45   27   28 ar
  46   27   49 1
  47   28   29 ar
  48   28   50 1
  49   29   30 ar
  50   29   32 1
  51   30   31 ar
  52   30   51 1
  53   31   52 1
  54   32   33 1
  55   33   34 1
  56   33   35 1
  57   33   53 1
  58   34   54 1
  59   34   55 1
  60   34   56 1
  61   35   57 1
  62   35   58 1
  63   35   59 1

#	End of record

