#	Name: ASD01811588
#	Creating user name:	WinNT
#	Creation time:	15. 06. 2019 19:27

#	Modifying user name:	WinNT
#	Modification time:	15. 06. 2019 19:27

#	Program:	/corina/corina34_cracker 3.40 0067  02.08.2006

@<TRIPOS>MOLECULE
ASD01811588
  67   71    0    0    0
SMALL
NO_CHARGES


@<TRIPOS>ATOM
   1 C1            -7.4333     2.3281    -4.0006 C.1     
   2 C2            -6.4538     3.1204    -3.3198 C.ar    
   3 C3            -5.2749     2.5325    -2.8567 C.ar    
   4 C4            -4.3356     3.3016    -2.2016 C.ar    
   5 C5            -4.5596     4.6524    -2.0028 C.ar    
   6 C6            -5.7257     5.2413    -2.4588 C.ar    
   7 C7            -6.6705     4.4854    -3.1213 C.ar    
   8 N8            -8.2104     1.6996    -4.5406 N.1     
   9 N9            -2.5170     7.8991    -0.2120 N.am    
  10 C10           -1.9713     7.4279    -1.4922 C.3     
  11 C11           -3.0436     6.6038    -2.2118 C.3     
  12 C12           -3.5290     5.4861    -1.2859 C.3     
  13 C13           -4.1523     6.0973    -0.0289 C.3     
  14 C14           -3.0926     6.9156     0.7155 C.3     
  15 C15           -2.4851     9.2080     0.1079 C.2     
  16 C16           -3.1199     9.6792     1.3567 C.ar    
  17 C17           -4.0881    10.6857     1.3132 C.ar    
  18 C18           -4.6819    11.1271     2.4777 C.ar    
  19 C19           -4.3233    10.5776     3.6949 C.ar    
  20 C20           -3.3563     9.5703     3.7520 C.ar    
  21 C21           -2.7581     9.1166     2.5791 C.ar    
  22 O22           -1.9342    10.0009    -0.6306 O.2     
  23 C23           -4.4843    11.2909    -0.0089 C.3     
  24 C24           -5.4725    10.3633    -0.7187 C.3     
  25 Cl25          -5.0754    11.1404     5.1548 Cl      
  26 C26           -1.0594     6.8486     7.3421 C.3     
  27 C27           -1.9617     7.7957     6.5908 C.2     
  28 C28           -2.9293     8.5427     7.1698 C.2     
  29 C29           -3.2365     8.5395     8.6472 C.3     
  30 C30           -2.6286     7.2802     9.2766 C.3     
  31 N31           -1.2547     7.1073     8.7804 N.am    
  32 C32           -2.9730     8.9835     5.0546 C.2     
  33 N33           -1.9783     8.0685     5.2577 N.pl3   
  34 N34           -3.5318     9.2542     6.2154 N.2     
  35 C35           -0.2019     7.1823     9.6185 C.2     
  36 O36           -0.3839     7.3134    10.8104 O.2     
  37 C37            1.2013     7.1035     9.0747 C.3     
  38 H38           -5.0991     1.4781    -3.0106 H       
  39 H39           -3.4234     2.8483    -1.8429 H       
  40 H40           -5.8944     6.2961    -2.2999 H       
  41 H41           -7.5781     4.9472    -3.4809 H       
  42 H42           -1.6934     8.2833    -2.1080 H       
  43 H43           -1.0946     6.8066    -1.3091 H       
  44 H44           -3.8823     7.2484    -2.4747 H       
  45 H45           -2.6210     6.1683    -3.1173 H       
  46 H46           -2.6853     4.8565    -1.0033 H       
  47 H47           -4.9806     6.7467    -0.3124 H       
  48 H48           -4.5188     5.3013     0.6193 H       
  49 H49           -2.3073     6.2526     1.0785 H       
  50 H50           -3.5545     7.4330     1.5563 H       
  51 H51           -5.4297    11.9053     2.4385 H       
  52 H52           -2.0135     8.3353     2.6173 H       
  53 H53           -4.9535    12.2600     0.1612 H       
  54 H54           -3.5976    11.4205    -0.6295 H       
  55 H55           -5.0033     9.3943    -0.8888 H       
  56 H56           -6.3592    10.2337    -0.0981 H       
  57 H57           -5.7591    10.8011    -1.6749 H       
  58 H58           -1.3282     5.8179     7.1106 H       
  59 H59           -0.0200     7.0319     7.0699 H       
  60 H60           -2.8039     9.4254     9.1121 H       
  61 H61           -4.3163     8.5372     8.7956 H       
  62 H62           -2.6131     7.3863    10.3613 H       
  63 H63           -3.2271     6.4112     9.0033 H       
  64 H64           -1.3962     7.6873     4.5819 H       
  65 H65            1.1654     6.8919     8.0060 H       
  66 H66            1.7090     8.0537     9.2401 H       
  67 H67            1.7444     6.3077     9.5845 H       
@<TRIPOS>BOND
   1    1    2 1
   2    1    8 3
   3    2    3 ar
   4    2    7 ar
   5    3    4 ar
   6    3   38 1
   7    4    5 ar
   8    4   39 1
   9    5    6 ar
  10    5   12 1
  11    6    7 ar
  12    6   40 1
  13    7   41 1
  14    9   10 1
  15    9   14 1
  16    9   15 am
  17   10   11 1
  18   10   42 1
  19   10   43 1
  20   11   12 1
  21   11   44 1
  22   11   45 1
  23   12   13 1
  24   12   46 1
  25   13   14 1
  26   13   47 1
  27   13   48 1
  28   14   49 1
  29   14   50 1
  30   15   16 1
  31   15   22 2
  32   16   17 ar
  33   16   21 ar
  34   17   18 ar
  35   17   23 1
  36   18   19 ar
  37   18   51 1
  38   19   20 ar
  39   19   25 1
  40   20   21 ar
  41   20   32 1
  42   21   52 1
  43   23   24 1
  44   23   53 1
  45   23   54 1
  46   24   55 1
  47   24   56 1
  48   24   57 1
  49   26   27 1
  50   26   31 1
  51   26   58 1
  52   26   59 1
  53   27   28 2
  54   27   33 1
  55   28   29 1
  56   28   34 1
  57   29   30 1
  58   29   60 1
  59   29   61 1
  60   30   31 1
  61   30   62 1
  62   30   63 1
  63   31   35 am
  64   32   33 1
  65   32   34 2
  66   33   64 1
  67   35   36 2
  68   35   37 1
  69   37   65 1
  70   37   66 1
  71   37   67 1

#	End of record

