#	Name: ASD01410159
#	Creating user name:	WinNT
#	Creation time:	15. 06. 2019 19:16

#	Modifying user name:	WinNT
#	Modification time:	15. 06. 2019 19:16

#	Program:	/corina/corina34_cracker 3.40 0067  02.08.2006

@<TRIPOS>MOLECULE
ASD01410159
  41   44    0    0    0
SMALL
NO_CHARGES


@<TRIPOS>ATOM
   1 C1            -0.0476     1.3848    -0.2074 C.2     
   2 C2             0.0208     0.0219     0.0241 C.2     
   3 N3            -1.2974    -0.3939     0.2468 N.pl3   
   4 C4            -2.0860     0.7127     0.1421 C.2     
   5 N5            -1.3382     1.7578    -0.1214 N.2     
   6 S6             1.5675     2.0201    -0.5024 S.3     
   7 C7             2.2782     0.4266    -0.3034 C.2     
   8 C8            -0.5485    -2.7112     0.4719 C.3     
   9 C9            -1.0149    -4.1366     0.7746 C.3     
  10 C10           -1.6305    -4.1852     2.1745 C.3     
  11 C11           -2.8261    -3.2327     2.2393 C.3     
  12 C12           -2.3596    -1.8074     1.9365 C.3     
  13 C13           -1.7441    -1.7587     0.5367 C.3     
  14 C14           -4.1850     1.8567     0.8429 C.ar    
  15 C15           -3.5549     0.7330     0.3053 C.ar    
  16 C16           -4.3181    -0.3712    -0.0778 C.ar    
  17 C17           -5.6887    -0.3455     0.0769 C.ar    
  18 C18           -6.3071     0.7716     0.6099 C.ar    
  19 C19           -5.5564     1.8694     0.9917 C.ar    
  20 C20            1.3078    -0.4870    -0.0328 C.2     
  21 C21            3.7046     0.1260    -0.4131 C.2     
  22 O22            4.0996    -1.0143    -0.2582 O.2     
  23 O23            4.5831     1.1133    -0.6861 O.3     
  24 H24            0.1971    -2.4090     1.2073 H       
  25 H25           -0.1099    -2.6766    -0.5254 H       
  26 H26           -1.7605    -4.4388     0.0392 H       
  27 H27           -0.1632    -4.8152     0.7285 H       
  28 H28           -1.9628    -5.2007     2.3902 H       
  29 H29           -0.8849    -3.8830     2.9100 H       
  30 H30           -3.5717    -3.5350     1.5038 H       
  31 H31           -3.2646    -3.2674     3.2366 H       
  32 H32           -3.2114    -1.1288     1.9827 H       
  33 H33           -1.6140    -1.5052     2.6720 H       
  34 H34           -2.4896    -2.0609    -0.1988 H       
  35 H35           -3.5998     2.7125     1.1454 H       
  36 H36           -3.8368    -1.2435    -0.4946 H       
  37 H37           -6.2805    -1.1991    -0.2191 H       
  38 H38           -7.3804     0.7868     0.7286 H       
  39 H39           -6.0452     2.7382     1.4074 H       
  40 H40            1.5249    -1.5329     0.1265 H       
  41 H41            5.5025     0.8181    -0.7390 H       
@<TRIPOS>BOND
   1    1    2 2
   2    1    6 1
   3    1    5 1
   4    2    3 1
   5    2   20 1
   6    3    4 1
   7    3   13 1
   8    4    5 2
   9    4   15 1
  10    6    7 1
  11    7   20 2
  12    7   21 1
  13    8    9 1
  14    8   13 1
  15    8   24 1
  16    8   25 1
  17    9   10 1
  18    9   26 1
  19    9   27 1
  20   10   11 1
  21   10   28 1
  22   10   29 1
  23   11   12 1
  24   11   30 1
  25   11   31 1
  26   12   13 1
  27   12   32 1
  28   12   33 1
  29   13   34 1
  30   14   15 ar
  31   14   19 ar
  32   14   35 1
  33   15   16 ar
  34   16   17 ar
  35   16   36 1
  36   17   18 ar
  37   17   37 1
  38   18   19 ar
  39   18   38 1
  40   19   39 1
  41   20   40 1
  42   21   22 2
  43   21   23 1
  44   23   41 1

#	End of record

