#	Name: ASD03331692
#	Creating user name:	WinNT
#	Creation time:	15. 06. 2019 20:39

#	Modifying user name:	WinNT
#	Modification time:	15. 06. 2019 20:39

#	Program:	/corina/corina34_cracker 3.40 0067  02.08.2006

@<TRIPOS>MOLECULE
ASD03331692
  45   48    0    0    0
SMALL
NO_CHARGES


@<TRIPOS>ATOM
   1 C1            -0.0166     1.3730     0.0096 C.ar    
   2 C2             0.0021    -0.0041     0.0020 C.ar    
   3 C3             1.2098    -0.6897    -0.0127 C.ar    
   4 C4             2.4057    -0.0061    -0.0200 C.ar    
   5 C5             1.1873     2.0799     0.0019 C.ar    
   6 C6             1.5311     3.5039     0.0063 C.2     
   7 C7             2.4101     1.3845    -0.0130 C.ar    
   8 N8             3.4136     2.3282    -0.0173 N.pl3   
   9 C9             2.8710     3.5842    -0.0061 C.2     
  10 S10            3.7943     5.0849    -0.0078 S.o2    
  11 O11            2.9455     6.0789     0.5495 O.2     
  12 O12            5.0741     4.7692     0.5230 O.2     
  13 N13            4.0362     5.5099    -1.5899 N.am    
  14 C14            2.8940     5.8650    -2.4358 C.3     
  15 C15            4.1451     6.4327    -5.9506 C.ar    
  16 C16            3.6928     5.8075    -4.8064 C.ar    
  17 C17            3.3869     6.5535    -3.6824 C.ar    
  18 C18            3.5313     7.9291    -3.6985 C.ar    
  19 C19            3.9819     8.5650    -4.8374 C.ar    
  20 C20            4.2921     7.8184    -5.9727 C.ar    
  21 C21            4.7782     8.4960    -7.1994 C.ar    
  22 C22            4.9246     9.8824    -7.2195 C.ar    
  23 C23            5.3769    10.5103    -8.3601 C.ar    
  24 C24            5.6872     9.7617    -9.4905 C.ar    
  25 C25            5.5418     8.3786    -9.4722 C.ar    
  26 C26            5.0948     7.7468    -8.3318 C.ar    
  27 Br27          -1.6256    -0.9666     0.0124 Br      
  28 S28            6.2647    10.5666   -10.9476 S.3     
  29 H29           -0.9575     1.9032     0.0169 H       
  30 H30            1.2113    -1.7697    -0.0182 H       
  31 H31            3.3389    -0.5496    -0.0308 H       
  32 H32            0.8380     4.3321     0.0173 H       
  33 H33            4.3634     2.1316    -0.0263 H       
  34 H34            4.9341     5.5237    -1.9566 H       
  35 H35            2.3506     4.9610    -2.7108 H       
  36 H36            2.2310     6.5351    -1.8886 H       
  37 H37            4.3879     5.8488    -6.8262 H       
  38 H38            3.5782     4.7337    -4.7883 H       
  39 H39            3.2907     8.5066    -2.8181 H       
  40 H40            4.0940     9.6391    -4.8490 H       
  41 H41            4.6834    10.4641    -6.3421 H       
  42 H42            5.4901    11.5842    -8.3761 H       
  43 H43            5.7832     7.7989   -10.3509 H       
  44 H44            4.9859     6.6724    -8.3166 H       
  45 H45            7.5987    10.5810   -10.7769 H       
@<TRIPOS>BOND
   1    1    2 ar
   2    1    5 ar
   3    1   29 1
   4    2    3 ar
   5    2   27 1
   6    3    4 ar
   7    3   30 1
   8    4    7 ar
   9    4   31 1
  10    5    7 ar
  11    5    6 1
  12    6    9 2
  13    6   32 1
  14    7    8 1
  15    8    9 1
  16    8   33 1
  17    9   10 1
  18   10   11 2
  19   10   12 2
  20   10   13 am
  21   13   14 1
  22   13   34 1
  23   14   17 1
  24   14   35 1
  25   14   36 1
  26   15   16 ar
  27   15   20 ar
  28   15   37 1
  29   16   17 ar
  30   16   38 1
  31   17   18 ar
  32   18   19 ar
  33   18   39 1
  34   19   20 ar
  35   19   40 1
  36   20   21 1
  37   21   22 ar
  38   21   26 ar
  39   22   23 ar
  40   22   41 1
  41   23   24 ar
  42   23   42 1
  43   24   25 ar
  44   24   28 1
  45   25   26 ar
  46   25   43 1
  47   26   44 1
  48   28   45 1

#	End of record

