#	Name: ASD00960166
#	Creating user name:	WinNT
#	Creation time:	15. 06. 2019 18:53

#	Modifying user name:	WinNT
#	Modification time:	15. 06. 2019 18:53

#	Program:	/corina/corina34_cracker 3.40 0067  02.08.2006

@<TRIPOS>MOLECULE
ASD00960166
  86   88    0    0    0
SMALL
NO_CHARGES


@<TRIPOS>ATOM
   1 O1            -0.0173     1.4248     0.0099 O.3     
   2 O2            -2.3899     0.5001     0.0276 O.3     
   3 C3             0.0021    -0.0041     0.0020 C.3     
   4 C4            -1.4375    -0.5651     0.0127 C.3     
   5 C5            -1.5390    -1.3636    -1.3057 C.3     
   6 O6            -0.1754    -1.7075    -1.6348 O.3     
   7 C7             0.6000    -0.5300    -1.3217 C.3     
   8 C8             2.0731    -0.8974    -1.1319 C.3     
   9 C9            -2.3600    -2.6108    -1.1018 C.2     
  10 C10           -3.7156    -2.6822    -1.1703 C.2     
  11 N11           -1.8677    -3.8336    -0.8285 N.pl3   
  12 C12           -2.9262    -4.7151    -0.7123 C.2     
  13 C13           -4.0887    -4.0056    -0.9243 C.2     
  14 N14           -0.5692    -4.3310    -0.6549 N.2     
  15 C15           -0.3688    -5.5914    -0.3911 C.2     
  16 N16           -1.3559    -6.4741    -0.2706 N.2     
  17 C17           -2.6276    -6.1149    -0.4142 C.2     
  18 O18            2.6177    -1.3406    -2.3765 O.3     
  19 N19           -3.6280    -7.0289    -0.2881 N.2     
  20 C20           -1.6454    -1.4851     1.2175 C.3     
  21 C21           -3.3436    -8.2767    -0.0228 C.2     
  22 N22           -4.3446    -9.1912     0.1034 N.pl3   
  23 C23           -5.7403    -8.7765    -0.0583 C.3     
  24 C24           -4.0258   -10.5898     0.4007 C.3     
  25 P25            4.1488    -1.8083    -2.5467 P.3     
  26 O26            5.0488    -0.7327    -2.0738 O.2     
  27 O27            4.4026    -3.1406    -1.6791 O.3     
  28 O28            4.4472    -2.1138    -4.0990 O.3     
  29 C29            5.7463    -2.4499    -4.5904 C.3     
  30 O30            5.6806    -2.6644    -6.0250 O.3     
  31 C31            5.5721    -1.5738    -6.7999 C.2     
  32 O32            5.5333    -0.4762    -6.2961 O.2     
  33 C33            5.4987    -1.7182    -8.2981 C.3     
  34 C34            5.3797    -0.3339    -8.9387 C.3     
  35 C35            6.7660    -2.4083    -8.8067 C.3     
  36 C36            4.2758    -2.5591    -8.6701 C.3     
  37 C37            3.6856    -4.3578    -1.8943 C.3     
  38 O38            4.1461    -5.3636    -0.9537 O.3     
  39 C39            3.7349    -5.2420     0.3183 C.2     
  40 O40            3.0141    -4.3256     0.6353 O.2     
  41 C41            4.1724    -6.2486     1.3510 C.3     
  42 C42            3.5685    -5.8822     2.7082 C.3     
  43 C43            3.6939    -7.6423     0.9395 C.3     
  44 C44            5.6989    -6.2432     1.4539 C.3     
  45 H45            0.8606     1.8301     0.0037 H       
  46 H46           -2.3300     1.0705     0.8061 H       
  47 H47            0.5657    -0.3821     0.8550 H       
  48 H48           -1.9746    -0.7458    -2.0910 H       
  49 H49            0.4925     0.2157    -2.1094 H       
  50 H50            2.6238    -0.0230    -0.7851 H       
  51 H51            2.1564    -1.6954    -0.3941 H       
  52 H52           -4.3856    -1.8610    -1.3776 H       
  53 H53           -5.0949    -4.3975    -0.9038 H       
  54 H54            0.6471    -5.9354    -0.2647 H       
  55 H55           -1.5027    -0.9174     2.1370 H       
  56 H56           -2.6567    -1.8911     1.1943 H       
  57 H57           -0.9249    -2.3021     1.1793 H       
  58 H58           -2.3146    -8.5824     0.0964 H       
  59 H59           -6.0297    -8.8746    -1.1046 H       
  60 H60           -6.3808    -9.4088     0.5567 H       
  61 H61           -5.8490    -7.7375     0.2529 H       
  62 H62           -4.0035   -10.7357     1.4807 H       
  63 H63           -4.7855   -11.2368    -0.0377 H       
  64 H64           -3.0510   -10.8376    -0.0196 H       
  65 H65            6.4378    -1.6350    -4.3762 H       
  66 H66            6.0950    -3.3601    -4.1025 H       
  67 H67            6.2509     0.2652    -8.6737 H       
  68 H68            5.3266    -0.4384   -10.0224 H       
  69 H69            4.4769     0.1578    -8.5765 H       
  70 H70            6.8507    -3.3945    -8.3503 H       
  71 H71            6.7129    -2.5128    -9.8904 H       
  72 H72            7.6372    -1.8093    -8.5417 H       
  73 H73            3.3729    -2.0674    -8.3078 H       
  74 H74            4.2227    -2.6636    -9.7538 H       
  75 H75            4.3605    -3.5453    -8.2137 H       
  76 H76            2.6199    -4.1828    -1.7463 H       
  77 H77            3.8585    -4.7063    -2.9125 H       
  78 H78            2.4809    -5.8860     2.6349 H       
  79 H79            3.8849    -6.6102     3.4552 H       
  80 H80            3.9094    -4.8892     3.0014 H       
  81 H81            4.1241    -7.9034    -0.0274 H       
  82 H82            4.0103    -8.3704     1.6864 H       
  83 H83            2.6064    -7.6462     0.8662 H       
  84 H84            6.0398    -5.2502     1.7471 H       
  85 H85            6.0153    -6.9712     2.2008 H       
  86 H86            6.1291    -6.5042     0.4870 H       
@<TRIPOS>BOND
   1    1    3 1
   2    1   45 1
   3    2    4 1
   4    2   46 1
   5    3    4 1
   6    3    7 1
   7    3   47 1
   8    4   20 1
   9    4    5 1
  10    5    6 1
  11    5    9 1
  12    5   48 1
  13    6    7 1
  14    7    8 1
  15    7   49 1
  16    8   18 1
  17    8   50 1
  18    8   51 1
  19    9   10 2
  20    9   11 1
  21   10   13 1
  22   10   52 1
  23   11   12 1
  24   11   14 1
  25   12   13 2
  26   12   17 1
  27   13   53 1
  28   14   15 2
  29   15   16 1
  30   15   54 1
  31   16   17 2
  32   17   19 1
  33   18   25 1
  34   19   21 2
  35   20   55 1
  36   20   56 1
  37   20   57 1
  38   21   22 1
  39   21   58 1
  40   22   23 1
  41   22   24 1
  42   23   59 1
  43   23   60 1
  44   23   61 1
  45   24   62 1
  46   24   63 1
  47   24   64 1
  48   25   26 2
  49   25   27 1
  50   25   28 1
  51   27   37 1
  52   28   29 1
  53   29   30 1
  54   29   65 1
  55   29   66 1
  56   30   31 1
  57   31   32 2
  58   31   33 1
  59   33   34 1
  60   33   35 1
  61   33   36 1
  62   34   67 1
  63   34   68 1
  64   34   69 1
  65   35   70 1
  66   35   71 1
  67   35   72 1
  68   36   73 1
  69   36   74 1
  70   36   75 1
  71   37   38 1
  72   37   76 1
  73   37   77 1
  74   38   39 1
  75   39   40 2
  76   39   41 1
  77   41   42 1
  78   41   43 1
  79   41   44 1
  80   42   78 1
  81   42   79 1
  82   42   80 1
  83   43   81 1
  84   43   82 1
  85   43   83 1
  86   44   84 1
  87   44   85 1
  88   44   86 1

#	End of record

