#	Name: ASD01882406
#	Creating user name:	WinNT
#	Creation time:	15. 06. 2019 19:44

#	Modifying user name:	WinNT
#	Modification time:	15. 06. 2019 19:44

#	Program:	/corina/corina34_cracker 3.40 0067  02.08.2006

@<TRIPOS>MOLECULE
ASD01882406
  48   52    0    0    0
SMALL
NO_CHARGES


@<TRIPOS>ATOM
   1 N1            -0.0069     1.4969    -0.2453 N.pl3   
   2 C2             1.0985     1.2355    -1.1794 C.3     
   3 C3             0.9603    -0.2553    -0.8408 C.3     
   4 C4             0.3903     0.2807     0.4799 C.3     
   5 N5            -0.0135    -0.9715    -1.6685 N.pl3   
   6 C6             0.1097    -2.3517    -1.8568 C.ar    
   7 C7            -0.8140    -3.0335    -2.6425 C.ar    
   8 C8            -0.6884    -4.3978    -2.8259 C.ar    
   9 C9             0.3538    -5.0840    -2.2289 C.ar    
  10 C10            1.2728    -4.4086    -1.4478 C.ar    
  11 C11            1.1571    -3.0437    -1.2650 C.ar    
  12 F12           -1.8323    -2.3633    -3.2248 F       
  13 C13           -1.6564     4.7377     0.2659 C.2     
  14 C14           -0.6440     3.7729     0.1289 C.2     
  15 C15           -0.9917     2.4703    -0.1056 C.2     
  16 C16           -2.3559     2.1202    -0.2052 C.2     
  17 C17           -3.3103     3.0617    -0.0705 C.2     
  18 N18           -2.9742     4.3632     0.1634 N.pl3   
  19 N19           -2.8542     6.4816     0.5351 N.2     
  20 N20           -1.6457     6.0418     0.4963 N.2     
  21 C21           -3.7000     5.5046     0.3399 C.2     
  22 C22            0.8062     4.1678     0.2382 C.3     
  23 F23            1.3302     4.3775    -1.0419 F       
  24 F24            0.9137     5.3460     0.9849 F       
  25 F25            1.5211     3.1465     0.8731 F       
  26 C26           -5.2025     5.6180     0.3156 C.3     
  27 C27           -5.7525     5.4103     1.7282 C.3     
  28 C28           -7.2559     5.6034     1.9364 C.3     
  29 C29           -6.6542     4.1970     1.9639 C.3     
  30 H30            0.8556     1.4695    -2.2159 H       
  31 H31            2.0474     1.6668    -0.8605 H       
  32 H32            1.9100    -0.7801    -0.7374 H       
  33 H33            1.1506     0.4578     1.2406 H       
  34 H34           -0.4548    -0.2970     0.8542 H       
  35 H35           -0.7437    -0.4883    -2.0859 H       
  36 H36           -1.4047    -4.9285    -3.4356 H       
  37 H37            0.4495    -6.1501    -2.3730 H       
  38 H38            2.0851    -4.9479    -0.9833 H       
  39 H39            1.8785    -2.5167    -0.6581 H       
  40 H40           -2.6356     1.0936    -0.3904 H       
  41 H41           -4.3509     2.7835    -0.1484 H       
  42 H42           -5.4864     6.6073    -0.0430 H       
  43 H43           -5.6135     4.8586    -0.3496 H       
  44 H44           -5.0894     5.7102     2.5397 H       
  45 H45           -7.5819     6.0300     2.8850 H       
  46 H46           -7.8531     5.8784     1.0671 H       
  47 H47           -6.8556     3.5467     1.1126 H       
  48 H48           -6.5844     3.6982     2.9306 H       
@<TRIPOS>BOND
   1    1    2 1
   2    1    4 1
   3    1   15 1
   4    2    3 1
   5    2   30 1
   6    2   31 1
   7    3    4 1
   8    3    5 1
   9    3   32 1
  10    4   33 1
  11    4   34 1
  12    5    6 1
  13    5   35 1
  14    6    7 ar
  15    6   11 ar
  16    7    8 ar
  17    7   12 1
  18    8    9 ar
  19    8   36 1
  20    9   10 ar
  21    9   37 1
  22   10   11 ar
  23   10   38 1
  24   11   39 1
  25   13   14 1
  26   13   18 1
  27   13   20 2
  28   14   15 2
  29   14   22 1
  30   15   16 1
  31   16   17 2
  32   16   40 1
  33   17   18 1
  34   17   41 1
  35   18   21 1
  36   19   20 1
  37   19   21 2
  38   21   26 1
  39   22   23 1
  40   22   24 1
  41   22   25 1
  42   26   27 1
  43   26   42 1
  44   26   43 1
  45   27   28 1
  46   27   29 1
  47   27   44 1
  48   28   29 1
  49   28   45 1
  50   28   46 1
  51   29   47 1
  52   29   48 1

#	End of record

