#	Name: ASD01141030
#	Creating user name:	WinNT
#	Creation time:	15. 06. 2019 19:01

#	Modifying user name:	WinNT
#	Modification time:	15. 06. 2019 19:01

#	Program:	/corina/corina34_cracker 3.40 0067  02.08.2006

@<TRIPOS>MOLECULE
ASD01141030
  49   51    0    0    0
SMALL
NO_CHARGES


@<TRIPOS>ATOM
   1 C1            -0.0169     1.3983     0.0097 C.ar    
   2 C2             0.0021    -0.0041     0.0020 C.ar    
   3 C3             1.1939     2.1061     0.0020 C.ar    
   4 C4            -1.2989     2.1224     0.0198 C.2     
   5 C5             1.2140    -0.6753    -0.0132 C.ar    
   6 O6            -1.1619    -0.7008     0.0098 O.3     
   7 C7             2.3944     1.4147    -0.0132 C.ar    
   8 O8             1.1895     3.4626     0.0088 O.3     
   9 O9            -1.8234     2.4157     1.0772 O.2     
  10 N10           -1.8912     2.4601    -1.1428 N.am    
  11 C11            2.4016     0.0323    -0.0207 C.ar    
  12 C12           -3.1668     3.1805    -1.1328 C.3     
  13 C13           -3.6177     3.4391    -2.5718 C.3     
  14 N14           -4.8968     4.1615    -2.5618 N.3     
  15 C15           -5.2451     4.6360    -3.9106 C.3     
  16 C16           -4.8574     5.2869    -1.6226 C.3     
  17 C17           -6.7191     5.0423    -3.9166 C.3     
  18 C18           -6.1372     6.0779    -1.6936 C.ar    
  19 C19           -7.0024     5.9674    -2.7609 C.ar    
  20 C20           -6.4405     6.9384    -0.6484 C.ar    
  21 C21           -8.1673     6.7194    -2.7858 C.ar    
  22 C22           -7.6008     7.6851    -0.6735 C.ar    
  23 C23           -8.4668     7.5762    -1.7458 C.ar    
  24 C24           -1.0648    -2.1264     0.0012 C.3     
  25 C25            2.4606     4.1155     0.0002 C.3     
  26 H26            1.2310    -1.7551    -0.0188 H       
  27 H27            3.3280     1.9577    -0.0192 H       
  28 H28           -1.4729     2.2261    -1.9861 H       
  29 H29            3.3420    -0.4988    -0.0322 H       
  30 H30           -3.9184     2.5815    -0.6187 H       
  31 H31           -3.0431     4.1313    -0.6144 H       
  32 H32           -2.8661     4.0382    -3.0860 H       
  33 H33           -3.7415     2.4884    -3.0902 H       
  34 H34           -4.6270     5.4964    -4.1672 H       
  35 H35           -5.0828     3.8363    -4.6334 H       
  36 H36           -4.7247     4.9065    -0.6098 H       
  37 H37           -4.0183     5.9361    -1.8732 H       
  38 H38           -6.9504     5.5510    -4.8524 H       
  39 H39           -7.3405     4.1512    -3.8275 H       
  40 H40           -5.7648     7.0241     0.1897 H       
  41 H41           -8.8437     6.6344    -3.6235 H       
  42 H42           -7.8320     8.3532     0.1430 H       
  43 H43           -9.3749     8.1602    -1.7699 H       
  44 H44           -2.0653    -2.5588     0.0088 H       
  45 H45           -0.5363    -2.4492    -0.8958 H       
  46 H46           -0.5186    -2.4587     0.8841 H       
  47 H47            3.0268     3.8200     0.8835 H       
  48 H48            3.0102     3.8290    -0.8964 H       
  49 H49            2.3143     5.1957     0.0071 H       
@<TRIPOS>BOND
   1    1    2 ar
   2    1    3 ar
   3    1    4 1
   4    2    5 ar
   5    2    6 1
   6    3    7 ar
   7    3    8 1
   8    4    9 2
   9    4   10 am
  10    5   11 ar
  11    5   26 1
  12    6   24 1
  13    7   11 ar
  14    7   27 1
  15    8   25 1
  16   10   12 1
  17   10   28 1
  18   11   29 1
  19   12   13 1
  20   12   30 1
  21   12   31 1
  22   13   14 1
  23   13   32 1
  24   13   33 1
  25   14   15 1
  26   14   16 1
  27   15   17 1
  28   15   34 1
  29   15   35 1
  30   16   18 1
  31   16   36 1
  32   16   37 1
  33   17   19 1
  34   17   38 1
  35   17   39 1
  36   18   20 ar
  37   18   19 ar
  38   19   21 ar
  39   20   22 ar
  40   20   40 1
  41   21   23 ar
  42   21   41 1
  43   22   23 ar
  44   22   42 1
  45   23   43 1
  46   24   44 1
  47   24   45 1
  48   24   46 1
  49   25   47 1
  50   25   48 1
  51   25   49 1

#	End of record

