#	Name: ASD09890111
#	Creating user name:	WinNT
#	Creation time:	15. 06. 2019 21:24

#	Modifying user name:	WinNT
#	Modification time:	15. 06. 2019 21:24

#	Program:	/corina/corina34_cracker 3.40 0067  02.08.2006

@<TRIPOS>MOLECULE
ASD09890111
  57   61    0    0    0
SMALL
NO_CHARGES


@<TRIPOS>ATOM
   1 C1            -0.0176     1.3672     0.0647 C.2     
   2 N2            -0.0056    -0.0001     0.0346 N.pl3   
   3 C3            -1.2997    -0.4350     0.1194 C.2     
   4 N4            -2.0757     0.6195     0.1985 N.2     
   5 N5            -1.2619     1.7594     0.1686 N.2     
   6 S6            -1.8305    -2.1151     0.1216 S.3     
   7 C7            -3.6339    -1.9732     0.2561 C.3     
   8 C8             1.1331    -0.8132    -0.0664 C.ar    
   9 C9             2.0792    -0.8330     0.9542 C.ar    
  10 C10            3.1871    -1.6525     0.8090 C.ar    
  11 C11            3.3156    -2.4174    -0.3351 C.ar    
  12 N12            2.4007    -2.3757    -1.2841 N.ar    
  13 C13            1.3298    -1.6140    -1.1831 C.ar    
  14 C14           -4.2818    -3.3646     0.1467 C.3     
  15 C15           -5.0371    -3.6043     1.4703 C.3     
  16 C16           -5.3132    -2.1802     2.0133 C.3     
  17 C17           -4.0181    -1.4159     1.6423 C.3     
  18 O18            1.0701     2.1752     0.0035 O.3     
  19 C19            0.8650     3.5147    -0.0919 C.ar    
  20 C20           -0.4191     4.0073    -0.2838 C.ar    
  21 C21           -0.6302     5.3665    -0.3810 C.ar    
  22 C22            0.4468     6.2462    -0.2864 C.ar    
  23 C23            1.7345     5.7491    -0.0937 C.ar    
  24 C24            1.9391     4.3892     0.0084 C.ar    
  25 C25            0.2228     7.7092    -0.3911 C.ar    
  26 C26           -1.0660     8.2062    -0.5843 C.ar    
  27 C27           -1.2790     9.5682    -0.6819 C.ar    
  28 C28           -0.2196    10.4469    -0.5895 C.ar    
  29 C29            1.0786     9.9621    -0.3956 C.ar    
  30 C30            1.2968     8.5868    -0.2908 C.ar    
  31 C31            2.2097    10.8988    -0.2974 C.2     
  32 O32            3.3338    10.4765    -0.1293 O.2     
  33 C33            1.9706    12.3828    -0.4056 C.3     
  34 H34           -4.0163    -1.3205    -0.5286 H       
  35 H35            1.9532    -0.2243     1.8374 H       
  36 H36            3.9415    -1.6929     1.5807 H       
  37 H37            4.1772    -3.0577    -0.4537 H       
  38 H38            0.6020    -1.6066    -1.9810 H       
  39 H39           -4.9793    -3.3869    -0.6906 H       
  40 H40           -3.5125    -4.1251     0.0128 H       
  41 H41           -5.9737    -4.1302     1.2852 H       
  42 H42           -4.4153    -4.1648     2.1683 H       
  43 H43           -6.1778    -1.7387     1.5177 H       
  44 H44           -5.4542    -2.1995     3.0940 H       
  45 H45           -3.2317    -1.6230     2.3681 H       
  46 H46           -4.2111    -0.3447     1.5828 H       
  47 H47           -1.2531     3.3251    -0.3574 H       
  48 H48           -1.6290     5.7490    -0.5307 H       
  49 H49            2.5708     6.4285    -0.0201 H       
  50 H50            2.9367     4.0034     0.1581 H       
  51 H51           -1.9002     7.5243    -0.6584 H       
  52 H52           -2.2795     9.9463    -0.8316 H       
  53 H53           -0.3924    11.5101    -0.6672 H       
  54 H54            2.2963     8.2060    -0.1412 H       
  55 H55            0.9069    12.5696    -0.5535 H       
  56 H56            2.3014    12.8719     0.5106 H       
  57 H57            2.5304    12.7803    -1.2521 H       
@<TRIPOS>BOND
   1    1    2 1
   2    1   18 1
   3    1    5 2
   4    2    3 1
   5    2    8 1
   6    3    4 2
   7    3    6 1
   8    4    5 1
   9    6    7 1
  10    7   14 1
  11    7   17 1
  12    7   34 1
  13    8    9 ar
  14    8   13 ar
  15    9   10 ar
  16    9   35 1
  17   10   11 ar
  18   10   36 1
  19   11   12 ar
  20   11   37 1
  21   12   13 ar
  22   13   38 1
  23   14   15 1
  24   14   39 1
  25   14   40 1
  26   15   16 1
  27   15   41 1
  28   15   42 1
  29   16   17 1
  30   16   43 1
  31   16   44 1
  32   17   45 1
  33   17   46 1
  34   18   19 1
  35   19   20 ar
  36   19   24 ar
  37   20   21 ar
  38   20   47 1
  39   21   22 ar
  40   21   48 1
  41   22   23 ar
  42   22   25 1
  43   23   24 ar
  44   23   49 1
  45   24   50 1
  46   25   26 ar
  47   25   30 ar
  48   26   27 ar
  49   26   51 1
  50   27   28 ar
  51   27   52 1
  52   28   29 ar
  53   28   53 1
  54   29   30 ar
  55   29   31 1
  56   30   54 1
  57   31   32 2
  58   31   33 1
  59   33   55 1
  60   33   56 1
  61   33   57 1

#	End of record

