#	Name: ASD05490156
#	Creating user name:	WinNT
#	Creation time:	15. 06. 2019 21:01

#	Modifying user name:	WinNT
#	Modification time:	15. 06. 2019 21:01

#	Program:	/corina/corina34_cracker 3.40 0067  02.08.2006

@<TRIPOS>MOLECULE
ASD05490156
  67   71    0    0    0
SMALL
NO_CHARGES


@<TRIPOS>ATOM
   1 N1            -0.0169     1.3914     0.0097 N.am    
   2 N2            -0.6470    -2.2695    -0.0044 N.ar    
   3 C3             0.6180    -2.6638    -0.0186 C.ar    
   4 C4             1.6525    -1.7428    -0.0231 C.ar    
   5 C5             1.3457    -0.3867    -0.0129 C.ar    
   6 C6             0.0021    -0.0041     0.0020 C.ar    
   7 C7            -0.9818    -0.9866     0.0061 C.ar    
   8 O8             0.9044    -3.9908    -0.0285 O.3     
   9 N9            -2.3248    -0.6216     0.0209 N.pl3   
  10 N10            2.0981     0.7777    -0.0138 N.am    
  11 C11            3.5612     0.8514    -0.0278 C.3     
  12 C12            4.0489     0.8847    -1.4534 C.ar    
  13 C13            4.2147     2.0919    -2.1062 C.ar    
  14 C14            4.3413    -0.2962    -2.1214 C.ar    
  15 N15            4.6408     2.1342    -3.3523 N.ar    
  16 C16            4.9264     1.0287    -4.0275 C.ar    
  17 C17            4.7870    -0.2221    -3.4296 C.ar    
  18 C18           -0.2033    -4.8936    -0.0227 C.3     
  19 C19            0.3126    -6.3340    -0.0354 C.3     
  20 C20           -0.8734    -7.3006    -0.0292 C.3     
  21 C21           -0.3574    -8.7409    -0.0419 C.3     
  22 C22            5.4028     1.1251    -5.4291 C.ar    
  23 C23            5.5496     2.3723    -6.0338 C.ar    
  24 C24            5.7106    -0.0306    -6.1440 C.ar    
  25 C25            6.1539     0.0651    -7.4478 C.ar    
  26 C26            6.2927     1.3050    -8.0445 C.ar    
  27 C27            5.9935     2.4560    -7.3376 C.ar    
  28 C28            4.4251     3.0983    -9.5572 C.3     
  29 C29            3.7353     3.7795   -10.7537 C.3     
  30 C30            3.8643     5.2963   -10.4842 C.3     
  31 C31            5.0658     5.3740    -9.5090 C.3     
  32 N32            4.8866     4.1736    -8.6527 N.3     
  33 C33            6.1469     3.8035    -7.9948 C.3     
  34 C34            1.2571     1.8298    -0.0001 C.2     
  35 O35            1.5964     2.9985     0.0026 O.2     
  36 H36           -0.8103     1.9494     0.0167 H       
  37 H37            2.6809    -2.0727    -0.0343 H       
  38 H38           -2.5725     0.3162     0.0283 H       
  39 H39           -3.0131    -1.3051     0.0238 H       
  40 H40            3.8844     1.7557     0.4879 H       
  41 H41            3.9739    -0.0220     0.4771 H       
  42 H42            3.9916     3.0128    -1.5880 H       
  43 H43            4.2240    -1.2514    -1.6313 H       
  44 H44            5.0202    -1.1214    -3.9804 H       
  45 H45           -0.8010    -4.7297     0.8739 H       
  46 H46           -0.8181    -4.7201    -0.9060 H       
  47 H47            0.9103    -6.4979    -0.9320 H       
  48 H48            0.9273    -6.5075     0.8478 H       
  49 H49           -1.4711    -7.1366     0.8674 H       
  50 H50           -1.4881    -7.1271    -0.9125 H       
  51 H51            0.2403    -8.9049    -0.9386 H       
  52 H52            0.2573    -8.9144     0.8413 H       
  53 H53           -1.2023    -9.4295    -0.0375 H       
  54 H54            5.3159     3.2714    -5.4830 H       
  55 H55            5.6029    -0.9993    -5.6789 H       
  56 H56            6.3932    -0.8300    -8.0027 H       
  57 H57            6.6399     1.3752    -9.0647 H       
  58 H58            3.7160     2.4544    -9.0371 H       
  59 H59            5.2771     2.5133    -9.9036 H       
  60 H60            4.2414     3.5159   -11.6825 H       
  61 H61            2.6851     3.4913   -10.7993 H       
  62 H62            4.0808     5.8350   -11.4067 H       
  63 H63            2.9601     5.6827   -10.0138 H       
  64 H64            6.0080     5.3204   -10.0544 H       
  65 H65            5.0175     6.2839    -8.9108 H       
  66 H66            6.3956     4.5496    -7.2402 H       
  67 H67            6.9441     3.7573    -8.7367 H       
@<TRIPOS>BOND
   1    1    6 1
   2    1   34 am
   3    1   36 1
   4    2    3 ar
   5    2    7 ar
   6    3    4 ar
   7    3    8 1
   8    4    5 ar
   9    4   37 1
  10    5    6 ar
  11    5   10 1
  12    6    7 ar
  13    7    9 1
  14    8   18 1
  15    9   38 1
  16    9   39 1
  17   10   11 1
  18   10   34 am
  19   11   12 1
  20   11   40 1
  21   11   41 1
  22   12   13 ar
  23   12   14 ar
  24   13   15 ar
  25   13   42 1
  26   14   17 ar
  27   14   43 1
  28   15   16 ar
  29   16   17 ar
  30   16   22 1
  31   17   44 1
  32   18   19 1
  33   18   45 1
  34   18   46 1
  35   19   20 1
  36   19   47 1
  37   19   48 1
  38   20   21 1
  39   20   49 1
  40   20   50 1
  41   21   51 1
  42   21   52 1
  43   21   53 1
  44   22   23 ar
  45   22   24 ar
  46   23   27 ar
  47   23   54 1
  48   24   25 ar
  49   24   55 1
  50   25   26 ar
  51   25   56 1
  52   26   27 ar
  53   26   57 1
  54   27   33 1
  55   28   29 1
  56   28   32 1
  57   28   58 1
  58   28   59 1
  59   29   30 1
  60   29   60 1
  61   29   61 1
  62   30   31 1
  63   30   62 1
  64   30   63 1
  65   31   32 1
  66   31   64 1
  67   31   65 1
  68   32   33 1
  69   33   66 1
  70   33   67 1
  71   34   35 2

#	End of record

