#	Name: ASD01411606
#	Creating user name:	WinNT
#	Creation time:	15. 06. 2019 19:19

#	Modifying user name:	WinNT
#	Modification time:	15. 06. 2019 19:19

#	Program:	/corina/corina34_cracker 3.40 0067  02.08.2006

@<TRIPOS>MOLECULE
ASD01411606
  54   55    0    0    0
SMALL
NO_CHARGES


@<TRIPOS>ATOM
   1 C1             1.1799    -0.7319     0.7241 C.2     
   2 N2             0.1267    -0.1268     0.1449 N.am    
   3 C3            -3.4260    -0.4732     0.9037 C.3     
   4 C4            -1.9613    -0.6048     1.3777 C.3     
   5 C5            -1.1625    -0.8189     0.0729 C.3     
   6 O6            -1.9862    -0.2411    -0.9632 O.3     
   7 C7            -3.3388    -0.6233    -0.6313 C.3     
   8 C8            -4.3392     0.3105    -1.3155 C.3     
   9 F9            -1.8181    -1.7075     2.2267 F       
  10 C10           -1.5089     0.6754     2.0828 C.3     
  11 N11            2.3631    -0.1256     0.8035 N.2     
  12 C12            2.5333     1.0946     0.3116 C.2     
  13 C13            1.4496     1.7562    -0.3017 C.2     
  14 C14            0.2530     1.1266    -0.3747 C.2     
  15 N15            3.7599     1.7111     0.3998 N.pl3   
  16 O16            1.0474    -1.8521     1.1884 O.2     
  17 O17           -4.2715     0.1224    -2.7536 O.3     
  18 C18           -5.0922     0.8724    -3.5057 C.2     
  19 O19           -5.8424     1.6601    -2.9797 O.2     
  20 C20           -5.0779     0.7321    -5.0061 C.3     
  21 C21           -5.4377    -0.7053    -5.3873 C.3     
  22 C22           -6.0994     1.6929    -5.6179 C.3     
  23 O23           -3.9602     0.8297     1.2580 O.3     
  24 C24           -5.2792     0.9033     1.4960 C.2     
  25 O25           -5.9647    -0.0880     1.4111 O.2     
  26 C26           -5.9051     2.2225     1.8690 C.3     
  27 C27           -5.6758     3.2324     0.7427 C.3     
  28 C28           -7.4077     2.0313     2.0844 C.3     
  29 H29           -4.0390    -1.2657     1.3329 H       
  30 H30           -1.0114    -1.8829    -0.1093 H       
  31 H31           -3.5233    -1.6574    -0.9225 H       
  32 H32           -5.3463     0.0827    -0.9663 H       
  33 H33           -4.0957     1.3448    -1.0725 H       
  34 H34           -2.1422     0.8549     2.9516 H       
  35 H35           -0.4732     0.5664     2.4045 H       
  36 H36           -1.5890     1.5169     1.3947 H       
  37 H37            1.5720     2.7499    -0.7066 H       
  38 H38           -0.5920     1.6125    -0.8396 H       
  39 H39            4.5034     1.2536     0.8225 H       
  40 H40            3.8812     2.6034     0.0392 H       
  41 H41           -4.0836     0.9702    -5.3838 H       
  42 H42           -6.4321    -0.9433    -5.0096 H       
  43 H43           -5.4274    -0.8068    -6.4725 H       
  44 H44           -4.7100    -1.3898    -4.9515 H       
  45 H45           -5.8431     2.7170    -5.3462 H       
  46 H46           -6.0891     1.5914    -6.7031 H       
  47 H47           -7.0938     1.4549    -5.2401 H       
  48 H48           -5.4506     2.5934     2.7877 H       
  49 H49           -6.1284     4.1865     1.0126 H       
  50 H50           -4.6053     3.3686     0.5893 H       
  51 H51           -6.1302     2.8615    -0.1759 H       
  52 H52           -7.5711     1.3118     2.8868 H       
  53 H53           -7.8604     2.9854     2.3542 H       
  54 H54           -7.8622     1.6604     1.1657 H       
@<TRIPOS>BOND
   1    1    2 am
   2    1   11 1
   3    1   16 2
   4    2    5 1
   5    2   14 1
   6    3    4 1
   7    3   23 1
   8    3    7 1
   9    3   29 1
  10    4    9 1
  11    4   10 1
  12    4    5 1
  13    5    6 1
  14    5   30 1
  15    6    7 1
  16    7    8 1
  17    7   31 1
  18    8   17 1
  19    8   32 1
  20    8   33 1
  21   10   34 1
  22   10   35 1
  23   10   36 1
  24   11   12 2
  25   12   13 1
  26   12   15 1
  27   13   14 2
  28   13   37 1
  29   14   38 1
  30   15   39 1
  31   15   40 1
  32   17   18 1
  33   18   19 2
  34   18   20 1
  35   20   21 1
  36   20   22 1
  37   20   41 1
  38   21   42 1
  39   21   43 1
  40   21   44 1
  41   22   45 1
  42   22   46 1
  43   22   47 1
  44   23   24 1
  45   24   25 2
  46   24   26 1
  47   26   27 1
  48   26   28 1
  49   26   48 1
  50   27   49 1
  51   27   50 1
  52   27   51 1
  53   28   52 1
  54   28   53 1
  55   28   54 1

#	End of record

