#	Name: ASD04550017
#	Creating user name:	WinNT
#	Creation time:	15. 06. 2019 20:49

#	Modifying user name:	WinNT
#	Modification time:	15. 06. 2019 20:49

#	Program:	/corina/corina34_cracker 3.40 0067  02.08.2006

@<TRIPOS>MOLECULE
ASD04550017
  28   28    0    0    0
SMALL
NO_CHARGES


@<TRIPOS>ATOM
   1 C1            -0.0168     1.3909     0.0097 C.ar    
   2 C2             0.0021    -0.0041     0.0020 C.ar    
   3 C3            -1.1853    -0.7072     0.0095 C.ar    
   4 C4            -2.3923    -0.0320     0.0242 C.ar    
   5 C5            -2.4180     1.3515     0.0314 C.ar    
   6 C6            -1.2380     2.0661     0.0308 C.ar    
   7 C7            -3.7376     2.0790     0.0463 C.3     
   8 C8            -4.5431     1.6998    -1.1980 C.3     
   9 C9             1.2512     2.1505     0.0017 C.2     
  10 C10            2.4097     1.5062    -0.0129 C.2     
  11 C11            3.7025     2.2805    -0.0210 C.3     
  12 C12           -4.5100     1.6931     1.2815 C.2     
  13 O13           -4.0373     0.9079     2.0689 O.2     
  14 O14           -5.7230     2.2217     1.5070 O.3     
  15 H15            0.9439    -0.5325    -0.0101 H       
  16 H16           -1.1720    -1.7871     0.0036 H       
  17 H17           -3.3189    -0.5869     0.0297 H       
  18 H18           -1.2593     3.1459     0.0368 H       
  19 H19           -3.5597     3.1543     0.0503 H       
  20 H20           -4.7211     0.6245    -1.2019 H       
  21 H21           -5.4976     2.2260    -1.1872 H       
  22 H22           -3.9845     1.9789    -2.0914 H       
  23 H23            1.2339     3.2303     0.0076 H       
  24 H24            2.4270     0.4263    -0.0188 H       
  25 H25            3.7417     2.9128    -0.9081 H       
  26 H26            3.7587     2.9032     0.8718 H       
  27 H27            4.5422     1.5856    -0.0328 H       
  28 H28           -6.1801     1.9440     2.3126 H       
@<TRIPOS>BOND
   1    1    2 ar
   2    1    9 1
   3    1    6 ar
   4    2    3 ar
   5    2   15 1
   6    3    4 ar
   7    3   16 1
   8    4    5 ar
   9    4   17 1
  10    5    6 ar
  11    5    7 1
  12    6   18 1
  13    7    8 1
  14    7   12 1
  15    7   19 1
  16    8   20 1
  17    8   21 1
  18    8   22 1
  19    9   10 2
  20    9   23 1
  21   10   11 1
  22   10   24 1
  23   11   25 1
  24   11   26 1
  25   11   27 1
  26   12   13 2
  27   12   14 1
  28   14   28 1

#	End of record

