#	Name: ASD01882504
#	Creating user name:	WinNT
#	Creation time:	15. 06. 2019 19:44

#	Modifying user name:	WinNT
#	Modification time:	15. 06. 2019 19:44

#	Program:	/corina/corina34_cracker 3.40 0067  02.08.2006

@<TRIPOS>MOLECULE
ASD01882504
  59   63    0    0    0
SMALL
NO_CHARGES


@<TRIPOS>ATOM
   1 C1             0.0176     1.4238     0.1479 C.2     
   2 C2             0.0987     0.0550     0.4681 C.2     
   3 C3             1.2817    -0.5963     0.3048 C.2     
   4 C4             2.4013     0.1021    -0.1789 C.2     
   5 C5             2.3087     1.4141    -0.4812 C.2     
   6 N6             1.1288     2.0795    -0.3227 N.pl3   
   7 N7            -0.5248     3.4530    -0.2129 N.2     
   8 N8            -0.9622     2.3120     0.1902 N.2     
   9 C9             0.7394     3.3655    -0.5371 C.2     
  10 C10           -1.1108    -0.6797     0.9861 C.3     
  11 F11           -0.9721    -0.8947     2.3615 F       
  12 F12           -2.2582     0.0840     0.7468 F       
  13 F13           -1.2248    -1.9106     0.3309 F       
  14 C14            1.3914    -2.0611     0.6416 C.3     
  15 N15            1.6391    -2.8287    -0.5862 N.3     
  16 C16            2.1150    -4.1823    -0.2736 C.3     
  17 C17            2.5000    -4.9008    -1.5688 C.3     
  18 C18            1.2796    -4.9690    -2.4910 C.3     
  19 C19            0.7744    -3.5492    -2.7619 C.3     
  20 C20            0.4394    -2.8698    -1.4321 C.3     
  21 O21            1.6476    -5.5885    -3.7251 O.3     
  22 C22            0.5838    -6.3042    -4.3561 C.3     
  23 C23            1.0812    -6.9132    -5.6416 C.ar    
  24 C24            0.2226    -7.6587    -6.4322 C.ar    
  25 C25            0.6796    -8.2175    -7.6130 C.ar    
  26 C26            1.9948    -8.0304    -8.0025 C.ar    
  27 C27            2.8514    -7.2847    -7.2107 C.ar    
  28 C28            2.3924    -6.7227    -6.0341 C.ar    
  29 F29            2.4424    -8.5757    -9.1548 F       
  30 F30           -1.0606    -7.8409    -6.0506 F       
  31 C31            1.6057     4.4841    -1.0559 C.3     
  32 C32            1.5262     4.5244    -2.5833 C.3     
  33 C33            2.2468     5.6691    -3.2983 C.3     
  34 C34            2.8121     4.2490    -3.3652 C.3     
  35 H35            3.3411    -0.4139    -0.3090 H       
  36 H36            3.1755     1.9411    -0.8518 H       
  37 H37            2.2163    -2.2130     1.3377 H       
  38 H38            0.4621    -2.3991     1.1002 H       
  39 H39            2.9855    -4.1194     0.3793 H       
  40 H40            1.3237    -4.7385     0.2289 H       
  41 H41            3.3008    -4.3526    -2.0649 H       
  42 H42            2.8385    -5.9109    -1.3378 H       
  43 H43            0.4923    -5.5504    -2.0111 H       
  44 H44            1.5481    -2.9797    -3.2768 H       
  45 H45           -0.1200    -3.5935    -3.3833 H       
  46 H46           -0.3440    -3.4321    -0.9242 H       
  47 H47            0.0930    -1.8537    -1.6206 H       
  48 H48            0.2330    -7.0940    -3.6918 H       
  49 H49           -0.2367    -5.6198    -4.5718 H       
  50 H50            0.0108    -8.7993    -8.2299 H       
  51 H51            3.8775    -7.1386    -7.5144 H       
  52 H52            3.0602    -6.1377    -5.4191 H       
  53 H53            1.2564     5.4330    -0.6487 H       
  54 H54            2.6383     4.3157    -0.7502 H       
  55 H55            0.5892     4.1722    -3.0147 H       
  56 H56            1.7842     6.0697    -4.2003 H       
  57 H57            2.7776     6.3935    -2.6805 H       
  58 H58            3.7148     4.0390    -2.7915 H       
  59 H59            2.7213     3.7152    -4.3113 H       
@<TRIPOS>BOND
   1    1    2 1
   2    1    6 1
   3    1    8 2
   4    2    3 2
   5    2   10 1
   6    3    4 1
   7    3   14 1
   8    4    5 2
   9    4   35 1
  10    5    6 1
  11    5   36 1
  12    6    9 1
  13    7    8 1
  14    7    9 2
  15    9   31 1
  16   10   11 1
  17   10   12 1
  18   10   13 1
  19   14   15 1
  20   14   37 1
  21   14   38 1
  22   15   16 1
  23   15   20 1
  24   16   17 1
  25   16   39 1
  26   16   40 1
  27   17   18 1
  28   17   41 1
  29   17   42 1
  30   18   19 1
  31   18   21 1
  32   18   43 1
  33   19   20 1
  34   19   44 1
  35   19   45 1
  36   20   46 1
  37   20   47 1
  38   21   22 1
  39   22   23 1
  40   22   48 1
  41   22   49 1
  42   23   24 ar
  43   23   28 ar
  44   24   25 ar
  45   24   30 1
  46   25   26 ar
  47   25   50 1
  48   26   27 ar
  49   26   29 1
  50   27   28 ar
  51   27   51 1
  52   28   52 1
  53   31   32 1
  54   31   53 1
  55   31   54 1
  56   32   33 1
  57   32   34 1
  58   32   55 1
  59   33   34 1
  60   33   56 1
  61   33   57 1
  62   34   58 1
  63   34   59 1

#	End of record

