#	Name: ASD00844480
#	Creating user name:	WinNT
#	Creation time:	15. 06. 2019 18:50

#	Modifying user name:	WinNT
#	Modification time:	15. 06. 2019 18:50

#	Program:	/corina/corina34_cracker 3.40 0067  02.08.2006

@<TRIPOS>MOLECULE
ASD00844480
  91   96    0    0    0
SMALL
NO_CHARGES


@<TRIPOS>ATOM
   1 F1            -0.0943    -3.1549     4.7135 F       
   2 C2            -0.0057     1.3862     0.0349 C.ar    
   3 C3             0.0090    -0.0007     0.0178 C.ar    
   4 C4             1.2191    -0.6792    -0.0020 C.ar    
   5 C5             2.4058     0.0276    -0.0045 C.ar    
   6 C6             2.3885     1.4103     0.0130 C.ar    
   7 C7             1.1841     2.0886     0.0323 C.ar    
   8 C8             1.2387    -2.1859    -0.0201 C.3     
   9 C9             0.4942    -2.7114    -1.2289 C.2     
  10 N10            2.6179    -2.6801    -0.0120 N.am    
  11 C11            3.4634    -2.3342    -1.0029 C.2     
  12 N12            4.7590    -2.7005    -0.9417 N.am    
  13 O13            3.0575    -1.6918    -1.9520 O.2     
  14 C14            5.6727    -2.4339    -2.0631 C.3     
  15 C15            6.9193    -1.7288    -1.5183 C.3     
  16 N16            7.4922    -2.5277    -0.4268 N.3     
  17 C17            6.5583    -2.6350     0.7020 C.3     
  18 C18            5.2982    -3.3718     0.2507 C.3     
  19 C19            8.7825    -1.9764     0.0081 C.3     
  20 C20            9.2885    -2.7566     1.2245 C.3     
  21 C21           10.6607    -2.2177     1.6354 C.3     
  22 N22           11.5993    -2.3600     0.5151 N.3     
  23 C23           11.1586    -1.5811    -0.6491 C.3     
  24 C24            9.8013    -2.1009    -1.1282 C.3     
  25 C25           12.9604    -1.9811     0.9173 C.3     
  26 O26            0.7736    -2.5082    -2.3916 O.2     
  27 N27           -0.5341    -3.4457    -0.7720 N.am    
  28 C28            0.4679    -2.7397     1.1562 C.ar    
  29 C29           -0.5781    -3.4826     0.6233 C.ar    
  30 C30            0.6325    -2.6279     2.5186 C.ar    
  31 C31           -0.2523    -3.2616     3.3761 C.ar    
  32 C32           -1.3004    -4.0061     2.8563 C.ar    
  33 C33           -1.4652    -4.1180     1.4891 C.ar    
  34 F34           -2.1643    -4.6248     3.6906 F       
  35 C35           -0.9916    -5.8320    -2.0646 C.ar    
  36 C36            0.1867    -5.9877    -2.7804 C.ar    
  37 C37           -1.6665    -6.9418    -1.5926 C.ar    
  38 C38           -1.1698    -8.2086    -1.8317 C.ar    
  39 C39            0.0085    -8.3696    -2.5472 C.ar    
  40 C40            0.6870    -7.2581    -3.0220 C.ar    
  41 O41            0.4963    -9.6160    -2.7825 O.3     
  42 O42            0.8497    -4.8961    -3.2446 O.3     
  43 C43            2.0562    -5.1311    -3.9735 C.3     
  44 C44           -0.2551   -10.7153    -2.2640 C.3     
  45 O45           -1.1600    -0.6938     0.0208 O.3     
  46 C46           -2.3673     0.0704     0.0420 C.3     
  47 C47           -3.5697    -0.8756     0.0423 C.3     
  48 F48           -3.5398    -1.6682    -1.1102 F       
  49 F49           -3.5173    -1.6962     1.1741 F       
  50 S50           -1.6242    -4.2177    -1.7508 S.o2    
  51 O51           -2.8040    -4.3922    -0.9782 O.2     
  52 O52           -1.6041    -3.5302    -2.9943 O.2     
  53 H53           -0.9464     1.9167     0.0458 H       
  54 H54            3.3481    -0.5000    -0.0199 H       
  55 H55            3.3175     1.9611     0.0117 H       
  56 H56            1.1732     3.1685     0.0460 H       
  57 H57            2.9224    -3.2562     0.7064 H       
  58 H58            5.9600    -3.3746    -2.5329 H       
  59 H59            5.1789    -1.7926    -2.7932 H       
  60 H60            7.6547    -1.6222    -2.3158 H       
  61 H61            6.6446    -0.7432    -1.1422 H       
  62 H62            7.0318    -3.1857     1.5148 H       
  63 H63            6.2886    -1.6369     1.0471 H       
  64 H64            4.5572    -3.3533     1.0498 H       
  65 H65            5.5467    -4.4035     0.0017 H       
  66 H66            8.6589    -0.9266     0.2743 H       
  67 H67            8.5880    -2.6366     2.0510 H       
  68 H68            9.3738    -3.8129     0.9696 H       
  69 H69           10.5720    -1.1649     1.9035 H       
  70 H70           11.0302    -2.7807     2.4925 H       
  71 H71           11.0676    -0.5313    -0.3703 H       
  72 H72           11.8897    -1.6816    -1.4513 H       
  73 H73            9.8946    -3.1469    -1.4202 H       
  74 H74            9.4671    -1.5124    -1.9826 H       
  75 H75           13.2903    -2.6239     1.7335 H       
  76 H76           13.6352    -2.0958     0.0690 H       
  77 H77           12.9657    -0.9425     1.2480 H       
  78 H78            1.4506    -2.0472     2.9184 H       
  79 H79           -2.2838    -4.6991     1.0908 H       
  80 H80           -2.5836    -6.8186    -1.0356 H       
  81 H81           -1.6987    -9.0743    -1.4612 H       
  82 H82            1.6039    -7.3814    -3.5793 H       
  83 H83            2.7680    -5.6577    -3.3378 H       
  84 H84            1.8372    -5.7367    -4.8530 H       
  85 H85            2.4835    -4.1783    -4.2858 H       
  86 H86           -0.3255   -10.6282    -1.1798 H       
  87 H87           -1.2563   -10.7065    -2.6950 H       
  88 H88            0.2432   -11.6498    -2.5218 H       
  89 H89           -2.3906     0.6879     0.9399 H       
  90 H90           -2.4082     0.7097    -0.8398 H       
  91 H91           -4.4906    -0.2927     0.0585 H       
@<TRIPOS>BOND
   1    1   31 1
   2    2    3 ar
   3    2    7 ar
   4    2   53 1
   5    3    4 ar
   6    3   45 1
   7    4    5 ar
   8    4    8 1
   9    5    6 ar
  10    5   54 1
  11    6    7 ar
  12    6   55 1
  13    7   56 1
  14    8    9 1
  15    8   10 1
  16    8   28 1
  17    9   26 2
  18    9   27 am
  19   10   11 am
  20   10   57 1
  21   11   12 am
  22   11   13 2
  23   12   14 1
  24   12   18 1
  25   14   15 1
  26   14   58 1
  27   14   59 1
  28   15   16 1
  29   15   60 1
  30   15   61 1
  31   16   17 1
  32   16   19 1
  33   17   18 1
  34   17   62 1
  35   17   63 1
  36   18   64 1
  37   18   65 1
  38   19   20 1
  39   19   24 1
  40   19   66 1
  41   20   21 1
  42   20   67 1
  43   20   68 1
  44   21   22 1
  45   21   69 1
  46   21   70 1
  47   22   23 1
  48   22   25 1
  49   23   24 1
  50   23   71 1
  51   23   72 1
  52   24   73 1
  53   24   74 1
  54   25   75 1
  55   25   76 1
  56   25   77 1
  57   27   50 am
  58   27   29 1
  59   28   29 ar
  60   28   30 ar
  61   29   33 ar
  62   30   31 ar
  63   30   78 1
  64   31   32 ar
  65   32   33 ar
  66   32   34 1
  67   33   79 1
  68   35   36 ar
  69   35   37 ar
  70   35   50 1
  71   36   42 1
  72   36   40 ar
  73   37   38 ar
  74   37   80 1
  75   38   39 ar
  76   38   81 1
  77   39   40 ar
  78   39   41 1
  79   40   82 1
  80   41   44 1
  81   42   43 1
  82   43   83 1
  83   43   84 1
  84   43   85 1
  85   44   86 1
  86   44   87 1
  87   44   88 1
  88   45   46 1
  89   46   47 1
  90   46   89 1
  91   46   90 1
  92   47   48 1
  93   47   49 1
  94   47   91 1
  95   50   51 2
  96   50   52 2

#	End of record

