#	Name: ASD01917417
#	Creating user name:	WinNT
#	Creation time:	15. 06. 2019 20:09

#	Modifying user name:	WinNT
#	Modification time:	15. 06. 2019 20:09

#	Program:	/corina/corina34_cracker 3.40 0067  02.08.2006

@<TRIPOS>MOLECULE
ASD01917417
  48   52    0    0    0
SMALL
NO_CHARGES


@<TRIPOS>ATOM
   1 C1            -0.0171     1.4103     0.0098 C.ar    
   2 C2             0.0021    -0.0041     0.0020 C.ar    
   3 C3            -1.1916    -0.7253     0.0414 C.ar    
   4 C4            -2.3838    -0.0632     0.0742 C.ar    
   5 C5            -2.4208     1.3389     0.0659 C.ar    
   6 C6            -1.2404     2.0764     0.0357 C.ar    
   7 N7             1.1599     2.0757     0.0021 N.2     
   8 C8             2.3197     1.4678    -0.0397 C.2     
   9 N9             2.4195     0.1196    -0.1575 N.am    
  10 C10            1.3096    -0.6626    -0.0625 C.2     
  11 O11            1.4007    -1.8763    -0.0319 O.2     
  12 C12           -3.7206     2.0374     0.0899 C.2     
  13 C13            3.5358     2.3449     0.1020 C.3     
  14 C14            4.7921     1.6920    -0.4309 C.3     
  15 C15            4.8960     0.2355    -0.0271 C.3     
  16 C16            3.6788    -0.5622    -0.4369 C.3     
  17 C17            6.1341    -0.3749    -0.6870 C.3     
  18 C18            5.0550     0.1522     1.4923 C.3     
  19 C19           -4.9525     1.4569     0.1207 C.2     
  20 N20           -5.8619     2.4353     0.1343 N.2     
  21 C21           -5.2413     3.5931     0.1131 C.2     
  22 O22           -3.9149     3.3745     0.0914 O.3     
  23 C23           -5.8942     4.9185     0.1188 C.ar    
  24 N24           -5.1510     6.0195     0.0949 N.ar    
  25 C25           -5.6943     7.2188     0.0990 C.ar    
  26 C26           -7.0686     7.3767     0.1286 C.ar    
  27 C27           -7.8831     6.2532     0.1543 C.ar    
  28 C28           -7.2870     5.0044     0.1436 C.ar    
  29 H29           -1.1718    -1.8051     0.0457 H       
  30 H30           -3.3067    -0.6231     0.1064 H       
  31 H31           -1.2728     3.1559     0.0313 H       
  32 H32            3.3647     3.2742    -0.4413 H       
  33 H33            3.6807     2.5779     1.1569 H       
  34 H34            4.7909     1.7582    -1.5189 H       
  35 H35            5.6597     2.2283    -0.0466 H       
  36 H36            3.6877    -1.5125     0.0968 H       
  37 H37            3.7371    -0.7643    -1.5064 H       
  38 H38            7.0234     0.1628    -0.3582 H       
  39 H39            6.2177    -1.4237    -0.4023 H       
  40 H40            6.0433    -0.2986    -1.7705 H       
  41 H41            4.1893     0.6070     1.9737 H       
  42 H42            5.1307    -0.8928     1.7930 H       
  43 H43            5.9584     0.6831     1.7927 H       
  44 H44           -5.1571     0.3965     0.1315 H       
  45 H45           -5.0584     8.0916     0.0793 H       
  46 H46           -7.5035     8.3652     0.1320 H       
  47 H47           -8.9584     6.3514     0.1780 H       
  48 H48           -7.8906     4.1090     0.1625 H       
@<TRIPOS>BOND
   1    1    2 ar
   2    1    7 1
   3    1    6 ar
   4    2    3 ar
   5    2   10 1
   6    3    4 ar
   7    3   29 1
   8    4    5 ar
   9    4   30 1
  10    5    6 ar
  11    5   12 1
  12    6   31 1
  13    7    8 2
  14    8    9 1
  15    8   13 1
  16    9   10 am
  17    9   16 1
  18   10   11 2
  19   12   19 2
  20   12   22 1
  21   13   14 1
  22   13   32 1
  23   13   33 1
  24   14   15 1
  25   14   34 1
  26   14   35 1
  27   15   16 1
  28   15   17 1
  29   15   18 1
  30   16   36 1
  31   16   37 1
  32   17   38 1
  33   17   39 1
  34   17   40 1
  35   18   41 1
  36   18   42 1
  37   18   43 1
  38   19   20 1
  39   19   44 1
  40   20   21 2
  41   21   23 1
  42   21   22 1
  43   23   24 ar
  44   23   28 ar
  45   24   25 ar
  46   25   26 ar
  47   25   45 1
  48   26   27 ar
  49   26   46 1
  50   27   28 ar
  51   27   47 1
  52   28   48 1

#	End of record

