#	Name: ASD03091322
#	Creating user name:	WinNT
#	Creation time:	15. 06. 2019 20:30

#	Modifying user name:	WinNT
#	Modification time:	15. 06. 2019 20:30

#	Program:	/corina/corina34_cracker 3.40 0067  02.08.2006

@<TRIPOS>MOLECULE
ASD03091322
  44   46    0    0    0
SMALL
NO_CHARGES


@<TRIPOS>ATOM
   1 C1            -0.0167     1.3780     0.0096 C.ar    
   2 C2             0.0021    -0.0041     0.0020 C.ar    
   3 C3             1.2080    -0.6794    -0.0131 C.ar    
   4 C4             2.3969     0.0266    -0.0202 C.ar    
   5 C5             2.3806     1.4083    -0.0122 C.ar    
   6 C6             1.1730     2.0859     0.0021 C.ar    
   7 C7             3.6765     2.1774    -0.0189 C.3     
   8 C8             4.6404     1.9477     1.1469 C.3     
   9 C9             4.9670     1.3853    -0.2380 C.3     
  10 C10            4.2212     0.9697     2.2140 C.2     
  11 N11            5.0318     0.7291     3.2635 N.am    
  12 O12            3.1545     0.3990     2.1283 O.2     
  13 C13            4.6243    -0.2217     4.3009 C.3     
  14 C14            5.3228     0.1148     5.5932 C.ar    
  15 C15            6.6459     0.5157     5.5784 C.ar    
  16 C16            4.6377     0.0276     6.7910 C.ar    
  17 C17            5.2756     0.3360     7.9769 C.ar    
  18 C18            6.6049     0.7331     7.9653 C.ar    
  19 C19            7.2885     0.8248     6.7616 C.ar    
  20 C20            5.0038    -1.6400     3.8704 C.3     
  21 O21            6.4266    -1.7500     3.7945 O.3     
  22 O22            7.2345     1.0374     9.1306 O.3     
  23 C23            8.6032     1.4387     9.0428 C.3     
  24 F24            1.1559     3.4368     0.0090 F       
  25 H25           -0.9591     1.9054     0.0169 H       
  26 H26           -0.9259    -0.5565     0.0083 H       
  27 H27            1.2217    -1.7592    -0.0191 H       
  28 H28            3.3385    -0.5021    -0.0317 H       
  29 H29            3.6248     3.1820    -0.4388 H       
  30 H30            5.2231     2.8011     1.4937 H       
  31 H31            4.8787     0.3078    -0.3773 H       
  32 H32            5.7646     1.8686    -0.8022 H       
  33 H33            5.8850     1.1855     3.3321 H       
  34 H34            3.5455    -0.1622     4.4448 H       
  35 H35            7.1777     0.5870     4.6411 H       
  36 H36            3.6029    -0.2815     6.7995 H       
  37 H37            4.7399     0.2684     8.9122 H       
  38 H38            8.3222     1.1375     6.7496 H       
  39 H39            4.6224    -2.3552     4.5991 H       
  40 H40            4.5704    -1.8511     2.8928 H       
  41 H41            6.7397    -2.6248     3.5265 H       
  42 H42            9.1890     0.6364     8.5942 H       
  43 H43            8.6805     2.3338     8.4257 H       
  44 H44            8.9841     1.6520    10.0416 H       
@<TRIPOS>BOND
   1    1    2 ar
   2    1    6 ar
   3    1   25 1
   4    2    3 ar
   5    2   26 1
   6    3    4 ar
   7    3   27 1
   8    4    5 ar
   9    4   28 1
  10    5    6 ar
  11    5    7 1
  12    6   24 1
  13    7    8 1
  14    7    9 1
  15    7   29 1
  16    8    9 1
  17    8   10 1
  18    8   30 1
  19    9   31 1
  20    9   32 1
  21   10   11 am
  22   10   12 2
  23   11   13 1
  24   11   33 1
  25   13   14 1
  26   13   20 1
  27   13   34 1
  28   14   16 ar
  29   14   15 ar
  30   15   19 ar
  31   15   35 1
  32   16   17 ar
  33   16   36 1
  34   17   18 ar
  35   17   37 1
  36   18   19 ar
  37   18   22 1
  38   19   38 1
  39   20   21 1
  40   20   39 1
  41   20   40 1
  42   21   41 1
  43   22   23 1
  44   23   42 1
  45   23   43 1
  46   23   44 1

#	End of record

