#	Name: ASD05173007
#	Creating user name:	WinNT
#	Creation time:	15. 06. 2019 20:57

#	Modifying user name:	WinNT
#	Modification time:	15. 06. 2019 20:57

#	Program:	/corina/corina34_cracker 3.40 0067  02.08.2006

@<TRIPOS>MOLECULE
ASD05173007
  30   32    0    0    0
SMALL
NO_CHARGES


@<TRIPOS>ATOM
   1 C1            -0.0167     1.3811     0.0096 C.ar    
   2 C2             0.0021    -0.0041     0.0020 C.ar    
   3 C3             1.2033    -0.6759    -0.0106 C.ar    
   4 C4             2.4181     0.0312    -0.0154 C.ar    
   5 C5             2.3946     1.4256    -0.0123 C.ar    
   6 C6             1.1663     2.0882     0.0021 C.ar    
   7 N7             3.5577    -0.7066    -0.0165 N.2     
   8 C8             4.6130    -0.4683    -0.7041 C.2     
   9 C9             4.7184     0.7304    -1.6094 C.3     
  10 C10            4.6260     1.9713    -0.7578 C.2     
  11 N11            3.5360     2.2158    -0.0284 N.am    
  12 O12            5.5516     2.7548    -0.7358 O.2     
  13 C13            5.7560    -1.3937    -0.6054 C.ar    
  14 C14            6.9284    -1.1704    -1.3398 C.ar    
  15 C15            7.9791    -2.0610    -1.2200 C.ar    
  16 N16            7.8936    -3.1102    -0.4303 N.ar    
  17 C17            6.8043    -3.3654     0.2860 C.ar    
  18 C18            5.7021    -2.5169     0.2293 C.ar    
  19 Br19          -1.6225    -0.9718     0.0096 Br      
  20 C20            6.7655    -4.5221     1.1294 C.1     
  21 N21            6.7347    -5.4397     1.7984 N.1     
  22 H22           -0.9597     1.9075     0.0170 H       
  23 H23            1.2126    -1.7558    -0.0165 H       
  24 H24            1.1425     3.1679     0.0078 H       
  25 H25            5.6745     0.7135    -2.1326 H       
  26 H26            3.9025     0.7185    -2.3321 H       
  27 H27            3.5413     3.0065     0.5334 H       
  28 H28            7.0101    -0.3132    -1.9917 H       
  29 H29            8.8847    -1.8931    -1.7840 H       
  30 H30            4.8174    -2.7260     0.8124 H       
@<TRIPOS>BOND
   1    1    2 ar
   2    1    6 ar
   3    1   22 1
   4    2    3 ar
   5    2   19 1
   6    3    4 ar
   7    3   23 1
   8    4    5 ar
   9    4    7 1
  10    5    6 ar
  11    5   11 1
  12    6   24 1
  13    7    8 2
  14    8    9 1
  15    8   13 1
  16    9   10 1
  17    9   25 1
  18    9   26 1
  19   10   11 am
  20   10   12 2
  21   11   27 1
  22   13   14 ar
  23   13   18 ar
  24   14   15 ar
  25   14   28 1
  26   15   16 ar
  27   15   29 1
  28   16   17 ar
  29   17   18 ar
  30   17   20 1
  31   18   30 1
  32   20   21 3

#	End of record

