#	Name: ASD01913028
#	Creating user name:	WinNT
#	Creation time:	15. 06. 2019 20:00

#	Modifying user name:	WinNT
#	Modification time:	15. 06. 2019 20:00

#	Program:	/corina/corina34_cracker 3.40 0067  02.08.2006

@<TRIPOS>MOLECULE
ASD01913028
  61   65    0    0    0
SMALL
NO_CHARGES


@<TRIPOS>ATOM
   1 C1            -0.0234     1.4425     0.4122 C.ar    
   2 C2            -0.0003    -0.0187     0.1785 C.2     
   3 N3            -1.0869    -0.8248     0.0080 N.pl3   
   4 C4             1.1120    -0.8032     0.0886 C.2     
   5 C5             0.6885    -2.1238    -0.1370 C.2     
   6 N6            -0.6272    -2.1337    -0.1847 N.2     
   7 C7             1.5731    -3.3048    -0.2978 C.ar    
   8 C8             2.9498    -3.1752    -0.1260 C.ar    
   9 C9             1.0287    -4.5472    -0.6154 C.ar    
  10 C10            1.8548    -5.6427    -0.7641 C.ar    
  11 C11            3.2234    -5.5082    -0.5980 C.ar    
  12 C12            3.7684    -4.2755    -0.2765 C.ar    
  13 C13           -2.4881    -0.3973     0.0244 C.3     
  14 C14           -2.9464    -0.1240    -1.3849 C.2     
  15 N15           -4.2099     0.2847    -1.6154 N.am    
  16 O16           -2.1783    -0.2718    -2.3118 O.2     
  17 C17           -4.6776     0.5570    -2.9830 C.3     
  18 C18           -5.9843    -0.2101    -3.2123 C.3     
  19 N19           -6.9403     0.1289    -2.1497 N.3     
  20 C20           -6.4452    -0.2934    -0.8328 C.3     
  21 C21           -5.1592     0.4644    -0.5065 C.3     
  22 C22           -8.1967    -0.4219    -2.4124 C.ar    
  23 C23           -9.2458    -0.2173    -1.5252 C.ar    
  24 C24          -10.4869    -0.7630    -1.7881 C.ar    
  25 C25          -10.6858    -1.5124    -2.9332 C.ar    
  26 C26           -9.6436    -1.7181    -3.8185 C.ar    
  27 C27           -8.4014    -1.1708    -3.5643 C.ar    
  28 C28            1.2669    -6.9872    -1.1071 C.3     
  29 F29            4.0285    -6.5832    -0.7445 F       
  30 C30            1.0611     2.0711     1.0242 C.ar    
  31 C31            1.0335     3.4337     1.2394 C.ar    
  32 C32           -0.0669     4.1763     0.8500 C.ar    
  33 C33           -1.1456     3.5587     0.2426 C.ar    
  34 C34           -1.1274     2.1977     0.0162 C.ar    
  35 H35            2.1353    -0.4689     0.1748 H       
  36 H36            3.3755    -2.2147     0.1243 H       
  37 H37           -0.0383    -4.6529    -0.7447 H       
  38 H38            4.8360    -4.1749    -0.1482 H       
  39 H39           -3.1031    -1.1846     0.4602 H       
  40 H40           -2.5840     0.5104     0.6202 H       
  41 H41           -4.8545     1.6257    -3.1035 H       
  42 H42           -3.9270     0.2241    -3.6998 H       
  43 H43           -6.4030     0.0659    -4.1800 H       
  44 H44           -5.7850    -1.2816    -3.1940 H       
  45 H45           -7.1982    -0.0778    -0.0748 H       
  46 H46           -6.2395    -1.3637    -0.8476 H       
  47 H47           -4.7272     0.0730     0.4145 H       
  48 H48           -5.3793     1.5254    -0.3890 H       
  49 H49           -9.0909     0.3676    -0.6305 H       
  50 H50          -11.3028    -0.6046    -1.0986 H       
  51 H51          -11.6573    -1.9383    -3.1363 H       
  52 H52           -9.8024    -2.3038    -4.7118 H       
  53 H53           -7.5880    -1.3315    -4.2563 H       
  54 H54            1.2255    -7.0999    -2.1905 H       
  55 H55            1.8899    -7.7749    -0.6834 H       
  56 H56            0.2602    -7.0593    -0.6956 H       
  57 H57            1.9204     1.4923     1.3293 H       
  58 H58            1.8725     3.9216     1.7132 H       
  59 H59           -0.0841     5.2425     1.0212 H       
  60 H60           -2.0019     4.1437    -0.0589 H       
  61 H61           -1.9699     1.7168    -0.4584 H       
@<TRIPOS>BOND
   1    1    2 1
   2    1   30 ar
   3    1   34 ar
   4    2    3 1
   5    2    4 2
   6    3   13 1
   7    3    6 1
   8    4    5 1
   9    4   35 1
  10    5    6 2
  11    5    7 1
  12    7    8 ar
  13    7    9 ar
  14    8   12 ar
  15    8   36 1
  16    9   10 ar
  17    9   37 1
  18   10   11 ar
  19   10   28 1
  20   11   12 ar
  21   11   29 1
  22   12   38 1
  23   13   14 1
  24   13   39 1
  25   13   40 1
  26   14   15 am
  27   14   16 2
  28   15   17 1
  29   15   21 1
  30   17   18 1
  31   17   41 1
  32   17   42 1
  33   18   19 1
  34   18   43 1
  35   18   44 1
  36   19   20 1
  37   19   22 1
  38   20   21 1
  39   20   45 1
  40   20   46 1
  41   21   47 1
  42   21   48 1
  43   22   23 ar
  44   22   27 ar
  45   23   24 ar
  46   23   49 1
  47   24   25 ar
  48   24   50 1
  49   25   26 ar
  50   25   51 1
  51   26   27 ar
  52   26   52 1
  53   27   53 1
  54   28   54 1
  55   28   55 1
  56   28   56 1
  57   30   31 ar
  58   30   57 1
  59   31   32 ar
  60   31   58 1
  61   32   33 ar
  62   32   59 1
  63   33   34 ar
  64   33   60 1
  65   34   61 1

#	End of record

