#	Name: ASD01420019
#	Creating user name:	WinNT
#	Creation time:	15. 06. 2019 19:20

#	Modifying user name:	WinNT
#	Modification time:	15. 06. 2019 19:20

#	Program:	/corina/corina34_cracker 3.40 0067  02.08.2006

@<TRIPOS>MOLECULE
ASD01420019
  34   36    0    0    0
SMALL
NO_CHARGES


@<TRIPOS>ATOM
   1 C1            -0.0178     1.4621     0.0101 C.3     
   2 N2             0.0021    -0.0041     0.0020 N.am    
   3 C3             1.4109    -0.4106    -0.0136 C.3     
   4 C4             2.2496     0.8424    -0.0149 C.ar    
   5 C5             3.6223     1.0205    -0.0270 C.ar    
   6 C6             4.1559     2.2960    -0.0248 C.ar    
   7 C7             3.3162     3.3957    -0.0109 C.ar    
   8 C8             1.9466     3.2174     0.0008 C.ar    
   9 C9             1.4122     1.9401    -0.0010 C.ar    
  10 Cl10           5.8777     2.5176    -0.0389 Cl      
  11 S11           -1.3145    -1.0085     0.0097 S.o2    
  12 O12           -0.8701    -2.2484     0.5431 O.2     
  13 O13           -2.3861    -0.2613     0.5688 O.2     
  14 C14           -1.7458    -1.3159    -1.6708 C.ar    
  15 C15           -2.4229    -1.7983    -4.3076 C.ar    
  16 C16           -1.1890    -2.3882    -2.3424 C.ar    
  17 C17           -2.6454    -0.4880    -2.3160 C.ar    
  18 C18           -1.5273    -2.6293    -3.6608 C.ar    
  19 C19           -2.9838    -0.7291    -3.6344 C.ar    
  20 C20           -2.7917    -2.0611    -5.7449 C.3     
  21 H21           -0.5370     1.8294    -0.8752 H       
  22 H22           -0.5200     1.8198     0.9090 H       
  23 H23            1.6341    -1.0037     0.8732 H       
  24 H24            1.6170    -0.9941    -0.9109 H       
  25 H25            4.2774     0.1620    -0.0379 H       
  26 H26            3.7314     4.3927    -0.0088 H       
  27 H27            1.2913     4.0758     0.0116 H       
  28 H28           -0.4893    -3.0374    -1.8370 H       
  29 H29           -3.0841     0.3470    -1.7899 H       
  30 H30           -1.0891    -3.4646    -4.1867 H       
  31 H31           -3.6835    -0.0799    -4.1398 H       
  32 H32           -3.6578    -2.7218    -5.7828 H       
  33 H33           -3.0321    -1.1184    -6.2365 H       
  34 H34           -1.9520    -2.5332    -6.2550 H       
@<TRIPOS>BOND
   1    1    2 1
   2    1    9 1
   3    1   21 1
   4    1   22 1
   5    2    3 1
   6    2   11 am
   7    3    4 1
   8    3   23 1
   9    3   24 1
  10    4    5 ar
  11    4    9 ar
  12    5    6 ar
  13    5   25 1
  14    6    7 ar
  15    6   10 1
  16    7    8 ar
  17    7   26 1
  18    8    9 ar
  19    8   27 1
  20   11   12 2
  21   11   13 2
  22   11   14 1
  23   14   16 ar
  24   14   17 ar
  25   15   18 ar
  26   15   19 ar
  27   15   20 1
  28   16   18 ar
  29   16   28 1
  30   17   19 ar
  31   17   29 1
  32   18   30 1
  33   19   31 1
  34   20   32 1
  35   20   33 1
  36   20   34 1

#	End of record

