#	Name: ASD06170128
#	Creating user name:	WinNT
#	Creation time:	15. 06. 2019 21:05

#	Modifying user name:	WinNT
#	Modification time:	15. 06. 2019 21:05

#	Program:	/corina/corina34_cracker 3.40 0067  02.08.2006

@<TRIPOS>MOLECULE
ASD06170128
  74   79    0    0    0
SMALL
NO_CHARGES


@<TRIPOS>ATOM
   1 N1             0.1129     1.7242    -0.1358 N.pl3   
   2 N2             0.0293     0.3470     0.0899 N.am    
   3 C3             1.2654    -0.1192     0.3638 C.2     
   4 C4             2.1716     1.0387     0.3046 C.2     
   5 C5             1.3894     2.1335    -0.0074 C.2     
   6 C6             3.6217     1.0316     0.5322 C.2     
   7 O7             4.2552     2.0675     0.4521 O.2     
   8 N8             4.2514    -0.1221     0.8301 N.am    
   9 C9            -1.0193     2.5922    -0.4688 C.3     
  10 C10           -1.5684     3.2077     0.7924 C.ar    
  11 C11           -1.0728     4.4164     1.2443 C.ar    
  12 C12           -1.5764     4.9809     2.4012 C.ar    
  13 C13           -2.5761     4.3369     3.1060 C.ar    
  14 C14           -3.0725     3.1287     2.6537 C.ar    
  15 C15           -2.5718     2.5663     1.4944 C.ar    
  16 C16           -1.1399    -0.4190     0.0405 C.ar    
  17 C17           -2.0458    -0.2402    -0.9969 C.ar    
  18 C18           -3.1992    -0.9985    -1.0430 C.ar    
  19 C19           -3.4525    -1.9351    -0.0576 C.ar    
  20 C20           -2.5528    -2.1153     0.9769 C.ar    
  21 C21           -1.3948    -1.3642     1.0257 C.ar    
  22 O22            1.5708    -1.2708     0.6115 O.2     
  23 C23            1.8817     3.5478    -0.1762 C.3     
  24 C24            5.6502    -0.1632     0.8819 C.ar    
  25 C25            6.3670     0.9806     1.2089 C.ar    
  26 C26            7.7476     0.9391     1.2597 C.ar    
  27 C27            8.4173    -0.2470     0.9835 C.ar    
  28 C28            7.7006    -1.3881     0.6568 C.ar    
  29 C29            6.3204    -1.3486     0.6119 C.ar    
  30 F30            8.4459     2.0512     1.5772 F       
  31 O31            9.7757    -0.2883     1.0334 O.3     
  32 N32           11.5585    -0.2201     4.7519 N.ar    
  33 C33           10.2574    -0.0890     4.6413 C.ar    
  34 C34            9.6218    -0.1069     3.4062 C.ar    
  35 C35           10.3688    -0.2666     2.2524 C.ar    
  36 C36           11.7688    -0.4068     2.3836 C.ar    
  37 C37           12.5921    -0.5721     1.2598 C.ar    
  38 C38           13.9408    -0.7041     1.4239 C.ar    
  39 C39           14.5112    -0.6760     2.7045 C.ar    
  40 C40           13.7331    -0.5169     3.8148 C.ar    
  41 C41           12.3420    -0.3781     3.6783 C.ar    
  42 O42           15.8565    -0.8094     2.8422 O.3     
  43 C43           16.3794    -0.7729     4.1716 C.3     
  44 O44           14.7389    -0.8648     0.3348 O.3     
  45 C45           14.0976    -0.8855    -0.9420 C.3     
  46 H46            3.7357    -0.9241     1.0086 H       
  47 H47           -0.6862     3.3813    -1.1430 H       
  48 H48           -1.7976     2.0038    -0.9547 H       
  49 H49           -0.2917     4.9195     0.6936 H       
  50 H50           -1.1887     5.9249     2.7546 H       
  51 H51           -2.9692     4.7776     4.0103 H       
  52 H52           -3.8533     2.6254     3.2045 H       
  53 H53           -2.9621     1.6241     1.1390 H       
  54 H54           -1.8487     0.4914    -1.7666 H       
  55 H55           -3.9042    -0.8597    -1.8493 H       
  56 H56           -4.3551    -2.5268    -0.0960 H       
  57 H57           -2.7537    -2.8473     1.7451 H       
  58 H58           -0.6904    -1.5085     1.8315 H       
  59 H59            1.8440     4.0626     0.7838 H       
  60 H60            2.9087     3.5339    -0.5409 H       
  61 H61            1.2484     4.0698    -0.8935 H       
  62 H62            5.8459     1.9021     1.4230 H       
  63 H63            8.2215    -2.3093     0.4416 H       
  64 H64            5.7628    -2.2392     0.3623 H       
  65 H65            9.6644     0.0362     5.5352 H       
  66 H66            8.5490     0.0027     3.3469 H       
  67 H67           12.1610    -0.5952     0.2698 H       
  68 H68           14.1858    -0.4971     4.7951 H       
  69 H69           15.9434    -1.5832     4.7559 H       
  70 H70           17.4626    -0.8902     4.1394 H       
  71 H71           16.1310     0.1826     4.6336 H       
  72 H72           14.8465    -1.0195    -1.7226 H       
  73 H73           13.3847    -1.7093    -0.9772 H       
  74 H74           13.5724     0.0564    -1.1002 H       
@<TRIPOS>BOND
   1    1    2 1
   2    1    5 1
   3    1    9 1
   4    2    3 am
   5    2   16 1
   6    3    4 1
   7    3   22 2
   8    4    5 2
   9    4    6 1
  10    5   23 1
  11    6    7 2
  12    6    8 am
  13    8   24 1
  14    8   46 1
  15    9   10 1
  16    9   47 1
  17    9   48 1
  18   10   11 ar
  19   10   15 ar
  20   11   12 ar
  21   11   49 1
  22   12   13 ar
  23   12   50 1
  24   13   14 ar
  25   13   51 1
  26   14   15 ar
  27   14   52 1
  28   15   53 1
  29   16   17 ar
  30   16   21 ar
  31   17   18 ar
  32   17   54 1
  33   18   19 ar
  34   18   55 1
  35   19   20 ar
  36   19   56 1
  37   20   21 ar
  38   20   57 1
  39   21   58 1
  40   23   59 1
  41   23   60 1
  42   23   61 1
  43   24   25 ar
  44   24   29 ar
  45   25   26 ar
  46   25   62 1
  47   26   27 ar
  48   26   30 1
  49   27   28 ar
  50   27   31 1
  51   28   29 ar
  52   28   63 1
  53   29   64 1
  54   31   35 1
  55   32   33 ar
  56   32   41 ar
  57   33   34 ar
  58   33   65 1
  59   34   35 ar
  60   34   66 1
  61   35   36 ar
  62   36   37 ar
  63   36   41 ar
  64   37   38 ar
  65   37   67 1
  66   38   39 ar
  67   38   44 1
  68   39   40 ar
  69   39   42 1
  70   40   41 ar
  71   40   68 1
  72   42   43 1
  73   43   69 1
  74   43   70 1
  75   43   71 1
  76   44   45 1
  77   45   72 1
  78   45   73 1
  79   45   74 1

#	End of record

