#	Name: ASD03092524
#	Creating user name:	WinNT
#	Creation time:	15. 06. 2019 20:32

#	Modifying user name:	WinNT
#	Modification time:	15. 06. 2019 20:32

#	Program:	/corina/corina34_cracker 3.40 0067  02.08.2006

@<TRIPOS>MOLECULE
ASD03092524
  36   38    0    0    0
SMALL
NO_CHARGES


@<TRIPOS>ATOM
   1 O1            -0.0143     1.2046     0.0087 O.3     
   2 N2             0.0021    -0.0041     0.0020 N.2     
   3 C3             1.2198    -0.4741    -0.0121 C.2     
   4 C4             2.0841     0.6507    -0.0143 C.2     
   5 C5             1.2305     1.7180    -0.0005 C.2     
   6 C6             1.5992     3.1466     0.0037 C.2     
   7 O7             2.7705     3.4722    -0.0062 O.2     
   8 N8             0.6374     4.0907     0.0184 N.am    
   9 C9             1.0035     5.5092     0.0226 C.3     
  10 N10           -3.6596     8.6508     0.3595 N.pl3   
  11 C11           -3.7860     8.7373     1.7192 C.2     
  12 C12           -2.7885     8.0652     2.3152 C.2     
  13 C13           -1.9551     7.5023     1.2501 C.ar    
  14 C14           -0.7971     6.7224     1.2336 C.ar    
  15 C15           -0.2467     6.3505     0.0396 C.ar    
  16 C16           -0.8297     6.7420    -1.1580 C.ar    
  17 C17           -1.9720     7.5118    -1.1648 C.ar    
  18 C18           -2.5495     7.9019     0.0394 C.ar    
  19 C19           -4.8824     9.4779     2.4407 C.3     
  20 O20            1.5866    -1.7809    -0.0227 O.3     
  21 C21            0.5360    -2.7496    -0.0184 C.3     
  22 H22            3.1640     0.6613    -0.0241 H       
  23 H23           -0.2971     3.8309     0.0263 H       
  24 H24            1.6006     5.7278     0.9079 H       
  25 H25            1.5829     5.7375    -0.8720 H       
  26 H26           -4.2643     9.0535    -0.2831 H       
  27 H27           -2.6303     7.9596     3.3783 H       
  28 H28           -0.3375     6.4149     2.1613 H       
  29 H29           -0.3829     6.4401    -2.0938 H       
  30 H30           -2.4178     7.8115    -2.1017 H       
  31 H31           -5.7214     8.8045     2.6159 H       
  32 H32           -4.5056     9.8449     3.3955 H       
  33 H33           -5.2131    10.3200     1.8328 H       
  34 H34           -0.0713    -2.6230     0.8779 H       
  35 H35           -0.0875    -2.6133    -0.9020 H       
  36 H36            0.9655    -3.7514    -0.0278 H       
@<TRIPOS>BOND
   1    1    2 1
   2    1    5 1
   3    2    3 2
   4    3    4 1
   5    3   20 1
   6    4    5 2
   7    4   22 1
   8    5    6 1
   9    6    7 2
  10    6    8 am
  11    8    9 1
  12    8   23 1
  13    9   15 1
  14    9   24 1
  15    9   25 1
  16   10   11 1
  17   10   18 1
  18   10   26 1
  19   11   12 2
  20   11   19 1
  21   12   13 1
  22   12   27 1
  23   13   14 ar
  24   13   18 ar
  25   14   15 ar
  26   14   28 1
  27   15   16 ar
  28   16   17 ar
  29   16   29 1
  30   17   18 ar
  31   17   30 1
  32   19   31 1
  33   19   32 1
  34   19   33 1
  35   20   21 1
  36   21   34 1
  37   21   35 1
  38   21   36 1

#	End of record

