#	Name: ASD01883780
#	Creating user name:	WinNT
#	Creation time:	15. 06. 2019 19:47

#	Modifying user name:	WinNT
#	Modification time:	15. 06. 2019 19:47

#	Program:	/corina/corina34_cracker 3.40 0067  02.08.2006

@<TRIPOS>MOLECULE
ASD01883780
  54   58    0    0    0
SMALL
NO_CHARGES


@<TRIPOS>ATOM
   1 C1            -0.0168     1.3856     0.0097 C.ar    
   2 C2             0.0021    -0.0041     0.0020 C.ar    
   3 C3             1.2157    -0.6847    -0.0127 C.ar    
   4 C4             2.3947     0.0183    -0.0202 C.ar    
   5 C5             2.3848     1.4172    -0.0131 C.ar    
   6 C6             1.1630     2.0959     0.0022 C.ar    
   7 C7             3.8448    -0.3971    -0.0363 C.3     
   8 N8             4.6265     0.8447    -0.0376 N.am    
   9 C9             3.7801     1.8887    -0.0242 C.2     
  10 O10            4.1183     3.0567    -0.0219 O.2     
  11 C11            6.0224     0.9282    -0.0503 C.ar    
  12 O12           -1.1642    -0.6979     0.0094 O.3     
  13 C13           -2.3727     0.0647     0.0250 C.3     
  14 C14           -3.5557    -0.8688     0.0313 C.ar    
  15 C15           -4.0850    -1.3019     1.2299 C.ar    
  16 C16           -5.1792    -2.1647     1.2342 C.ar    
  17 C17           -5.7329    -2.5854     0.0270 C.ar    
  18 C18           -5.1954    -2.1460    -1.1662 C.ar    
  19 C19           -4.1127    -1.2856    -1.1645 C.ar    
  20 C20           -5.7524    -2.6342     2.5201 C.ar    
  21 C21           -5.1964    -2.2122     3.7275 C.ar    
  22 C22           -5.7265    -2.6472     4.9261 C.ar    
  23 C23           -6.8114    -3.5029     4.9382 C.ar    
  24 C24           -7.3780    -3.9325     3.7339 C.ar    
  25 C25           -6.8478    -3.4906     2.5222 C.ar    
  26 C26           -8.5374    -4.8469     3.7456 C.2     
  27 O27           -9.0815    -5.2595     2.5843 O.3     
  28 O28           -9.0006    -5.2270     4.8023 O.2     
  29 Cl29          -7.4714    -4.0453     6.4494 Cl      
  30 C30            6.6454     2.1695    -0.0501 C.ar    
  31 C31            8.0242     2.2484    -0.0621 C.ar    
  32 C32            8.7843     1.0933    -0.0744 C.ar    
  33 C33            8.1671    -0.1442    -0.0746 C.ar    
  34 C34            6.7888    -0.2301    -0.0573 C.ar    
  35 H35           -0.9605     1.9106     0.0170 H       
  36 H36            1.2299    -1.7646    -0.0180 H       
  37 H37            1.1442     3.1757     0.0075 H       
  38 H38            4.0761    -0.9846     0.8522 H       
  39 H39            4.0589    -0.9756    -0.9350 H       
  40 H40           -2.3972     0.6883     0.9186 H       
  41 H41           -2.4142     0.6979    -0.8612 H       
  42 H42           -3.6517    -0.9730     2.1629 H       
  43 H43           -6.5807    -3.2544     0.0246 H       
  44 H44           -5.6236    -2.4718    -2.1026 H       
  45 H45           -3.6956    -0.9440    -2.1003 H       
  46 H46           -4.3483    -1.5435     3.7250 H       
  47 H47           -5.2911    -2.3175     5.8579 H       
  48 H48           -7.2811    -3.8190     1.5890 H       
  49 H49           -9.8391    -5.8577     2.6425 H       
  50 H50            6.0524     3.0720    -0.0409 H       
  51 H51            8.5093     3.2134    -0.0624 H       
  52 H52            9.8624     1.1578    -0.0841 H       
  53 H53            8.7636    -1.0445    -0.0841 H       
  54 H54            6.3074    -1.1969    -0.0574 H       
@<TRIPOS>BOND
   1    1    2 ar
   2    1    6 ar
   3    1   35 1
   4    2    3 ar
   5    2   12 1
   6    3    4 ar
   7    3   36 1
   8    4    5 ar
   9    4    7 1
  10    5    6 ar
  11    5    9 1
  12    6   37 1
  13    7    8 1
  14    7   38 1
  15    7   39 1
  16    8    9 am
  17    8   11 1
  18    9   10 2
  19   11   30 ar
  20   11   34 ar
  21   12   13 1
  22   13   14 1
  23   13   40 1
  24   13   41 1
  25   14   15 ar
  26   14   19 ar
  27   15   16 ar
  28   15   42 1
  29   16   17 ar
  30   16   20 1
  31   17   18 ar
  32   17   43 1
  33   18   19 ar
  34   18   44 1
  35   19   45 1
  36   20   21 ar
  37   20   25 ar
  38   21   22 ar
  39   21   46 1
  40   22   23 ar
  41   22   47 1
  42   23   24 ar
  43   23   29 1
  44   24   25 ar
  45   24   26 1
  46   25   48 1
  47   26   27 1
  48   26   28 2
  49   27   49 1
  50   30   31 ar
  51   30   50 1
  52   31   32 ar
  53   31   51 1
  54   32   33 ar
  55   32   52 1
  56   33   34 ar
  57   33   53 1
  58   34   54 1

#	End of record

