#	Name: ASD09690012
#	Creating user name:	WinNT
#	Creation time:	15. 06. 2019 21:22

#	Modifying user name:	WinNT
#	Modification time:	15. 06. 2019 21:22

#	Program:	/corina/corina34_cracker 3.40 0067  02.08.2006

@<TRIPOS>MOLECULE
ASD09690012
  47   49    0    0    0
SMALL
NO_CHARGES


@<TRIPOS>ATOM
   1 P1            -0.0198     1.6058     0.0109 P.3     
   2 P2            -1.1218     3.5819     1.9255 P.3     
   3 P3            -1.5143     4.5328     4.7053 P.3     
   4 C4             0.5087    -0.7695    -1.0932 C.3     
   5 O5             0.0021    -0.0041     0.0020 O.3     
   6 C6             0.3807    -2.2607    -0.7756 C.3     
   7 O7            -1.0026    -2.6264    -0.7090 O.3     
   8 C8             1.0298    -3.0937    -1.9017 C.3     
   9 O9             2.3297    -3.5447    -1.5161 O.3     
  10 C10            0.0473    -4.2889    -2.0358 C.3     
  11 C11           -1.3033    -3.5957    -1.7256 C.3     
  12 N12           -4.9981    -7.0927    -2.9733 N.2     
  13 O13            0.0244     4.4913     1.7031 O.2     
  14 O14           -0.4581     5.5567     4.5431 O.2     
  15 S15            1.9691     2.3396    -0.0042 S.3     
  16 C16           -4.2826    -6.3392    -3.7803 C.2     
  17 N17           -4.4875    -6.4408    -5.1302 N.pl3   
  18 O18           -0.7356     2.0960    -1.1881 O.2     
  19 O19           -2.4231     4.1660     1.1789 O.3     
  20 O20           -2.9590     5.2427     4.6754 O.3     
  21 N21           -3.3485    -5.4637    -3.3254 N.pl3   
  22 O22           -0.7733     2.1250     1.3355 O.3     
  23 O23           -1.4159     3.4653     3.5041 O.3     
  24 O24           -1.3170     3.7765     6.1129 O.3     
  25 C25           -3.1126    -5.3326    -1.9810 C.2     
  26 C26           -3.8459    -6.1092    -1.0921 C.2     
  27 C27           -4.8404    -7.0357    -1.6416 C.2     
  28 O28           -5.5112    -7.7402    -0.9036 O.2     
  29 N29           -3.4297    -5.7962     0.1570 N.2     
  30 C30           -2.4996    -4.8878     0.0822 C.2     
  31 N31           -2.2734    -4.5729    -1.2254 N.pl3   
  32 H32           -0.0626    -0.5393    -1.9925 H       
  33 H33            1.5576    -0.5214    -1.2555 H       
  34 H34            0.8671    -2.4792     0.1751 H       
  35 H35            1.0786    -2.5218    -2.8284 H       
  36 H36            2.7789    -4.0727    -2.1903 H       
  37 H37            0.0575    -4.6943    -3.0476 H       
  38 H38            0.2688    -5.0638    -1.3019 H       
  39 H39           -1.6885    -3.1014    -2.6175 H       
  40 H40            2.4906     1.8234     1.1231 H       
  41 H41           -5.1501    -7.0596    -5.4750 H       
  42 H42           -3.9701    -5.8939    -5.7419 H       
  43 H43           -3.2143     3.6197     1.2821 H       
  44 H44           -3.7004     4.6302     4.7766 H       
  45 H45           -2.8439    -4.9274    -3.9568 H       
  46 H46           -1.3643     4.3598     6.8827 H       
  47 H47           -1.9863    -4.4508     0.9260 H       
@<TRIPOS>BOND
   1    1    5 1
   2    1   15 1
   3    1   18 2
   4    1   22 1
   5    2   13 2
   6    2   19 1
   7    2   22 1
   8    2   23 1
   9    3   14 2
  10    3   20 1
  11    3   23 1
  12    3   24 1
  13    4    5 1
  14    4    6 1
  15    4   32 1
  16    4   33 1
  17    6    7 1
  18    6    8 1
  19    6   34 1
  20    7   11 1
  21    8    9 1
  22    8   10 1
  23    8   35 1
  24    9   36 1
  25   10   11 1
  26   10   37 1
  27   10   38 1
  28   11   31 1
  29   11   39 1
  30   12   16 2
  31   12   27 1
  32   15   40 1
  33   16   17 1
  34   16   21 1
  35   17   41 1
  36   17   42 1
  37   19   43 1
  38   20   44 1
  39   21   25 1
  40   21   45 1
  41   24   46 1
  42   25   26 2
  43   25   31 1
  44   26   27 1
  45   26   29 1
  46   27   28 2
  47   29   30 2
  48   30   31 1
  49   30   47 1

#	End of record

