#	Name: ASD01208523
#	Creating user name:	WinNT
#	Creation time:	15. 06. 2019 19:10

#	Modifying user name:	WinNT
#	Modification time:	15. 06. 2019 19:10

#	Program:	/corina/corina34_cracker 3.40 0067  02.08.2006

@<TRIPOS>MOLECULE
ASD01208523
  64   67    0    0    0
SMALL
NO_CHARGES


@<TRIPOS>ATOM
   1 C1             1.6696    -2.8606    -6.0713 C.2     
   2 C2             1.2180    -3.1444    -4.6965 C.ar    
   3 C3             2.0370    -2.8235    -3.6094 C.ar    
   4 C4             1.6105    -3.0902    -2.3261 C.ar    
   5 C5             0.3666    -3.6785    -2.1128 C.ar    
   6 C6            -0.4487    -3.9982    -3.1914 C.ar    
   7 C7            -0.0319    -3.7295    -4.4764 C.ar    
   8 O8             2.7545    -2.3473    -6.2606 O.2     
   9 O9             0.8814    -3.1756    -7.1179 O.3     
  10 F10            2.4002    -2.7810    -1.2744 F       
  11 O11           -0.0502    -3.9408    -0.8480 O.3     
  12 C12           -1.2540    -4.5502    -0.6865 C.ar    
  13 C13           -1.3737    -5.9135    -0.9021 C.ar    
  14 C14           -2.6100    -6.5381    -0.7355 C.ar    
  15 C15           -3.7213    -5.7861    -0.3521 C.ar    
  16 C16           -3.5930    -4.4238    -0.1386 C.ar    
  17 C17           -2.3604    -3.8073    -0.3003 C.ar    
  18 O18           -4.6748    -3.6906     0.2343 O.3     
  19 C19           -4.4536    -2.3086     0.5229 C.3     
  20 C20           -5.5506    -1.8016     1.4613 C.3     
  21 C21           -4.4839    -1.5046    -0.7785 C.3     
  22 O22           -6.8114    -1.8506     0.7904 O.3     
  23 C23           -7.9097    -1.3959     1.5834 C.3     
  24 N24           -1.7389    -8.8357    -1.3409 N.pl3   
  25 C25           -2.7425    -7.9924    -0.9650 C.2     
  26 C26           -3.9016    -8.7272    -0.8349 C.2     
  27 C27           -3.5986   -10.0525    -1.1389 C.2     
  28 C28           -2.2540   -10.1084    -1.4515 C.2     
  29 C29           -1.5081   -11.3087    -1.8334 C.2     
  30 O30           -2.0755   -12.3828    -1.8968 O.2     
  31 O31           -0.1914   -11.2237    -2.1150 O.3     
  32 C32            0.4734   -12.4347    -2.4806 C.3     
  33 C33            1.9265   -12.1464    -2.7568 C.ar    
  34 C34            2.8523   -12.2191    -1.7328 C.ar    
  35 C35            4.1853   -11.9546    -1.9862 C.ar    
  36 C36            4.5925   -11.6178    -3.2636 C.ar    
  37 C37            3.6668   -11.5460    -4.2877 C.ar    
  38 C38            2.3345   -11.8147    -4.0352 C.ar    
  39 H39            3.0020    -2.3679    -3.7750 H       
  40 H40           -1.4128    -4.4544    -3.0217 H       
  41 H41           -0.6686    -3.9748    -5.3135 H       
  42 H42            1.2203    -2.9704    -8.0000 H       
  43 H43           -0.5112    -6.4919    -1.1991 H       
  44 H44           -4.6802    -6.2657    -0.2224 H       
  45 H45           -2.2629    -2.7454    -0.1290 H       
  46 H46           -3.4818    -2.1885     1.0017 H       
  47 H47           -5.5875    -2.4309     2.3505 H       
  48 H48           -5.3335    -0.7739     1.7522 H       
  49 H49           -4.3151    -0.4505    -0.5583 H       
  50 H50           -3.7023    -1.8658    -1.4469 H       
  51 H51           -5.4557    -1.6248    -1.2572 H       
  52 H52           -7.9956    -2.0168     2.4752 H       
  53 H53           -7.7416    -0.3597     1.8769 H       
  54 H54           -8.8298    -1.4645     1.0031 H       
  55 H55           -0.8177    -8.5812    -1.5067 H       
  56 H56           -4.8701    -8.3445    -0.5485 H       
  57 H57           -4.2881   -10.8837    -1.1314 H       
  58 H58            0.3942   -13.1532    -1.6647 H       
  59 H59            0.0086   -12.8485    -3.3755 H       
  60 H60            2.5342   -12.4822    -0.7349 H       
  61 H61            4.9085   -12.0107    -1.1861 H       
  62 H62            5.6338   -11.4104    -3.4613 H       
  63 H63            3.9848   -11.2825    -5.2856 H       
  64 H64            1.6118   -11.7622    -4.8361 H       
@<TRIPOS>BOND
   1    1    2 1
   2    1    8 2
   3    1    9 1
   4    2    3 ar
   5    2    7 ar
   6    3    4 ar
   7    3   39 1
   8    4    5 ar
   9    4   10 1
  10    5    6 ar
  11    5   11 1
  12    6    7 ar
  13    6   40 1
  14    7   41 1
  15    9   42 1
  16   11   12 1
  17   12   13 ar
  18   12   17 ar
  19   13   14 ar
  20   13   43 1
  21   14   15 ar
  22   14   25 1
  23   15   16 ar
  24   15   44 1
  25   16   17 ar
  26   16   18 1
  27   17   45 1
  28   18   19 1
  29   19   20 1
  30   19   21 1
  31   19   46 1
  32   20   22 1
  33   20   47 1
  34   20   48 1
  35   21   49 1
  36   21   50 1
  37   21   51 1
  38   22   23 1
  39   23   52 1
  40   23   53 1
  41   23   54 1
  42   24   25 1
  43   24   28 1
  44   24   55 1
  45   25   26 2
  46   26   27 1
  47   26   56 1
  48   27   28 2
  49   27   57 1
  50   28   29 1
  51   29   30 2
  52   29   31 1
  53   31   32 1
  54   32   33 1
  55   32   58 1
  56   32   59 1
  57   33   34 ar
  58   33   38 ar
  59   34   35 ar
  60   34   60 1
  61   35   36 ar
  62   35   61 1
  63   36   37 ar
  64   36   62 1
  65   37   38 ar
  66   37   63 1
  67   38   64 1

#	End of record

