#	Name: ASD00170871
#	Creating user name:	WinNT
#	Creation time:	15. 06. 2019 18:32

#	Modifying user name:	WinNT
#	Modification time:	15. 06. 2019 18:32

#	Program:	/corina/corina34_cracker 3.40 0067  02.08.2006

@<TRIPOS>MOLECULE
ASD00170871
  52   55    0    0    0
SMALL
NO_CHARGES


@<TRIPOS>ATOM
   1 C1             0.8258     0.9301     0.4359 C.2     
   2 N2             0.2426     0.1421     1.3570 N.am    
   3 C3             0.9795     0.0842     2.4810 C.2     
   4 C4             2.1844     0.9202     2.2977 C.ar    
   5 C5             3.2746     1.2345     3.0931 C.ar    
   6 C6             4.2619     2.0759     2.6044 C.ar    
   7 C7             4.1661     2.6030     1.3301 C.ar    
   8 C8             3.0814     2.2975     0.5230 C.ar    
   9 C9             2.0867     1.4578     0.9979 C.ar    
  10 O10            0.3915     1.1644    -0.6738 O.2     
  11 O11            0.7011    -0.5488     3.4793 O.2     
  12 C12           -0.9617    -0.5240     1.1720 C.2     
  13 C13           -1.0866    -1.7684     0.6060 C.2     
  14 C14           -2.4603    -2.2180     0.5399 C.2     
  15 C15           -3.3207    -1.3405     1.0378 C.2     
  16 S16           -2.4871     0.0881     1.6232 S.3     
  17 C17           -2.8715    -3.5484    -0.0364 C.3     
  18 N18           -2.8749    -4.5624     1.0265 N.3     
  19 C19           -3.9154    -4.2767     2.0233 C.3     
  20 C20           -3.6779    -5.1336     3.2684 C.3     
  21 C21           -3.0378    -5.9109     0.4671 C.3     
  22 C22           -1.7196    -6.3641    -0.1636 C.3     
  23 C23            0.0489    -2.5563     0.1202 C.2     
  24 C24            0.4261    -2.5064    -1.3085 C.ar    
  25 C25            1.4473    -3.3262    -1.7928 C.ar    
  26 C26            1.7943    -3.2756    -3.1264 C.ar    
  27 C27            1.1320    -2.4137    -3.9850 C.ar    
  28 C28            0.1181    -1.5979    -3.5103 C.ar    
  29 C29           -0.2414    -1.6435    -2.1799 C.ar    
  30 O30            0.6820    -3.2521     0.8930 O.2     
  31 Cl31           1.5749    -2.3551    -5.6625 Cl      
  32 Br32          -5.1927    -1.5971     1.1133 Br      
  33 H33            3.3547     0.8259     4.0896 H       
  34 H34            5.1118     2.3217     3.2238 H       
  35 H35            4.9417     3.2577     0.9609 H       
  36 H36            3.0116     2.7125    -0.4716 H       
  37 H37           -3.8710    -3.4662    -0.4633 H       
  38 H38           -2.1668    -3.8405    -0.8150 H       
  39 H39           -3.8779    -3.2219     2.2956 H       
  40 H40           -4.8942    -4.5090     1.6036 H       
  41 H41           -3.7011    -6.1881     2.9935 H       
  42 H42           -2.7053    -4.8910     3.6964 H       
  43 H43           -4.4583    -4.9322     4.0023 H       
  44 H44           -3.3171    -6.6026     1.2618 H       
  45 H45           -3.8185    -5.8969    -0.2934 H       
  46 H46           -1.8106    -7.3998    -0.4911 H       
  47 H47           -1.4902    -5.7309    -1.0206 H       
  48 H48           -0.9188    -6.2845     0.5716 H       
  49 H49            1.9646    -3.9984    -1.1242 H       
  50 H50            2.5842    -3.9090    -3.5021 H       
  51 H51           -0.3945    -0.9276    -4.1844 H       
  52 H52           -1.0348    -1.0100    -1.8117 H       
@<TRIPOS>BOND
   1    1    2 am
   2    1    9 1
   3    1   10 2
   4    2    3 am
   5    2   12 1
   6    3    4 1
   7    3   11 2
   8    4    5 ar
   9    4    9 ar
  10    5    6 ar
  11    5   33 1
  12    6    7 ar
  13    6   34 1
  14    7    8 ar
  15    7   35 1
  16    8    9 ar
  17    8   36 1
  18   12   13 2
  19   12   16 1
  20   13   14 1
  21   13   23 1
  22   14   15 2
  23   14   17 1
  24   15   16 1
  25   15   32 1
  26   17   18 1
  27   17   37 1
  28   17   38 1
  29   18   19 1
  30   18   21 1
  31   19   20 1
  32   19   39 1
  33   19   40 1
  34   20   41 1
  35   20   42 1
  36   20   43 1
  37   21   22 1
  38   21   44 1
  39   21   45 1
  40   22   46 1
  41   22   47 1
  42   22   48 1
  43   23   24 1
  44   23   30 2
  45   24   25 ar
  46   24   29 ar
  47   25   26 ar
  48   25   49 1
  49   26   27 ar
  50   26   50 1
  51   27   28 ar
  52   27   31 1
  53   28   29 ar
  54   28   51 1
  55   29   52 1

#	End of record

