#	Name: ASD01028665
#	Creating user name:	WinNT
#	Creation time:	15. 06. 2019 18:57

#	Modifying user name:	WinNT
#	Modification time:	15. 06. 2019 18:57

#	Program:	/corina/corina34_cracker 3.40 0067  02.08.2006

@<TRIPOS>MOLECULE
ASD01028665
  11   11    0    0    0
SMALL
NO_CHARGES


@<TRIPOS>ATOM
   1 S1            -0.0209     1.6918     0.0113 S.3     
   2 N2             0.0021    -0.0041     0.0020 N.2     
   3 C3             1.2500    -0.3711    -0.0119 C.2     
   4 C4             2.1947     0.6320    -0.0155 C.2     
   5 C5             1.6885     1.8862    -0.0039 C.2     
   6 C6             1.6441    -1.8256    -0.0230 C.3     
   7 Br7            0.2576    -2.8733    -0.9423 Br      
   8 Br8            3.3562    -2.0334    -0.9667 Br      
   9 Br9            2.6558     3.5111    -0.0050 Br      
  10 H10            3.2560     0.4325    -0.0264 H       
  11 H11            1.7486    -2.1815     1.0020 H       
@<TRIPOS>BOND
   1    1    2 1
   2    1    5 1
   3    2    3 2
   4    3    4 1
   5    3    6 1
   6    4    5 2
   7    4   10 1
   8    5    9 1
   9    6    7 1
  10    6    8 1
  11    6   11 1

#	End of record

