#	Name: ASD05313007
#	Creating user name:	WinNT
#	Creation time:	15. 06. 2019 20:58

#	Modifying user name:	WinNT
#	Modification time:	15. 06. 2019 20:58

#	Program:	/corina/corina34_cracker 3.40 0067  02.08.2006

@<TRIPOS>MOLECULE
ASD05313007
  35   37    0    0    0
SMALL
NO_CHARGES


@<TRIPOS>ATOM
   1 C1            -0.0720     0.8160     1.0258 C.2     
   2 C2             0.1142    -0.6198     0.5978 C.3     
   3 N3             0.9298     1.7313     1.0524 N.pl3   
   4 N4             1.4575    -0.7185    -0.0040 N.am    
   5 C5             2.5712    -0.0361     0.6721 C.3     
   6 C6             2.3165     1.4759     0.6650 C.3     
   7 N7            -0.8904     2.6388     1.7080 N.2     
   8 N8            -1.1537     1.4080     1.4288 N.2     
   9 C9             0.3775     2.8791     1.4931 C.2     
  10 C10            1.0878     4.1917     1.7025 C.3     
  11 F11            0.2859     5.0376     2.4762 F       
  12 F12            2.3002     3.9657     2.3629 F       
  13 F13            1.3366     4.7902     0.4627 F       
  14 C14            1.6584    -1.4144    -1.1406 C.2     
  15 O15            2.7501    -1.4032    -1.6752 O.2     
  16 C16            0.5517    -2.1911    -1.7368 C.ar    
  17 C17            0.3206    -2.1401    -3.1140 C.ar    
  18 C18           -0.7158    -2.8688    -3.6638 C.ar    
  19 C19           -1.5235    -3.6467    -2.8543 C.ar    
  20 C20           -1.2999    -3.7009    -1.4898 C.ar    
  21 C21           -0.2643    -2.9836    -0.9278 C.ar    
  22 C22           -0.9674    -2.8157    -5.1487 C.3     
  23 F23           -2.0606    -3.6291    -5.4658 F       
  24 F24           -1.2413    -1.4974    -5.5285 F       
  25 F25            0.1661    -3.2714    -5.8304 F       
  26 Cl26           1.3331    -1.1630    -4.1308 Cl      
  27 H27            0.0452    -1.2781     1.4639 H       
  28 H28           -0.6437    -0.8901    -0.1375 H       
  29 H29            2.6431    -0.3883     1.7011 H       
  30 H30            3.5021    -0.2508     0.1473 H       
  31 H31            2.4937     1.8704    -0.3355 H       
  32 H32            2.9878     1.9617     1.3732 H       
  33 H33           -2.3329    -4.2144    -3.2892 H       
  34 H34           -1.9350    -4.3100    -0.8637 H       
  35 H35           -0.0882    -3.0313     0.1367 H       
@<TRIPOS>BOND
   1    1    2 1
   2    1    3 1
   3    1    8 2
   4    2    4 1
   5    2   27 1
   6    2   28 1
   7    3    6 1
   8    3    9 1
   9    4    5 1
  10    4   14 am
  11    5    6 1
  12    5   29 1
  13    5   30 1
  14    6   31 1
  15    6   32 1
  16    7    8 1
  17    7    9 2
  18    9   10 1
  19   10   11 1
  20   10   12 1
  21   10   13 1
  22   14   15 2
  23   14   16 1
  24   16   17 ar
  25   16   21 ar
  26   17   18 ar
  27   17   26 1
  28   18   19 ar
  29   18   22 1
  30   19   20 ar
  31   19   33 1
  32   20   21 ar
  33   20   34 1
  34   21   35 1
  35   22   23 1
  36   22   24 1
  37   22   25 1

#	End of record

