#	Name: ASD06170309
#	Creating user name:	WinNT
#	Creation time:	15. 06. 2019 21:05

#	Modifying user name:	WinNT
#	Modification time:	15. 06. 2019 21:05

#	Program:	/corina/corina34_cracker 3.40 0067  02.08.2006

@<TRIPOS>MOLECULE
ASD06170309
  75   79    0    0    0
SMALL
NO_CHARGES


@<TRIPOS>ATOM
   1 N1             0.1293     1.3830     0.6696 N.am    
   2 N2             0.1450    -0.0014     0.8638 N.pl3   
   3 C3             1.3700    -0.4893     0.5898 C.2     
   4 C4             2.1848     0.5595     0.2105 C.2     
   5 C5             1.3567     1.7745     0.2687 C.2     
   6 C6             3.5990     0.4782    -0.1743 C.2     
   7 O7             4.1674    -0.5978    -0.1788 O.2     
   8 N8             4.2679     1.5952    -0.5225 N.am    
   9 C9            -1.0009    -0.8025     1.3011 C.3     
  10 C10            1.7824    -1.9358     0.6821 C.3     
  11 C11            5.6523     1.5470    -0.7277 C.ar    
  12 C12            6.2513     0.3669    -1.1474 C.ar    
  13 C13            7.6170     0.3189    -1.3499 C.ar    
  14 C14            8.3907     1.4490    -1.1343 C.ar    
  15 C15            7.7926     2.6313    -0.7145 C.ar    
  16 C16            6.4255     2.6813    -0.5168 C.ar    
  17 O17            9.7352     1.4005    -1.3330 O.3     
  18 N18           12.1637     1.3788     1.9999 N.ar    
  19 C19           12.7373     1.2393     0.7991 C.ar    
  20 C20           11.9390     1.2415    -0.3707 C.ar    
  21 C21           10.5399     1.3921    -0.2423 C.ar    
  22 C22           10.0162     1.5311     1.0317 C.ar    
  23 C23           10.8651     1.5199     2.1303 C.ar    
  24 O24            1.7094     2.9092     0.0064 O.2     
  25 C25           -0.9753     2.2209     0.8541 C.ar    
  26 C26           -1.7830     2.0712     1.9740 C.ar    
  27 C27           12.5428     1.0958    -1.6286 C.ar    
  28 C28           13.8928     0.9531    -1.7193 C.ar    
  29 C29           14.6906     0.9491    -0.5709 C.ar    
  30 C30           14.1284     1.0898     0.6773 C.ar    
  31 C31           16.5599     0.6618    -2.0105 C.3     
  32 O32           16.0360     0.8041    -0.6886 O.3     
  33 C33           -1.6895    -1.4164     0.0805 C.3     
  34 C34           -2.8863    -2.2531     0.5372 C.3     
  35 C35           -2.8727     2.9005     2.1534 C.ar    
  36 C36           -3.1600     3.8791     1.2195 C.ar    
  37 C37           -2.3581     4.0304     0.1031 C.ar    
  38 C38           -1.2635     3.2081    -0.0794 C.ar    
  39 O39           -2.1403    -0.3739    -0.7866 O.3     
  40 N40           -3.4752    -2.9384    -0.6211 N.3     
  41 C41           -2.5450    -3.9318    -1.1740 C.3     
  42 C42           -4.7595    -3.5585    -0.2689 C.3     
  43 F43            8.5466     3.7323    -0.5039 F       
  44 H44            3.7904     2.4325    -0.6311 H       
  45 H45           -0.6571    -1.5978     1.9625 H       
  46 H46           -1.7068    -0.1660     1.8346 H       
  47 H47            1.6064    -2.4255    -0.2757 H       
  48 H48            2.8416    -1.9964     0.9319 H       
  49 H49            1.1974    -2.4317     1.4566 H       
  50 H50            5.6494    -0.5139    -1.3153 H       
  51 H51            8.0822    -0.5995    -1.6761 H       
  52 H52            5.9595     3.6006    -0.1943 H       
  53 H53            8.9515     1.6482     1.1704 H       
  54 H54           10.4455     1.6295     3.1194 H       
  55 H55           -1.5594     1.3070     2.7035 H       
  56 H56           11.9374     1.0967    -2.5230 H       
  57 H57           14.3537     0.8413    -2.6896 H       
  58 H58           14.7534     1.0858     1.5581 H       
  59 H59           17.6436     0.5547    -1.9622 H       
  60 H60           16.1279    -0.2223    -2.4794 H       
  61 H61           16.3079     1.5446    -2.5982 H       
  62 H62           -0.9836    -2.0530    -0.4530 H       
  63 H63           -2.5557    -2.9920     1.2671 H       
  64 H64           -3.6326    -1.6017     0.9920 H       
  65 H65           -3.5014     2.7845     3.0239 H       
  66 H66           -4.0127     4.5263     1.3621 H       
  67 H67           -2.5853     4.7953    -0.6246 H       
  68 H68           -0.6376     3.3267    -0.9514 H       
  69 H69           -2.7726     0.2324    -0.3771 H       
  70 H70           -2.3103    -4.6739    -0.4109 H       
  71 H71           -3.0060    -4.4242    -2.0302 H       
  72 H72           -1.6284    -3.4343    -1.4911 H       
  73 H73           -5.4529    -2.7897     0.0720 H       
  74 H74           -5.1735    -4.0589    -1.1443 H       
  75 H75           -4.6050    -4.2872     0.5269 H       
@<TRIPOS>BOND
   1    1    2 1
   2    1    5 am
   3    1   25 1
   4    2    3 1
   5    2    9 1
   6    3    4 2
   7    3   10 1
   8    4    5 1
   9    4    6 1
  10    5   24 2
  11    6    7 2
  12    6    8 am
  13    8   11 1
  14    8   44 1
  15    9   33 1
  16    9   45 1
  17    9   46 1
  18   10   47 1
  19   10   48 1
  20   10   49 1
  21   11   12 ar
  22   11   16 ar
  23   12   13 ar
  24   12   50 1
  25   13   14 ar
  26   13   51 1
  27   14   15 ar
  28   14   17 1
  29   15   16 ar
  30   15   43 1
  31   16   52 1
  32   17   21 1
  33   18   19 ar
  34   18   23 ar
  35   19   20 ar
  36   19   30 ar
  37   20   21 ar
  38   20   27 ar
  39   21   22 ar
  40   22   23 ar
  41   22   53 1
  42   23   54 1
  43   25   26 ar
  44   25   38 ar
  45   26   35 ar
  46   26   55 1
  47   27   28 ar
  48   27   56 1
  49   28   29 ar
  50   28   57 1
  51   29   30 ar
  52   29   32 1
  53   30   58 1
  54   31   32 1
  55   31   59 1
  56   31   60 1
  57   31   61 1
  58   33   34 1
  59   33   39 1
  60   33   62 1
  61   34   40 1
  62   34   63 1
  63   34   64 1
  64   35   36 ar
  65   35   65 1
  66   36   37 ar
  67   36   66 1
  68   37   38 ar
  69   37   67 1
  70   38   68 1
  71   39   69 1
  72   40   41 1
  73   40   42 1
  74   41   70 1
  75   41   71 1
  76   41   72 1
  77   42   73 1
  78   42   74 1
  79   42   75 1

#	End of record

