#	Name: ASD01914283
#	Creating user name:	WinNT
#	Creation time:	15. 06. 2019 20:03

#	Modifying user name:	WinNT
#	Modification time:	15. 06. 2019 20:03

#	Program:	/corina/corina34_cracker 3.40 0067  02.08.2006

@<TRIPOS>MOLECULE
ASD01914283
  37   39    0    0    0
SMALL
NO_CHARGES


@<TRIPOS>ATOM
   1 N1            -0.0154     1.2833     0.0091 N.2     
   2 N2             0.0021    -0.0041     0.0020 N.pl3   
   3 N3             1.1958    -0.4863    -0.0120 N.2     
   4 C4             2.0615     0.5146    -0.0149 C.ar    
   5 C5             1.2309     1.7280    -0.0004 C.ar    
   6 C6             1.8655     2.9826    -0.0004 C.ar    
   7 C7             3.2225     3.0458    -0.0137 C.ar    
   8 C8             4.0106     1.8944    -0.0278 C.ar    
   9 C9             3.4606     0.6522    -0.0282 C.ar    
  10 C10           -1.2068    -0.8316     0.0099 C.3     
  11 C11           -1.6423    -1.1119    -1.4298 C.3     
  12 C12           -2.9049    -1.9761    -1.4216 C.3     
  13 C13           -3.3404    -2.2564    -2.8612 C.3     
  14 C14           -4.5551    -3.0879    -2.8533 C.1     
  15 C15           -5.5238    -3.7510    -2.8470 C.1     
  16 C16           -6.7055    -4.5598    -2.8393 C.ar    
  17 C17           -7.2892    -4.9444    -4.0470 C.ar    
  18 C18           -8.4305    -5.7259    -4.0228 C.ar    
  19 C19           -8.9529    -6.0985    -2.7919 C.ar    
  20 C20           -8.3236    -5.6821    -1.6333 C.ar    
  21 N21           -7.2344    -4.9427    -1.6829 N.ar    
  22 H22            1.2787     3.8892     0.0097 H       
  23 H23            3.7040     4.0126    -0.0136 H       
  24 H24            5.0860     1.9933    -0.0384 H       
  25 H25            4.0933    -0.2230    -0.0388 H       
  26 H26           -0.9988    -1.7739     0.5166 H       
  27 H27           -2.0040    -0.3051     0.5347 H       
  28 H28           -1.8504    -0.1695    -1.9365 H       
  29 H29           -0.8451    -1.6383    -1.9546 H       
  30 H30           -2.6968    -2.9185    -0.9149 H       
  31 H31           -3.7021    -1.4497    -0.8968 H       
  32 H32           -3.5485    -1.3140    -3.3679 H       
  33 H33           -2.5432    -2.7828    -3.3860 H       
  34 H34           -6.8563    -4.6361    -4.9872 H       
  35 H35           -8.9048    -6.0387    -4.9413 H       
  36 H36           -9.8430    -6.7080    -2.7396 H       
  37 H37           -8.7283    -5.9705    -0.6744 H       
@<TRIPOS>BOND
   1    1    2 1
   2    1    5 2
   3    2    3 1
   4    2   10 1
   5    3    4 2
   6    4    5 ar
   7    4    9 ar
   8    5    6 ar
   9    6    7 ar
  10    6   22 1
  11    7    8 ar
  12    7   23 1
  13    8    9 ar
  14    8   24 1
  15    9   25 1
  16   10   11 1
  17   10   26 1
  18   10   27 1
  19   11   12 1
  20   11   28 1
  21   11   29 1
  22   12   13 1
  23   12   30 1
  24   12   31 1
  25   13   14 1
  26   13   32 1
  27   13   33 1
  28   14   15 3
  29   15   16 1
  30   16   17 ar
  31   16   21 ar
  32   17   18 ar
  33   17   34 1
  34   18   19 ar
  35   18   35 1
  36   19   20 ar
  37   19   36 1
  38   20   21 ar
  39   20   37 1

#	End of record

