#	Name: ASD03930077
#	Creating user name:	WinNT
#	Creation time:	15. 06. 2019 20:47

#	Modifying user name:	WinNT
#	Modification time:	15. 06. 2019 20:47

#	Program:	/corina/corina34_cracker 3.40 0067  02.08.2006

@<TRIPOS>MOLECULE
ASD03930077
  31   33    0    0    0
SMALL
NO_CHARGES


@<TRIPOS>ATOM
   1 C1             2.2473     1.4199    -0.6000 C.ar    
   2 C2             2.3120     0.0642    -0.6008 C.ar    
   3 C3             1.3036    -0.6904     0.0265 C.ar    
   4 C4             0.2217    -0.0267     0.6582 C.ar    
   5 C5             0.1722     1.3768     0.6491 C.ar    
   6 C6             1.1796     2.0902     0.0230 C.ar    
   7 N7             1.3517    -2.0275     0.0345 N.ar    
   8 C8             0.3986    -2.7105     0.6261 C.ar    
   9 N9            -0.7375    -0.7450     1.2540 N.ar    
  10 C10            1.1332     3.5681     0.0100 C.2     
  11 O11            2.1638     4.2091     0.0773 O.2     
  12 N12           -0.0517     4.2043    -0.0767 N.am    
  13 C13           -1.3041     3.4644    -0.2891 C.3     
  14 C14           -2.1409     4.1916    -1.3042 C.2     
  15 C15           -0.1461     5.6698     0.0437 C.3     
  16 C16           -0.7109     6.2141    -1.2711 C.3     
  17 C17           -1.8798     5.3877    -1.7248 C.2     
  18 C18           -0.6676    -2.0559     1.2487 C.ar    
  19 H19            3.0280     1.9913    -1.0800 H       
  20 H20            3.1383    -0.4360    -1.0839 H       
  21 H21           -0.6462     1.8955     1.1261 H       
  22 H22            0.4391    -3.7898     0.6311 H       
  23 H23           -1.0778     2.4625    -0.6539 H       
  24 H24           -1.8506     3.3957     0.6516 H       
  25 H25           -3.0080     3.6879    -1.7053 H       
  26 H26           -0.8115     5.9301     0.8668 H       
  27 H27            0.8438     6.0897     0.2218 H       
  28 H28           -1.0274     7.2472    -1.1273 H       
  29 H29            0.0635     6.1806    -2.0374 H       
  30 H30           -2.5556     5.8264    -2.4441 H       
  31 H31           -1.4424    -2.6344     1.7298 H       
@<TRIPOS>BOND
   1    1    2 ar
   2    1    6 ar
   3    1   19 1
   4    2    3 ar
   5    2   20 1
   6    3    4 ar
   7    3    7 ar
   8    4    5 ar
   9    4    9 ar
  10    5    6 ar
  11    5   21 1
  12    6   10 1
  13    7    8 ar
  14    8   18 ar
  15    8   22 1
  16    9   18 ar
  17   10   11 2
  18   10   12 am
  19   12   13 1
  20   12   15 1
  21   13   14 1
  22   13   23 1
  23   13   24 1
  24   14   17 2
  25   14   25 1
  26   15   16 1
  27   15   26 1
  28   15   27 1
  29   16   17 1
  30   16   28 1
  31   16   29 1
  32   17   30 1
  33   18   31 1

#	End of record

