#	Name: ASD04430070
#	Creating user name:	WinNT
#	Creation time:	15. 06. 2019 20:49

#	Modifying user name:	WinNT
#	Modification time:	15. 06. 2019 20:49

#	Program:	/corina/corina34_cracker 3.40 0067  02.08.2006

@<TRIPOS>MOLECULE
ASD04430070
  44   46    0    0    0
SMALL
NO_CHARGES


@<TRIPOS>ATOM
   1 C1             0.2997     0.4003    -0.3917 C.2     
   2 N2             0.1477    -0.8836    -0.2472 N.2     
   3 C3             1.1802    -1.7348    -0.3455 C.2     
   4 C4             2.4623    -1.2283    -0.6118 C.2     
   5 C5             2.6123     0.2179    -0.7713 C.2     
   6 N6             1.4994     0.9790    -0.6505 N.am    
   7 N7             2.6573    -3.4135    -0.4429 N.2     
   8 N8             1.3104    -3.0858    -0.2427 N.pl3   
   9 C9             3.3432    -2.3250    -0.6610 C.2     
  10 O10            3.6985     0.7189    -1.0031 O.2     
  11 C11           -0.6263    -3.7551     1.0482 C.ar    
  12 C12            0.2752    -3.9926     0.0188 C.ar    
  13 C13            0.1345    -5.1450    -0.7499 C.ar    
  14 C14           -0.9053    -6.0112    -0.4531 C.ar    
  15 C15           -1.7622    -5.7058     0.5877 C.ar    
  16 N16           -1.6017    -4.6056     1.2970 N.ar    
  17 C17            1.0894    -5.4426    -1.8771 C.3     
  18 C18           -0.9141     1.2855    -0.2720 C.3     
  19 C19           -2.1467     0.4250     0.0128 C.3     
  20 C20           -1.9970    -0.2436     1.3808 C.3     
  21 C21           -3.1579    -1.2149     1.6036 C.3     
  22 C22           -3.3965     1.3077     0.0106 C.3     
  23 C23           -3.6131     1.8816    -1.3910 C.3     
  24 H24            1.5597     1.9420    -0.7500 H       
  25 H25            4.4058    -2.2743    -0.8475 H       
  26 H26           -0.5242    -2.8667     1.6538 H       
  27 H27           -1.0449    -6.9144    -1.0285 H       
  28 H28           -2.5746    -6.3774     0.8231 H       
  29 H29            1.9752    -5.9396    -1.4813 H       
  30 H30            0.6023    -6.0927    -2.6039 H       
  31 H31            1.3815    -4.5108    -2.3614 H       
  32 H32           -0.7687     1.9933     0.5440 H       
  33 H33           -1.0594     1.8309    -1.2045 H       
  34 H34           -2.2413    -0.3405    -0.7574 H       
  35 H35           -1.0543    -0.7896     1.4170 H       
  36 H36           -2.0058     0.5181     2.1604 H       
  37 H37           -4.1026    -0.6785     1.5148 H       
  38 H38           -3.1179    -2.0066     0.8554 H       
  39 H39           -3.0802    -1.6517     2.5992 H       
  40 H40           -4.2629     0.7115     0.2970 H       
  41 H41           -3.2661     2.1238     0.7212 H       
  42 H42           -3.6379     1.0686    -2.1167 H       
  43 H43           -4.5585     2.4232    -1.4198 H       
  44 H44           -2.7971     2.5618    -1.6352 H       
@<TRIPOS>BOND
   1    1    2 2
   2    1    6 1
   3    1   18 1
   4    2    3 1
   5    3    4 2
   6    3    8 1
   7    4    5 1
   8    4    9 1
   9    5    6 am
  10    5   10 2
  11    6   24 1
  12    7    8 1
  13    7    9 2
  14    8   12 1
  15    9   25 1
  16   11   12 ar
  17   11   16 ar
  18   11   26 1
  19   12   13 ar
  20   13   14 ar
  21   13   17 1
  22   14   15 ar
  23   14   27 1
  24   15   16 ar
  25   15   28 1
  26   17   29 1
  27   17   30 1
  28   17   31 1
  29   18   19 1
  30   18   32 1
  31   18   33 1
  32   19   20 1
  33   19   22 1
  34   19   34 1
  35   20   21 1
  36   20   35 1
  37   20   36 1
  38   21   37 1
  39   21   38 1
  40   21   39 1
  41   22   23 1
  42   22   40 1
  43   22   41 1
  44   23   42 1
  45   23   43 1
  46   23   44 1

#	End of record

