#	Name: ASD03730970
#	Creating user name:	WinNT
#	Creation time:	15. 06. 2019 20:45

#	Modifying user name:	WinNT
#	Modification time:	15. 06. 2019 20:45

#	Program:	/corina/corina34_cracker 3.40 0067  02.08.2006

@<TRIPOS>MOLECULE
ASD03730970
  54   60    0    0    0
SMALL
NO_CHARGES


@<TRIPOS>ATOM
   1 O1            -0.0174     1.4356     0.0099 O.3     
   2 C2             0.0021    -0.0041     0.0020 C.3     
   3 O3             1.2461    -0.3262    -0.6470 O.3     
   4 C4             2.0710     0.7345    -0.4034 C.ar    
   5 C5             1.2935     1.8178    -0.0005 C.ar    
   6 C6             3.4452     0.8649    -0.4936 C.ar    
   7 C7             4.0602     2.0747    -0.1856 C.ar    
   8 C8             3.2723     3.1522     0.2076 C.ar    
   9 C9             1.9024     3.0234     0.3045 C.ar    
  10 O10            5.3831     2.4065    -0.1922 O.3     
  11 C11            4.2098     4.3069     0.4393 C.3     
  12 C12            5.5129     3.8410    -0.2242 C.3     
  13 N13            3.6127     6.4762     0.8417 N.am    
  14 C14            3.6993     5.5834    -0.1645 C.2     
  15 C15            4.3992     4.6044     1.8972 C.ar    
  16 C16            4.8378     3.8614     2.9705 C.ar    
  17 C17            4.9039     4.4334     4.2285 C.ar    
  18 C18            4.5284     5.7527     4.4051 C.ar    
  19 C19            4.0877     6.5009     3.3334 C.ar    
  20 C20            4.0181     5.9334     2.0634 C.ar    
  21 O21            3.4201     5.7739    -1.3293 O.2     
  22 C22            3.1483     7.8554     0.6736 C.3     
  23 N23           -0.3183     8.1398     1.7299 N.pl3   
  24 N24           -0.4429     7.8153     0.4906 N.2     
  25 N25            0.7158     7.6711    -0.0491 N.2     
  26 C26            1.6555     7.9105     0.8725 C.2     
  27 C27            1.0017     8.2124     2.0185 C.2     
  28 C28           -1.4167     8.3933     2.6655 C.3     
  29 C29           -2.3249     9.4538     2.0985 C.ar    
  30 C30           -3.3964     9.0934     1.2997 C.ar    
  31 C31           -4.2302    10.0688     0.7792 C.ar    
  32 C32           -3.9929    11.4017     1.0570 C.ar    
  33 C33           -2.9234    11.7627     1.8544 C.ar    
  34 C34           -2.0916    10.7887     2.3807 C.ar    
  35 F35           -1.0497    11.1415     3.1651 F       
  36 F36           -3.6283     7.7906     1.0277 F       
  37 H37           -0.0105    -0.3928     1.0203 H       
  38 H38           -0.8401    -0.3953    -0.5687 H       
  39 H39            4.0448     0.0222    -0.8046 H       
  40 H40            1.3032     3.8652     0.6186 H       
  41 H41            6.3787     4.1643     0.3536 H       
  42 H42            5.5749     4.2013    -1.2510 H       
  43 H43            5.1300     2.8312     2.8302 H       
  44 H44            5.2475     3.8510     5.0706 H       
  45 H45            4.5803     6.1993     5.3870 H       
  46 H46            3.7954     7.5303     3.4796 H       
  47 H47            3.6366     8.4954     1.4085 H       
  48 H48            3.3941     8.2017    -0.3303 H       
  49 H49            1.4446     8.4618     2.9715 H       
  50 H50           -1.9826     7.4745     2.8190 H       
  51 H51           -1.0112     8.7337     3.6183 H       
  52 H52           -5.0660     9.7878     0.1557 H       
  53 H53           -4.6436    12.1617     0.6503 H       
  54 H54           -2.7387    12.8047     2.0705 H       
@<TRIPOS>BOND
   1    1    2 1
   2    1    5 1
   3    2    3 1
   4    2   37 1
   5    2   38 1
   6    3    4 1
   7    4    5 ar
   8    4    6 ar
   9    5    9 ar
  10    6    7 ar
  11    6   39 1
  12    7    8 ar
  13    7   10 1
  14    8    9 ar
  15    8   11 1
  16    9   40 1
  17   10   12 1
  18   11   12 1
  19   11   14 1
  20   11   15 1
  21   12   41 1
  22   12   42 1
  23   13   14 am
  24   13   20 1
  25   13   22 1
  26   14   21 2
  27   15   16 ar
  28   15   20 ar
  29   16   17 ar
  30   16   43 1
  31   17   18 ar
  32   17   44 1
  33   18   19 ar
  34   18   45 1
  35   19   20 ar
  36   19   46 1
  37   22   26 1
  38   22   47 1
  39   22   48 1
  40   23   24 1
  41   23   27 1
  42   23   28 1
  43   24   25 2
  44   25   26 1
  45   26   27 2
  46   27   49 1
  47   28   29 1
  48   28   50 1
  49   28   51 1
  50   29   30 ar
  51   29   34 ar
  52   30   31 ar
  53   30   36 1
  54   31   32 ar
  55   31   52 1
  56   32   33 ar
  57   32   53 1
  58   33   34 ar
  59   33   54 1
  60   34   35 1

#	End of record

