#	Name: ASD03090923
#	Creating user name:	WinNT
#	Creation time:	15. 06. 2019 20:29

#	Modifying user name:	WinNT
#	Modification time:	15. 06. 2019 20:29

#	Program:	/corina/corina34_cracker 3.40 0067  02.08.2006

@<TRIPOS>MOLECULE
ASD03090923
  47   49    0    0    0
SMALL
NO_CHARGES


@<TRIPOS>ATOM
   1 N1            -0.0175     1.3432    -0.0858 N.am    
   2 C2             0.0012    -0.0044    -0.0677 C.2     
   3 O3             1.0649    -0.5993    -0.0774 O.2     
   4 N4            -1.1464    -0.6880    -0.0393 N.2     
   5 C5             1.2409     2.0928    -0.1170 C.3     
   6 C6             1.6392     2.3249    -1.5149 C.1     
   7 C7             1.9568     2.5101    -2.6298 C.1     
   8 C8            -1.2961     2.0582    -0.0803 C.3     
   9 C9            -1.7241     2.3267     1.3639 C.3     
  10 C10           -0.7248     3.2793     2.0233 C.3     
  11 C11           -3.1163     2.9612     1.3736 C.3     
  12 S12            0.2595    -3.0387    -0.0301 S.3     
  13 C13           -1.1280    -2.0187    -0.0215 C.2     
  14 N14           -2.1987    -2.8518     0.0077 N.pl3   
  15 C15           -1.9391    -4.1884     0.0221 C.2     
  16 C16           -0.6634    -4.5510     0.0061 C.2     
  17 C17           -0.1141    -5.9543     0.0170 C.3     
  18 O18           -7.4524    -1.1574     0.0453 O.3     
  19 C19           -8.0539    -2.4331     0.3354 C.3     
  20 O20           -7.0845    -3.3848    -0.1417 O.3     
  21 C21           -5.8790    -2.7494    -0.0608 C.ar    
  22 C22           -6.1048    -1.3793     0.0543 C.ar    
  23 C23           -4.5832    -3.2363    -0.0763 C.ar    
  24 C24           -3.5113    -2.3592     0.0230 C.ar    
  25 C25           -3.7393    -0.9949     0.1377 C.ar    
  26 C26           -5.0326    -0.5079     0.1538 C.ar    
  27 F27           -8.2518    -2.5814     1.7124 F       
  28 F28           -9.2627    -2.5748    -0.3544 F       
  29 H29            1.1060     3.0502     0.3862 H       
  30 H30            2.0170     1.5211     0.3918 H       
  31 H31            2.2410     2.6757    -3.6270 H       
  32 H32           -1.1850     3.0053    -0.6084 H       
  33 H33           -2.0536     1.4519    -0.5770 H       
  34 H34           -1.7491     1.3872     1.9160 H       
  35 H35           -0.6997     4.2188     1.4711 H       
  36 H36           -1.0297     3.4706     3.0521 H       
  37 H37            0.2670     2.8272     2.0163 H       
  38 H38           -3.8282     2.2826     0.9039 H       
  39 H39           -3.4212     3.1525     2.4025 H       
  40 H40           -3.0912     3.9007     0.8215 H       
  41 H41           -2.7344    -4.9188     0.0453 H       
  42 H42            0.9752    -5.9182    -0.0006 H       
  43 H43           -0.4460    -6.4674     0.9196 H       
  44 H44           -0.4740    -6.4922    -0.8600 H       
  45 H45           -4.4060    -4.2979    -0.1651 H       
  46 H46           -2.9052    -0.3132     0.2149 H       
  47 H47           -5.2076     0.5542     0.2426 H       
@<TRIPOS>BOND
   1    1    2 am
   2    1    5 1
   3    1    8 1
   4    2    3 2
   5    2    4 1
   6    4   13 2
   7    5    6 1
   8    5   29 1
   9    5   30 1
  10    6    7 3
  11    7   31 1
  12    8    9 1
  13    8   32 1
  14    8   33 1
  15    9   10 1
  16    9   11 1
  17    9   34 1
  18   10   35 1
  19   10   36 1
  20   10   37 1
  21   11   38 1
  22   11   39 1
  23   11   40 1
  24   12   13 1
  25   12   16 1
  26   13   14 1
  27   14   15 1
  28   14   24 1
  29   15   16 2
  30   15   41 1
  31   16   17 1
  32   17   42 1
  33   17   43 1
  34   17   44 1
  35   18   19 1
  36   18   22 1
  37   19   20 1
  38   19   27 1
  39   19   28 1
  40   20   21 1
  41   21   22 ar
  42   21   23 ar
  43   22   26 ar
  44   23   24 ar
  45   23   45 1
  46   24   25 ar
  47   25   26 ar
  48   25   46 1
  49   26   47 1

#	End of record

