#	Name: ASD03912033
#	Creating user name:	WinNT
#	Creation time:	15. 06. 2019 20:47

#	Modifying user name:	WinNT
#	Modification time:	15. 06. 2019 20:47

#	Program:	/corina/corina34_cracker 3.40 0067  02.08.2006

@<TRIPOS>MOLECULE
ASD03912033
  68   70    0    0    0
SMALL
NO_CHARGES


@<TRIPOS>ATOM
   1 C1             0.5368     1.3744     0.1988 C.ar    
   2 C2             0.7259     0.1871     0.8821 C.ar    
   3 C3            -0.3349    -0.4166     1.5320 C.ar    
   4 C4            -1.5873     0.1648     1.5003 C.ar    
   5 C5            -1.7805     1.3571     0.8150 C.ar    
   6 C6            -0.7118     1.9640     0.1685 C.ar    
   7 C7             1.6956     2.0289    -0.5081 C.3     
   8 C8            -0.1243    -1.7104     2.2754 C.3     
   9 N9            -3.0481     1.9487     0.7809 N.am    
  10 C10           -3.1651     3.2913     0.7700 C.2     
  11 C11           -4.5217     3.9282     0.6115 C.3     
  12 O12           -2.1786     3.9870     0.8876 O.2     
  13 C13           -4.3779     5.4282     0.6316 C.ar    
  14 C14           -4.1719     6.1176    -0.5491 C.ar    
  15 C15           -4.0397     7.4926    -0.5334 C.ar    
  16 C16           -4.1139     8.1817     0.6684 C.ar    
  17 C17           -4.3207     7.4876     1.8517 C.ar    
  18 C18           -4.4579     6.1132     1.8299 C.ar    
  19 O19           -3.9838     9.5343     0.6866 O.3     
  20 C20           -4.1833    10.1885     1.9413 C.3     
  21 C21           -5.5533     9.8653     2.4795 C.2     
  22 C22           -3.1045     9.7444     2.9447 C.3     
  23 C23           -2.3304    11.0154     3.3508 C.3     
  24 C24           -3.3253    12.1702     3.0759 C.3     
  25 C25           -4.0283    11.7140     1.7724 C.3     
  26 N26           -6.5897     9.7065     1.6327 N.am    
  27 O27           -5.7232     9.7480     3.6746 O.2     
  28 C28           -7.8962     9.2857     2.1448 C.3     
  29 C29           -8.6602    10.4928     2.6246 C.2     
  30 O30           -9.8917    10.3471     3.1384 O.3     
  31 O31           -8.1643    11.5919     2.5467 O.2     
  32 C32           -8.6828     8.5945     1.0293 C.3     
  33 C33           -7.9071     7.3690     0.5422 C.3     
  34 C34          -10.0472     8.1551     1.5641 C.3     
  35 H35            1.7041    -0.2698     0.9078 H       
  36 H36           -2.4155    -0.3075     2.0075 H       
  37 H37           -0.8588     2.8915    -0.3650 H       
  38 H38            1.7518     1.6598    -1.5322 H       
  39 H39            1.5516     3.1092    -0.5186 H       
  40 H40            2.6217     1.7908     0.0151 H       
  41 H41            0.1498    -1.4956     3.3083 H       
  42 H42           -1.0449    -2.2937     2.2576 H       
  43 H43            0.6747    -2.2778     1.7981 H       
  44 H44           -3.8427     1.3924     0.7652 H       
  45 H45           -4.9602     3.6179    -0.3370 H       
  46 H46           -5.1685     3.6142     1.4308 H       
  47 H47           -4.1138     5.5806    -1.4844 H       
  48 H48           -3.8785     8.0306    -1.4558 H       
  49 H49           -4.3789     8.0218     2.7885 H       
  50 H50           -4.6189     5.5724     2.7508 H       
  51 H51           -3.5720     9.2958     3.8213 H       
  52 H52           -2.4288     9.0299     2.4746 H       
  53 H53           -2.0685    10.9810     4.4083 H       
  54 H54           -1.4356    11.1290     2.7388 H       
  55 H55           -4.0444    12.2625     3.8899 H       
  56 H56           -2.7939    13.1091     2.9202 H       
  57 H57           -3.4079    11.9402     0.9052 H       
  58 H58           -5.0045    12.1898     1.6789 H       
  59 H59           -6.4706     9.8708     0.6842 H       
  60 H60           -7.7553     8.5919     2.9736 H       
  61 H61          -10.3425    11.1504     3.4328 H       
  62 H62           -8.8237     9.2883     0.2005 H       
  63 H63           -8.4675     6.8766    -0.2526 H       
  64 H64           -6.9351     7.6821     0.1611 H       
  65 H65           -7.7662     6.6752     1.3710 H       
  66 H66          -10.5998     9.0282     1.9111 H       
  67 H67          -10.6076     7.6627     0.7694 H       
  68 H68           -9.9063     7.4613     2.3929 H       
@<TRIPOS>BOND
   1    1    2 ar
   2    1    7 1
   3    1    6 ar
   4    2    3 ar
   5    2   35 1
   6    3    4 ar
   7    3    8 1
   8    4    5 ar
   9    4   36 1
  10    5    6 ar
  11    5    9 1
  12    6   37 1
  13    7   38 1
  14    7   39 1
  15    7   40 1
  16    8   41 1
  17    8   42 1
  18    8   43 1
  19    9   10 am
  20    9   44 1
  21   10   11 1
  22   10   12 2
  23   11   13 1
  24   11   45 1
  25   11   46 1
  26   13   14 ar
  27   13   18 ar
  28   14   15 ar
  29   14   47 1
  30   15   16 ar
  31   15   48 1
  32   16   17 ar
  33   16   19 1
  34   17   18 ar
  35   17   49 1
  36   18   50 1
  37   19   20 1
  38   20   21 1
  39   20   22 1
  40   20   25 1
  41   21   26 am
  42   21   27 2
  43   22   23 1
  44   22   51 1
  45   22   52 1
  46   23   24 1
  47   23   53 1
  48   23   54 1
  49   24   25 1
  50   24   55 1
  51   24   56 1
  52   25   57 1
  53   25   58 1
  54   26   28 1
  55   26   59 1
  56   28   29 1
  57   28   32 1
  58   28   60 1
  59   29   30 1
  60   29   31 2
  61   30   61 1
  62   32   33 1
  63   32   34 1
  64   32   62 1
  65   33   63 1
  66   33   64 1
  67   33   65 1
  68   34   66 1
  69   34   67 1
  70   34   68 1

#	End of record

