#	Name: ASD01815599
#	Creating user name:	WinNT
#	Creation time:	15. 06. 2019 19:33

#	Modifying user name:	WinNT
#	Modification time:	15. 06. 2019 19:33

#	Program:	/corina/corina34_cracker 3.40 0067  02.08.2006

@<TRIPOS>MOLECULE
ASD01815599
  37   39    0    0    0
SMALL
NO_CHARGES


@<TRIPOS>ATOM
   1 C1             1.7253     2.4308     0.9734 C.ar    
   2 C2             1.2367     1.1349     1.0370 C.ar    
   3 C3             2.0284     0.0639     0.6756 C.ar    
   4 C4             3.3347     0.2787     0.2402 C.ar    
   5 C5             3.8285     1.5928     0.1757 C.ar    
   6 C6             3.0161     2.6678     0.5452 C.ar    
   7 N7             4.1356    -0.7836    -0.1232 N.pl3   
   8 C8             5.3963    -0.6297    -0.5473 C.2     
   9 C9             5.9903     0.6118    -0.6524 C.2     
  10 C10            5.2115     1.8063    -0.2864 C.2     
  11 O11            5.6905     2.9243    -0.3616 O.2     
  12 C12            7.3771     0.7391    -1.1218 C.2     
  13 O13            8.0110    -0.2540    -1.4213 O.2     
  14 O14            7.9462     1.9572    -1.2202 O.3     
  15 C15            3.5837    -2.1382    -0.0413 C.3     
  16 C16            3.7132    -2.6489     1.3706 C.ar    
  17 C17            4.9571    -2.7043     1.9756 C.ar    
  18 C18            5.0746    -3.1739     3.2730 C.ar    
  19 C19            3.9504    -3.5865     3.9623 C.ar    
  20 C20            2.7085    -3.5306     3.3571 C.ar    
  21 C21            2.5893    -3.0568     2.0641 C.ar    
  22 F22            3.4904     3.9312     0.4829 F       
  23 F23            1.5372    -1.1928     0.7443 F       
  24 F24            6.0557    -2.3011     1.3005 F       
  25 C25            1.4831    -3.9814     4.1097 C.3     
  26 F26            1.8531    -4.4099     5.3891 F       
  27 F27            0.5834    -2.9155     4.2170 F       
  28 F28            0.8755    -5.0372     3.4219 F       
  29 H29            1.0919     3.2587     1.2557 H       
  30 H30            0.2252     0.9616     1.3736 H       
  31 H31            5.9675    -1.5061    -0.8156 H       
  32 H32            8.8604     1.9906    -1.5337 H       
  33 H33            2.5316    -2.1197    -0.3259 H       
  34 H34            4.1314    -2.7952    -0.7170 H       
  35 H35            6.0446    -3.2179     3.7458 H       
  36 H36            4.0418    -3.9530     4.9741 H       
  37 H37            1.6187    -3.0136     1.5923 H       
@<TRIPOS>BOND
   1    1    2 ar
   2    1    6 ar
   3    1   29 1
   4    2    3 ar
   5    2   30 1
   6    3    4 ar
   7    3   23 1
   8    4    5 ar
   9    4    7 1
  10    5    6 ar
  11    5   10 1
  12    6   22 1
  13    7    8 1
  14    7   15 1
  15    8    9 2
  16    8   31 1
  17    9   10 1
  18    9   12 1
  19   10   11 2
  20   12   13 2
  21   12   14 1
  22   14   32 1
  23   15   16 1
  24   15   33 1
  25   15   34 1
  26   16   17 ar
  27   16   21 ar
  28   17   18 ar
  29   17   24 1
  30   18   19 ar
  31   18   35 1
  32   19   20 ar
  33   19   36 1
  34   20   21 ar
  35   20   25 1
  36   21   37 1
  37   25   26 1
  38   25   27 1
  39   25   28 1

#	End of record

