#	Name: ASD01814445
#	Creating user name:	WinNT
#	Creation time:	15. 06. 2019 19:32

#	Modifying user name:	WinNT
#	Modification time:	15. 06. 2019 19:32

#	Program:	/corina/corina34_cracker 3.40 0067  02.08.2006

@<TRIPOS>MOLECULE
ASD01814445
  59   64    0    0    0
SMALL
NO_CHARGES


@<TRIPOS>ATOM
   1 C1            -0.0204     1.3733     0.1433 C.ar    
   2 C2             0.0112    -0.0082     0.2488 C.ar    
   3 C3             1.2040    -0.6965     0.1506 C.ar    
   4 C4             2.3903    -0.0009    -0.0565 C.ar    
   5 C5             2.3522     1.4027    -0.1628 C.ar    
   6 C6             1.1462     2.0827    -0.0623 C.ar    
   7 N7             3.5986    -0.6600    -0.1585 N.pl3   
   8 N8             4.7188    -0.0650    -0.3487 N.2     
   9 C9             4.8417     1.2318    -0.4672 C.2     
  10 C10            3.6367     2.0929    -0.3821 C.2     
  11 C11            5.9524     2.1616    -0.6832 C.2     
  12 N12            5.4087     3.3973    -0.7119 N.am    
  13 N13            4.0254     3.3239    -0.5296 N.2     
  14 C14            3.6020    -2.1204    -0.0426 C.3     
  15 C15            5.0125    -2.6322    -0.1822 C.ar    
  16 C16            5.8081    -2.7745     0.9403 C.ar    
  17 C17            7.1005    -3.2432     0.8183 C.ar    
  18 C18            7.6035    -3.5731    -0.4385 C.ar    
  19 C19            6.7977    -3.4278    -1.5659 C.ar    
  20 C20            5.5050    -2.9632    -1.4317 C.ar    
  21 O21            7.1317     1.8770    -0.8108 O.2     
  22 C22            6.1622     4.6385    -0.9063 C.3     
  23 C23            8.9925    -4.0771    -0.5759 C.ar    
  24 C24            5.6560     5.3530    -2.1621 C.3     
  25 O25            6.3524     6.5912    -2.3174 O.3     
  26 C26            6.1657     7.5053    -1.2349 C.3     
  27 C27            6.6924     6.8773     0.0581 C.3     
  28 C28            5.9642     5.5528     0.3067 C.3     
  29 Cl29           1.2230    -2.4271     0.2859 Cl      
  30 C30            9.8058    -4.2253     0.5452 C.ar    
  31 N31           11.0389    -4.6731     0.4247 N.ar    
  32 C32           11.5506    -4.9962    -0.7472 C.ar    
  33 C33           10.8070    -4.8766    -1.9073 C.ar    
  34 C34            9.5039    -4.4161    -1.8317 C.ar    
  35 C35           12.9678    -5.5031    -0.8235 C.3     
  36 H36           -0.9621     1.8969     0.2179 H       
  37 H37           -0.9076    -0.5525     0.4099 H       
  38 H38            1.1206     3.1593    -0.1440 H       
  39 H39            3.2056    -2.4085     0.9310 H       
  40 H40            2.9806    -2.5487    -0.8291 H       
  41 H41            5.4174    -2.5182     1.9140 H       
  42 H42            7.7210    -3.3537     1.6954 H       
  43 H43            7.1827    -3.6817    -2.5424 H       
  44 H44            4.8795    -2.8501    -2.3048 H       
  45 H45            7.2213     4.4076    -1.0205 H       
  46 H46            5.8336     4.7242    -3.0345 H       
  47 H47            4.5878     5.5465    -2.0645 H       
  48 H48            6.7104     8.4271    -1.4395 H       
  49 H49            5.1041     7.7270    -1.1253 H       
  50 H50            7.7624     6.6926    -0.0362 H       
  51 H51            6.5109     7.5549     0.8924 H       
  52 H52            4.9006     5.7428     0.4503 H       
  53 H53            6.3736     5.0729     1.1956 H       
  54 H54            9.4221    -3.9706     1.5221 H       
  55 H55           11.2371    -5.1437    -2.8613 H       
  56 H56            8.9005    -4.3130    -2.7215 H       
  57 H57           12.9713    -6.5885    -0.7239 H       
  58 H58           13.4020    -5.2249    -1.7838 H       
  59 H59           13.5551    -5.0624    -0.0179 H       
@<TRIPOS>BOND
   1    1    2 ar
   2    1    6 ar
   3    1   36 1
   4    2    3 ar
   5    2   37 1
   6    3    4 ar
   7    3   29 1
   8    4    5 ar
   9    4    7 1
  10    5    6 ar
  11    5   10 1
  12    6   38 1
  13    7    8 1
  14    7   14 1
  15    8    9 2
  16    9   10 1
  17    9   11 1
  18   10   13 2
  19   11   12 am
  20   11   21 2
  21   12   13 1
  22   12   22 1
  23   14   15 1
  24   14   39 1
  25   14   40 1
  26   15   16 ar
  27   15   20 ar
  28   16   17 ar
  29   16   41 1
  30   17   18 ar
  31   17   42 1
  32   18   19 ar
  33   18   23 1
  34   19   20 ar
  35   19   43 1
  36   20   44 1
  37   22   24 1
  38   22   28 1
  39   22   45 1
  40   23   30 ar
  41   23   34 ar
  42   24   25 1
  43   24   46 1
  44   24   47 1
  45   25   26 1
  46   26   27 1
  47   26   48 1
  48   26   49 1
  49   27   28 1
  50   27   50 1
  51   27   51 1
  52   28   52 1
  53   28   53 1
  54   30   31 ar
  55   30   54 1
  56   31   32 ar
  57   32   33 ar
  58   32   35 1
  59   33   34 ar
  60   33   55 1
  61   34   56 1
  62   35   57 1
  63   35   58 1
  64   35   59 1

#	End of record

