#	Name: ASD06020058
#	Creating user name:	WinNT
#	Creation time:	15. 06. 2019 21:04

#	Modifying user name:	WinNT
#	Modification time:	15. 06. 2019 21:04

#	Program:	/corina/corina34_cracker 3.40 0067  02.08.2006

@<TRIPOS>MOLECULE
ASD06020058
  37   40    0    0    0
SMALL
NO_CHARGES


@<TRIPOS>ATOM
   1 C1            -0.0167     1.3957     0.0027 C.ar    
   2 C2             0.0030    -0.0035     0.0026 C.ar    
   3 C3             1.2264    -0.6795    -0.0196 C.ar    
   4 C4             2.4121     0.1237    -0.0420 C.ar    
   5 C5             2.2911     1.5060    -0.0404 C.ar    
   6 N6             1.1094     2.0913    -0.0181 N.ar    
   7 S7            -1.2893    -1.1990     0.0266 S.3     
   8 C8            -0.1012    -2.4960     0.0050 C.2     
   9 N9             1.0962    -2.0026    -0.0170 N.2     
  10 C10            3.7050    -0.4915    -0.0651 C.1     
  11 N11            4.7307    -0.9796    -0.0834 N.1     
  12 N12           -1.2335     2.0632     0.0191 N.pl3   
  13 C13           -0.1701     5.4458     0.4364 C.ar    
  14 N14           -0.1440     4.1327     0.3296 N.ar    
  15 C15           -1.2649     3.4455     0.1314 C.ar    
  16 C16           -2.4740     4.1376     0.0378 C.ar    
  17 C17           -2.4527     5.5135     0.1558 C.ar    
  18 N18           -1.2945     6.1277     0.3525 N.ar    
  19 C19           -3.7304     6.3069     0.0615 C.3     
  20 C20           -0.4223    -3.9381     0.0122 C.ar    
  21 C21            0.6039    -4.8860    -0.0065 C.ar    
  22 C22            0.2964    -6.2319     0.0002 C.ar    
  23 C23           -1.0244    -6.6437     0.0255 C.ar    
  24 C24           -2.0463    -5.7124     0.0437 C.ar    
  25 C25           -1.7542    -4.3610     0.0435 C.ar    
  26 F26           -2.7532    -3.4519     0.0678 F       
  27 Cl27           2.2620    -4.3726    -0.0388 Cl      
  28 H28            3.1829     2.1151    -0.0569 H       
  29 H29           -2.0619     1.5631    -0.0481 H       
  30 H30            0.7553     5.9776     0.6016 H       
  31 H31           -3.4026     3.6102    -0.1232 H       
  32 H32           -4.1663     6.4131     1.0549 H       
  33 H33           -3.5158     7.2938    -0.3485 H       
  34 H34           -4.4332     5.7878    -0.5901 H       
  35 H35            1.0889    -6.9654    -0.0146 H       
  36 H36           -1.2584    -7.6981     0.0306 H       
  37 H37           -3.0748    -6.0413     0.0626 H       
@<TRIPOS>BOND
   1    1    2 ar
   2    1    6 ar
   3    1   12 1
   4    2    3 ar
   5    2    7 1
   6    3    4 ar
   7    3    9 1
   8    4    5 ar
   9    4   10 1
  10    5    6 ar
  11    5   28 1
  12    7    8 1
  13    8    9 2
  14    8   20 1
  15   10   11 3
  16   12   15 1
  17   12   29 1
  18   13   14 ar
  19   13   18 ar
  20   13   30 1
  21   14   15 ar
  22   15   16 ar
  23   16   17 ar
  24   16   31 1
  25   17   18 ar
  26   17   19 1
  27   19   32 1
  28   19   33 1
  29   19   34 1
  30   20   21 ar
  31   20   25 ar
  32   21   22 ar
  33   21   27 1
  34   22   23 ar
  35   22   35 1
  36   23   24 ar
  37   23   36 1
  38   24   25 ar
  39   24   37 1
  40   25   26 1

#	End of record

