#	Name: ASD01915112
#	Creating user name:	WinNT
#	Creation time:	15. 06. 2019 20:04

#	Modifying user name:	WinNT
#	Modification time:	15. 06. 2019 20:04

#	Program:	/corina/corina34_cracker 3.40 0067  02.08.2006

@<TRIPOS>MOLECULE
ASD01915112
  46   49    0    0    0
SMALL
NO_CHARGES


@<TRIPOS>ATOM
   1 C1            -0.2245     1.4611    -1.1264 C.ar    
   2 C2            -0.2360     0.0860    -1.2806 C.ar    
   3 C3             0.9610    -0.6058    -1.1444 C.ar    
   4 C4             2.1175     0.0949    -0.8615 C.ar    
   5 N5             2.0957     1.4069    -0.7203 N.ar    
   6 C6             0.9760     2.0996    -0.8426 C.ar    
   7 O7             1.0000     3.4477    -0.6892 O.3     
   8 C8             2.2651     4.0451    -0.3984 C.3     
   9 C9             2.0971     5.5366    -0.2633 C.2     
  10 C10            0.8953     6.2458    -0.3926 C.2     
  11 N11            3.0497     6.4000     0.0018 N.2     
  12 C12            1.2323     7.5542    -0.1919 C.2     
  13 C13            0.4248     8.7834    -0.1922 C.2     
  14 N14            2.5862     7.5869     0.0605 N.pl3   
  15 C15            3.2732     8.8499     0.3565 C.3     
  16 C16            2.5572     9.9931    -0.3612 C.3     
  17 N17            1.1094     9.9527    -0.1710 N.am    
  18 O18           -0.7911     8.7521    -0.2110 O.2     
  19 C19            3.2523     9.1013     1.8656 C.3     
  20 Cl20           1.0030    -2.3316    -1.3272 Cl      
  21 C21            0.4147    11.1475     0.0419 C.ar    
  22 C22            0.3174    12.0871    -0.9766 C.ar    
  23 C23           -0.3697    13.2657    -0.7633 C.ar    
  24 C24           -0.9607    13.5112     0.4628 C.ar    
  25 C25           -0.8653    12.5783     1.4788 C.ar    
  26 C26           -0.1844    11.3948     1.2701 C.ar    
  27 C27           -1.5100    12.8505     2.8135 C.3     
  28 H28           -1.1362     2.0309    -1.2299 H       
  29 H29           -1.1546    -0.4375    -1.5012 H       
  30 H30            3.0510    -0.4376    -0.7542 H       
  31 H31            2.6536     3.6373     0.5347 H       
  32 H32            2.9631     3.8299    -1.2075 H       
  33 H33           -0.0847     5.8449    -0.6054 H       
  34 H34            4.3053     8.7926     0.0107 H       
  35 H35            2.9361    10.9412     0.0205 H       
  36 H36            2.7759     9.9319    -1.4273 H       
  37 H37            3.7597     8.2835     2.3773 H       
  38 H38            3.7625    10.0393     2.0847 H       
  39 H39            2.2197     9.1603     2.2098 H       
  40 H40            0.7790    11.8961    -1.9342 H       
  41 H41           -0.4454    13.9967    -1.5547 H       
  42 H42           -1.4975    14.4338     0.6271 H       
  43 H43           -0.1144    10.6644     2.0626 H       
  44 H44           -2.5317    12.4708     2.8076 H       
  45 H45           -0.9420    12.3530     3.5996 H       
  46 H46           -1.5226    13.9246     2.9986 H       
@<TRIPOS>BOND
   1    1    2 ar
   2    1    6 ar
   3    1   28 1
   4    2    3 ar
   5    2   29 1
   6    3    4 ar
   7    3   20 1
   8    4    5 ar
   9    4   30 1
  10    5    6 ar
  11    6    7 1
  12    7    8 1
  13    8    9 1
  14    8   31 1
  15    8   32 1
  16    9   11 2
  17    9   10 1
  18   10   12 2
  19   10   33 1
  20   11   14 1
  21   12   14 1
  22   12   13 1
  23   13   17 am
  24   13   18 2
  25   14   15 1
  26   15   16 1
  27   15   19 1
  28   15   34 1
  29   16   17 1
  30   16   35 1
  31   16   36 1
  32   17   21 1
  33   19   37 1
  34   19   38 1
  35   19   39 1
  36   21   22 ar
  37   21   26 ar
  38   22   23 ar
  39   22   40 1
  40   23   24 ar
  41   23   41 1
  42   24   25 ar
  43   24   42 1
  44   25   26 ar
  45   25   27 1
  46   26   43 1
  47   27   44 1
  48   27   45 1
  49   27   46 1

#	End of record

