#	Name: ASD04590645
#	Creating user name:	WinNT
#	Creation time:	15. 06. 2019 20:51

#	Modifying user name:	WinNT
#	Modification time:	15. 06. 2019 20:51

#	Program:	/corina/corina34_cracker 3.40 0067  02.08.2006

@<TRIPOS>MOLECULE
ASD04590645
  67   71    0    0    0
SMALL
NO_CHARGES


@<TRIPOS>ATOM
   1 N1            -0.0170     1.3232    -0.0111 N.ar    
   2 C2             0.0017    -0.0035    -0.0048 C.ar    
   3 N3             1.1299    -0.6949    -0.0118 N.ar    
   4 C4             2.3050    -0.0729    -0.0259 C.ar    
   5 C5             2.3189     1.3365    -0.0332 C.ar    
   6 C6             1.1072     2.0202    -0.0251 C.ar    
   7 N7             3.6031    -0.5196    -0.0356 N.pl3   
   8 C8             4.4823     0.5494    -0.0493 C.ar    
   9 C9             3.7313     1.7384    -0.0484 C.ar    
  10 C10            5.8681     0.6417    -0.0622 C.ar    
  11 N11            6.4613     1.8180    -0.0729 N.ar    
  12 C12            5.7851     2.9532    -0.0725 C.ar    
  13 C13            4.4064     2.9584    -0.0605 C.ar    
  14 N14           -1.2019    -0.6887     0.0098 N.pl3   
  15 C15           -2.4022     0.0122     0.1304 C.ar    
  16 C16            4.0018    -1.9293    -0.0316 C.3     
  17 N17           -2.3891     1.3195     0.3310 N.ar    
  18 N18           -3.4683     2.0042     0.4478 N.ar    
  19 C19           -4.6668     1.4483     0.3753 C.ar    
  20 C20           -4.7831     0.0733     0.1655 C.ar    
  21 C21           -3.6194    -0.6637     0.0338 C.ar    
  22 N22           -5.8099     2.2334     0.5087 N.3     
  23 C23           -6.6699     1.7317     1.5881 C.3     
  24 C24           -7.9782     2.5253     1.6103 C.3     
  25 C25           -5.4581     3.6431     0.7218 C.3     
  26 C26           -6.7303     4.4938     0.7182 C.3     
  27 C27           -7.6662     4.0084     1.8286 C.3     
  28 C28            2.7525    -2.8125    -0.0156 C.3     
  29 N29           -8.9138     4.7830     1.7926 N.3     
  30 C30           -9.8373     4.3430     2.8469 C.3     
  31 C31           -8.6427     6.2230     1.8977 C.3     
  32 C32            4.8233    -2.2306    -1.2866 C.3     
  33 C33            4.8457    -2.2171     1.2117 C.3     
  34 C34            3.1688    -4.2848    -0.0114 C.3     
  35 H35            1.0849     3.0999    -0.0307 H       
  36 H36            6.4645    -0.2586    -0.0631 H       
  37 H37            6.3204     3.8911    -0.0816 H       
  38 H38            3.8598     3.8898    -0.0602 H       
  39 H39           -1.2103    -1.6559    -0.0637 H       
  40 H40           -5.7518    -0.4003     0.1036 H       
  41 H41           -3.6520    -1.7307    -0.1299 H       
  42 H42           -6.8876     0.6772     1.4185 H       
  43 H43           -6.1584     1.8477     2.5436 H       
  44 H44           -8.4969     2.3986     0.6601 H       
  45 H45           -8.6098     2.1631     2.4215 H       
  46 H46           -4.9524     3.7502     1.6814 H       
  47 H47           -4.7957     3.9769    -0.0769 H       
  48 H48           -6.4703     5.5380     0.8920 H       
  49 H49           -7.2293     4.3981    -0.2461 H       
  50 H50           -7.1823     4.1402     2.7964 H       
  51 H51            2.1672    -2.5979     0.8785 H       
  52 H52            2.1512    -2.6075    -0.9013 H       
  53 H53           -9.3685     4.4805     3.8212 H       
  54 H54          -10.7526     4.9327     2.7975 H       
  55 H55          -10.0760     3.2890     2.7041 H       
  56 H56           -8.0129     6.5358     1.0649 H       
  57 H57           -9.5833     6.7729     1.8685 H       
  58 H58           -8.1306     6.4286     2.8377 H       
  59 H59            5.7133    -1.6013    -1.2980 H       
  60 H60            5.1199    -3.2794    -1.2837 H       
  61 H61            4.2220    -2.0255    -2.1724 H       
  62 H62            4.2605    -2.0025     2.1058 H       
  63 H63            5.1423    -3.2660     1.2147 H       
  64 H64            5.7357    -1.5879     1.2003 H       
  65 H65            3.7541    -4.4994    -0.9056 H       
  66 H66            3.7701    -4.4898     0.8743 H       
  67 H67            2.2788    -4.9140    -0.0000 H       
@<TRIPOS>BOND
   1    1    2 ar
   2    1    6 ar
   3    2    3 ar
   4    2   14 1
   5    3    4 ar
   6    4    5 ar
   7    4    7 1
   8    5    6 ar
   9    5    9 1
  10    6   35 1
  11    7    8 1
  12    7   16 1
  13    8    9 ar
  14    8   10 ar
  15    9   13 ar
  16   10   11 ar
  17   10   36 1
  18   11   12 ar
  19   12   13 ar
  20   12   37 1
  21   13   38 1
  22   14   15 1
  23   14   39 1
  24   15   17 ar
  25   15   21 ar
  26   16   28 1
  27   16   32 1
  28   16   33 1
  29   17   18 ar
  30   18   19 ar
  31   19   20 ar
  32   19   22 1
  33   20   21 ar
  34   20   40 1
  35   21   41 1
  36   22   25 1
  37   22   23 1
  38   23   24 1
  39   23   42 1
  40   23   43 1
  41   24   27 1
  42   24   44 1
  43   24   45 1
  44   25   26 1
  45   25   46 1
  46   25   47 1
  47   26   27 1
  48   26   48 1
  49   26   49 1
  50   27   29 1
  51   27   50 1
  52   28   34 1
  53   28   51 1
  54   28   52 1
  55   29   30 1
  56   29   31 1
  57   30   53 1
  58   30   54 1
  59   30   55 1
  60   31   56 1
  61   31   57 1
  62   31   58 1
  63   32   59 1
  64   32   60 1
  65   32   61 1
  66   33   62 1
  67   33   63 1
  68   33   64 1
  69   34   65 1
  70   34   66 1
  71   34   67 1

#	End of record

