#	Name: ASD02360001
#	Creating user name:	WinNT
#	Creation time:	15. 06. 2019 20:20

#	Modifying user name:	WinNT
#	Modification time:	15. 06. 2019 20:20

#	Program:	/corina/corina34_cracker 3.40 0067  02.08.2006

@<TRIPOS>MOLECULE
ASD02360001
  64   68    0    0    0
SMALL
NO_CHARGES


@<TRIPOS>ATOM
   1 C1             0.2675     1.6472     0.4140 C.ar    
   2 C2             0.2857     0.2606     0.4463 C.ar    
   3 C3            -0.9009    -0.4455     0.4724 C.ar    
   4 C4            -2.1125     0.2330     0.4664 C.ar    
   5 C5            -2.1298     1.6211     0.4341 C.ar    
   6 C6            -0.9421     2.3258     0.4133 C.ar    
   7 O7             1.4365     2.3418     0.3887 O.3     
   8 N8            -3.3153    -0.4817     0.4925 N.3     
   9 C9             1.3435     3.7674     0.3561 C.3     
  10 C10            2.7497     4.3698     0.3311 C.3     
  11 C11           -4.4686     0.4281     0.4807 C.3     
  12 C12           -5.7568    -0.3875     0.3271 C.3     
  13 N13           -5.7867    -1.4160     1.3781 N.am    
  14 C14           -4.6068    -2.2787     1.5412 C.3     
  15 C15           -3.3639    -1.3887     1.6470 C.3     
  16 C16           -6.8669    -1.5642     2.1704 C.2     
  17 C17           -6.9294    -2.7046     3.1536 C.3     
  18 O18           -7.7886    -0.7799     2.0920 O.2     
  19 O19            3.4207     4.0463    -0.9035 O.3     
  20 C20            4.1412     5.2152    -1.3157 C.3     
  21 O21            3.9362     6.2529    -0.3422 O.3     
  22 C22            2.6819     5.9171     0.2983 C.3     
  23 C23            5.6107     4.8959    -1.4136 C.ar    
  24 C24            3.6277     5.6812    -2.6796 C.3     
  25 N25            2.2289     6.0993    -2.5579 N.pl3   
  26 C26            6.5379     5.7126    -0.7944 C.ar    
  27 C27            7.8861     5.4201    -0.8833 C.ar    
  28 C28            8.3079     4.3096    -1.5922 C.ar    
  29 C29            7.3802     3.4916    -2.2123 C.ar    
  30 C30            6.0311     3.7819    -2.1186 C.ar    
  31 C31            1.7863     7.3415    -2.2670 C.2     
  32 N32            0.4816     7.3264    -2.2456 N.2     
  33 C33            0.0490     6.0867    -2.5193 C.2     
  34 C34            1.1265     5.3051    -2.7237 C.2     
  35 Cl35           4.8663     2.7558    -2.8959 Cl      
  36 Cl36          10.0010     3.9427    -1.7043 Cl      
  37 H37            1.2280    -0.2669     0.4506 H       
  38 H38           -0.8866    -1.5251     0.4972 H       
  39 H39           -3.0716     2.1497     0.4294 H       
  40 H40           -0.9554     3.4055     0.3885 H       
  41 H41            0.8002     4.0757    -0.5371 H       
  42 H42            0.8140     4.1173     1.2423 H       
  43 H43            3.3302     4.0251     1.1869 H       
  44 H44           -4.5010     0.9865     1.4162 H       
  45 H45           -4.3758     1.1222    -0.3546 H       
  46 H46           -6.6206     0.2689     0.4325 H       
  47 H47           -5.7734    -0.8647    -0.6528 H       
  48 H48           -4.7102    -2.8727     2.4493 H       
  49 H49           -4.5129    -2.9377     0.6781 H       
  50 H50           -2.4698    -2.0122     1.6576 H       
  51 H51           -3.4116    -0.8050     2.5663 H       
  52 H52           -6.0639    -3.3523     3.0143 H       
  53 H53           -6.9275    -2.3091     4.1693 H       
  54 H54           -7.8421    -3.2772     2.9883 H       
  55 H55            1.8356     6.2580    -0.2981 H       
  56 H56            2.6368     6.3272     1.3072 H       
  57 H57            4.2292     6.5214    -3.0266 H       
  58 H58            3.7012     4.8619    -3.3947 H       
  59 H59            6.2090     6.5798    -0.2411 H       
  60 H60            8.6102     6.0588    -0.3995 H       
  61 H61            7.7091     2.6248    -2.7662 H       
  62 H62            2.4089     8.2044    -2.0820 H       
  63 H63           -0.9827     5.7714    -2.5709 H       
  64 H64            1.1218     4.2524    -2.9650 H       
@<TRIPOS>BOND
   1    1    2 ar
   2    1    7 1
   3    1    6 ar
   4    2    3 ar
   5    2   37 1
   6    3    4 ar
   7    3   38 1
   8    4    5 ar
   9    4    8 1
  10    5    6 ar
  11    5   39 1
  12    6   40 1
  13    7    9 1
  14    8   11 1
  15    8   15 1
  16    9   10 1
  17    9   41 1
  18    9   42 1
  19   10   19 1
  20   10   22 1
  21   10   43 1
  22   11   12 1
  23   11   44 1
  24   11   45 1
  25   12   13 1
  26   12   46 1
  27   12   47 1
  28   13   14 1
  29   13   16 am
  30   14   15 1
  31   14   48 1
  32   14   49 1
  33   15   50 1
  34   15   51 1
  35   16   17 1
  36   16   18 2
  37   17   52 1
  38   17   53 1
  39   17   54 1
  40   19   20 1
  41   20   21 1
  42   20   23 1
  43   20   24 1
  44   21   22 1
  45   22   55 1
  46   22   56 1
  47   23   26 ar
  48   23   30 ar
  49   24   25 1
  50   24   57 1
  51   24   58 1
  52   25   31 1
  53   25   34 1
  54   26   27 ar
  55   26   59 1
  56   27   28 ar
  57   27   60 1
  58   28   29 ar
  59   28   36 1
  60   29   30 ar
  61   29   61 1
  62   30   35 1
  63   31   32 2
  64   31   62 1
  65   32   33 1
  66   33   34 2
  67   33   63 1
  68   34   64 1

#	End of record

