#	Name: ASD01420016
#	Creating user name:	WinNT
#	Creation time:	15. 06. 2019 19:20

#	Modifying user name:	WinNT
#	Modification time:	15. 06. 2019 19:20

#	Program:	/corina/corina34_cracker 3.40 0067  02.08.2006

@<TRIPOS>MOLECULE
ASD01420016
  50   53    0    0    0
SMALL
NO_CHARGES


@<TRIPOS>ATOM
   1 C1             2.3843     0.1885     1.0093 C.ar    
   2 C2             1.6634    -0.7925     0.3615 C.ar    
   3 C3             0.9274    -0.4958    -0.7776 C.ar    
   4 C4             0.9080     0.7889    -1.2767 C.ar    
   5 C5             2.3789     1.4892     0.5239 C.ar    
   6 O6             2.9714     2.6300     0.9334 O.3     
   7 C7             1.6332     1.7904    -0.6298 C.ar    
   8 C8             1.8372     3.2208    -0.8706 C.2     
   9 C9             2.6567     3.6547     0.1168 C.2     
  10 C10            3.1339     5.0443     0.2752 C.ar    
  11 C11            2.2343     6.1081     0.1834 C.ar    
  12 C12            2.6833     7.4028     0.3322 C.ar    
  13 C13            4.0285     7.6499     0.5727 C.ar    
  14 C14            4.9266     6.5946     0.6647 C.ar    
  15 C15            4.4846     5.2967     0.5228 C.ar    
  16 C16            1.2539     4.0432    -1.9907 C.3     
  17 O17            4.4673     8.9275     0.7179 O.3     
  18 C18            5.8632     9.1101     0.9633 C.3     
  19 C19            6.1881    10.6061     0.9752 C.3     
  20 O20            6.2031     8.5401     2.2289 O.3     
  21 C21            7.5885     8.6455     2.5631 C.3     
  22 C22            7.9827    10.1228     2.6393 C.3     
  23 C23            7.6733    10.7955     1.2984 C.3     
  24 O24            5.9032    11.1668    -0.3079 O.3     
  25 O25            7.9698    12.1908     1.3839 O.3     
  26 O26            7.2382    10.7628     3.6776 O.3     
  27 C27            7.8386     7.9801     3.9180 C.3     
  28 Cl28           0.0285    -1.7477    -1.5768 Cl      
  29 O29            7.5801     6.5785     3.8153 O.3     
  30 H30            2.9497    -0.0542     1.8970 H       
  31 H31            1.6717    -1.8024     0.7442 H       
  32 H32            0.3355     1.0189    -2.1632 H       
  33 H33            1.1880     5.9169    -0.0044 H       
  34 H34            1.9881     8.2262     0.2613 H       
  35 H35            5.9720     6.7909     0.8519 H       
  36 H36            5.1829     4.4763     0.5990 H       
  37 H37            0.3425     4.5318    -1.6461 H       
  38 H38            1.9759     4.7984    -2.3011 H       
  39 H39            1.0213     3.3942    -2.8349 H       
  40 H40            6.4377     8.6194     0.1776 H       
  41 H41            5.5839    11.1040     1.7336 H       
  42 H42            8.1857     8.1488     1.7984 H       
  43 H43            9.0488    10.2049     2.8506 H       
  44 H44            8.2781    10.3404     0.5140 H       
  45 H45            4.9794    11.0781    -0.5796 H       
  46 H46            7.7906    12.6816     0.5702 H       
  47 H47            7.4378    11.7031     3.7824 H       
  48 H48            8.8757     8.1376     4.2142 H       
  49 H49            7.1768     8.4178     4.6654 H       
  50 H50            7.7186     6.0916     4.6393 H       
@<TRIPOS>BOND
   1    1    2 ar
   2    1    5 ar
   3    1   30 1
   4    2    3 ar
   5    2   31 1
   6    3    4 ar
   7    3   28 1
   8    4    7 ar
   9    4   32 1
  10    5    7 ar
  11    5    6 1
  12    6    9 1
  13    7    8 1
  14    8    9 2
  15    8   16 1
  16    9   10 1
  17   10   11 ar
  18   10   15 ar
  19   11   12 ar
  20   11   33 1
  21   12   13 ar
  22   12   34 1
  23   13   14 ar
  24   13   17 1
  25   14   15 ar
  26   14   35 1
  27   15   36 1
  28   16   37 1
  29   16   38 1
  30   16   39 1
  31   17   18 1
  32   18   20 1
  33   18   19 1
  34   18   40 1
  35   19   23 1
  36   19   24 1
  37   19   41 1
  38   20   21 1
  39   21   22 1
  40   21   27 1
  41   21   42 1
  42   22   23 1
  43   22   26 1
  44   22   43 1
  45   23   25 1
  46   23   44 1
  47   24   45 1
  48   25   46 1
  49   26   47 1
  50   27   29 1
  51   27   48 1
  52   27   49 1
  53   29   50 1

#	End of record

