#	Name: ASD01813118
#	Creating user name:	WinNT
#	Creation time:	15. 06. 2019 19:29

#	Modifying user name:	WinNT
#	Modification time:	15. 06. 2019 19:29

#	Program:	/corina/corina34_cracker 3.40 0067  02.08.2006

@<TRIPOS>MOLECULE
ASD01813118
  58   62    0    0    0
SMALL
NO_CHARGES


@<TRIPOS>ATOM
   1 C1            -6.0489   -13.3588    -5.7338 C.3     
   2 N2            -5.0981   -12.3141    -6.1222 N.pl3   
   3 C3            -4.3733   -11.5517    -5.2789 C.2     
   4 C4            -3.6150   -10.7064    -6.0350 C.2     
   5 C5            -3.8992   -10.9757    -7.3879 C.2     
   6 N6            -4.7808   -11.9393    -7.4334 N.2     
   7 C7            -2.6630    -9.6877    -5.5245 C.ar    
   8 C8            -2.4752    -9.5322    -4.1531 C.ar    
   9 C9            -1.5889    -8.5842    -3.6822 C.ar    
  10 C10           -0.8875    -7.7884    -4.5690 C.ar    
  11 C11            0.0786    -6.7554    -4.0489 C.3     
  12 N12            1.4312    -7.3178    -4.0295 N.pl3   
  13 C13            2.3554    -7.1794    -5.0307 C.2     
  14 C14            3.4896    -7.8137    -4.6965 C.2     
  15 C15            3.2750    -8.4069    -3.3738 C.ar    
  16 C16            4.0675    -9.1726    -2.5137 C.ar    
  17 F17            5.3286    -9.5043    -2.8671 F       
  18 C18            3.5555    -9.5870    -1.3028 C.ar    
  19 C19            2.2588    -9.2472    -0.9358 C.ar    
  20 F20            1.7704    -9.6600     0.2543 F       
  21 C21            1.4657    -8.4921    -1.7749 C.ar    
  22 C22            1.9650    -8.0594    -2.9992 C.ar    
  23 S23            4.9583    -7.9149    -5.6648 S.o2    
  24 O24            5.2610    -9.3028    -5.6984 O.2     
  25 O25            4.6432    -7.2047    -6.8546 O.2     
  26 C26            6.2013    -7.0155    -4.6969 C.3     
  27 C27            7.5377    -7.0325    -5.4417 C.3     
  28 N28            8.5416    -6.3062    -4.6601 N.am    
  29 C29            9.8019    -6.1904    -5.1233 C.2     
  30 O30           10.1058    -6.6887    -6.1899 O.2     
  31 C31           10.8128    -5.4591    -4.3363 C.2     
  32 C32           12.1230    -5.2512    -4.6710 C.2     
  33 C33           12.6350    -4.5058    -3.5857 C.2     
  34 N34           11.6510    -4.3426    -2.7500 N.2     
  35 O35           10.6309    -4.8563    -3.1462 O.3     
  36 C36           -1.0697    -7.9381    -5.9344 C.ar    
  37 F37           -0.3818    -7.1578    -6.7965 F       
  38 C38           -1.9507    -8.8884    -6.4155 C.ar    
  39 H39           -5.5277   -14.3127    -5.6533 H       
  40 H40           -6.4939   -13.1056    -4.7716 H       
  41 H41           -6.8325   -13.4354    -6.4876 H       
  42 H42           -4.3901   -11.6012    -4.2002 H       
  43 H43           -3.4617   -10.4759    -8.2395 H       
  44 H44           -3.0227   -10.1524    -3.4588 H       
  45 H45           -1.4433    -8.4637    -2.6189 H       
  46 H46            0.0585    -5.8798    -4.6978 H       
  47 H47           -0.2088    -6.4653    -3.0383 H       
  48 H48            2.1949    -6.6402    -5.9526 H       
  49 H49            4.1650   -10.1790    -0.6361 H       
  50 H50            0.4594    -8.2337    -1.4798 H       
  51 H51            5.8765    -5.9845    -4.5568 H       
  52 H52            6.3210    -7.4941    -3.7249 H       
  53 H53            7.8625    -8.0635    -5.5819 H       
  54 H54            7.4181    -6.5539    -6.4137 H       
  55 H55            8.2992    -5.9086    -3.8091 H       
  56 H56           12.6443    -5.5805    -5.5577 H       
  57 H57           13.6457    -4.1425    -3.4718 H       
  58 H58           -2.0896    -9.0082    -7.4798 H       
@<TRIPOS>BOND
   1    1    2 1
   2    1   39 1
   3    1   40 1
   4    1   41 1
   5    2    6 1
   6    2    3 1
   7    3    4 2
   8    3   42 1
   9    4    5 1
  10    4    7 1
  11    5    6 2
  12    5   43 1
  13    7   38 ar
  14    7    8 ar
  15    8    9 ar
  16    8   44 1
  17    9   10 ar
  18    9   45 1
  19   10   11 1
  20   10   36 ar
  21   11   12 1
  22   11   46 1
  23   11   47 1
  24   12   22 1
  25   12   13 1
  26   13   14 2
  27   13   48 1
  28   14   15 1
  29   14   23 1
  30   15   22 ar
  31   15   16 ar
  32   16   17 1
  33   16   18 ar
  34   18   19 ar
  35   18   49 1
  36   19   20 1
  37   19   21 ar
  38   21   22 ar
  39   21   50 1
  40   23   24 2
  41   23   25 2
  42   23   26 1
  43   26   27 1
  44   26   51 1
  45   26   52 1
  46   27   28 1
  47   27   53 1
  48   27   54 1
  49   28   29 am
  50   28   55 1
  51   29   30 2
  52   29   31 1
  53   31   35 1
  54   31   32 2
  55   32   33 1
  56   32   56 1
  57   33   34 2
  58   33   57 1
  59   34   35 1
  60   36   37 1
  61   36   38 ar
  62   38   58 1

#	End of record

