#	Name: ASD01948320
#	Creating user name:	WinNT
#	Creation time:	15. 06. 2019 20:14

#	Modifying user name:	WinNT
#	Modification time:	15. 06. 2019 20:14

#	Program:	/corina/corina34_cracker 3.40 0067  02.08.2006

@<TRIPOS>MOLECULE
ASD01948320
  48   50    0    0    0
SMALL
NO_CHARGES


@<TRIPOS>ATOM
   1 C1             0.0327     1.9568    -0.3659 C.2     
   2 N2            -0.1267     0.6205    -0.1326 N.am    
   3 C3             0.9142    -0.1506     0.2315 C.2     
   4 C4             2.3641     1.7605     0.1444 C.2     
   5 C5             1.2465     2.5419    -0.2368 C.2     
   6 C6             2.7885     3.7215     2.0823 C.ar    
   7 C7             3.8122     3.3632     1.2154 C.ar    
   8 N8             3.6141     2.3406     0.2813 N.pl3   
   9 C9             2.9865     4.7318     3.0034 C.ar    
  10 C10            4.2033     5.3877     3.0632 C.ar    
  11 C11            5.2265     5.0338     2.2018 C.ar    
  12 C12            5.0348     4.0233     1.2774 C.ar    
  13 N13            1.3967     3.9165    -0.4806 N.am    
  14 S14            0.0744     4.8403    -0.8553 S.o2    
  15 N15           -0.8827     4.8968     0.4949 N.am    
  16 O16            0.7457    -1.3436     0.4345 O.2     
  17 C17           -1.3883     0.0462    -0.2735 C.2     
  18 F18            6.0338     3.6776     0.4361 F       
  19 Br19           4.4687     6.7704     4.3256 Br      
  20 O20            0.5539     6.1618    -1.0628 O.2     
  21 O21           -0.6565     4.1160    -1.8353 O.2     
  22 C22            2.1874     0.4069     0.3781 C.2     
  23 C23           -0.5781     5.8446     1.5696 C.3     
  24 C24           -2.0341     3.9989     0.6147 C.3     
  25 C25           -2.1203     3.1237     1.8667 C.3     
  26 C26           -3.0663     4.3145     1.6991 C.3     
  27 C27           -2.0335    -0.6513     0.8962 C.3     
  28 C28           -2.0180     0.1131    -1.4308 C.2     
  29 H29           -0.8185     2.5524    -0.6611 H       
  30 H30            1.8366     3.2138     2.0335 H       
  31 H31            4.3523     2.0380    -0.2704 H       
  32 H32            2.1901     5.0104     3.6776 H       
  33 H33            6.1750     5.5480     2.2503 H       
  34 H34            2.2750     4.3250    -0.4295 H       
  35 H35            3.0237    -0.2106     0.6706 H       
  36 H36           -1.0988     6.7840     1.3840 H       
  37 H37           -0.9052     5.4301     2.5232 H       
  38 H38            0.4964     6.0249     1.6013 H       
  39 H39           -2.3999     3.5761    -0.3210 H       
  40 H40           -2.5431     2.1253     1.7548 H       
  41 H41           -1.3203     3.2161     2.6013 H       
  42 H42           -2.8887     5.1901     2.3234 H       
  43 H43           -4.1115     4.0994     1.4768 H       
  44 H44           -1.4109    -0.5267     1.7821 H       
  45 H45           -3.0171    -0.2187     1.0797 H       
  46 H46           -2.1394    -1.7129     0.6729 H       
  47 H47           -2.9591    -0.3996    -1.5639 H       
  48 H48           -1.5923     0.6805    -2.2452 H       
@<TRIPOS>BOND
   1    1    2 1
   2    1    5 2
   3    1   29 1
   4    2    3 am
   5    2   17 1
   6    3   22 1
   7    3   16 2
   8    4    5 1
   9    4    8 1
  10    4   22 2
  11    5   13 1
  12    6    7 ar
  13    6    9 ar
  14    6   30 1
  15    7    8 1
  16    7   12 ar
  17    8   31 1
  18    9   10 ar
  19    9   32 1
  20   10   11 ar
  21   10   19 1
  22   11   12 ar
  23   11   33 1
  24   12   18 1
  25   13   14 am
  26   13   34 1
  27   14   15 am
  28   14   20 2
  29   14   21 2
  30   15   23 1
  31   15   24 1
  32   17   27 1
  33   17   28 2
  34   22   35 1
  35   23   36 1
  36   23   37 1
  37   23   38 1
  38   24   25 1
  39   24   26 1
  40   24   39 1
  41   25   26 1
  42   25   40 1
  43   25   41 1
  44   26   42 1
  45   26   43 1
  46   27   44 1
  47   27   45 1
  48   27   46 1
  49   28   47 1
  50   28   48 1

#	End of record

