#	Name: ASD01810581
#	Creating user name:	WinNT
#	Creation time:	15. 06. 2019 19:24

#	Modifying user name:	WinNT
#	Modification time:	15. 06. 2019 19:24

#	Program:	/corina/corina34_cracker 3.40 0067  02.08.2006

@<TRIPOS>MOLECULE
ASD01810581
  54   59    0    0    0
SMALL
NO_CHARGES


@<TRIPOS>ATOM
   1 C1            -0.0167     1.3812     0.0096 C.ar    
   2 C2             0.0021    -0.0041     0.0020 C.ar    
   3 C3             1.1984    -0.6908    -0.0131 C.ar    
   4 C4             2.4015     0.0061    -0.0204 C.ar    
   5 C5             2.3789     1.4106    -0.0127 C.ar    
   6 C6             1.1664     2.0916     0.0022 C.ar    
   7 N7             3.6054    -0.6770    -0.0347 N.pl3   
   8 C8             4.7971    -0.0584    -0.0419 C.2     
   9 C9             4.9001     1.3105    -0.0359 C.2     
  10 C10            3.6673     2.1304    -0.0207 C.2     
  11 C11            5.9972     2.2731    -0.0405 C.2     
  12 N12            4.0322     3.3795    -0.0176 N.2     
  13 O13            7.1917     2.0231    -0.0523 O.2     
  14 C14            3.5780    -2.1417    -0.0418 C.3     
  15 C15            3.5559    -2.6369    -1.4650 C.ar    
  16 C16            4.7438    -2.8859    -2.1275 C.ar    
  17 C17            4.7267    -3.3393    -3.4320 C.ar    
  18 C18            3.5152    -3.5454    -4.0780 C.ar    
  19 C19            2.3241    -3.2949    -3.4100 C.ar    
  20 C20            2.3476    -2.8466    -2.1038 C.ar    
  21 N21            3.4946    -4.0051    -5.4021 N.pl3   
  22 C22            2.3898    -4.2461    -6.1438 C.2     
  23 C23            2.7967    -4.6751    -7.3610 C.2     
  24 C24            4.1957    -4.6974    -7.3645 C.2     
  25 N25            4.6148    -4.2904    -6.1934 N.2     
  26 N26            5.4244     3.4961    -0.0293 N.am    
  27 C27            6.3977     5.2061    -1.4498 C.ar    
  28 C28            5.4715     6.0084    -2.0895 C.ar    
  29 C29            5.6939     6.4186    -3.3907 C.ar    
  30 C30            6.8428     6.0268    -4.0521 C.ar    
  31 C31            7.7695     5.2252    -3.4121 C.ar    
  32 C32            7.5464     4.8139    -2.1113 C.ar    
  33 C33            6.1582     4.7641    -0.0291 C.3     
  34 H34           -0.9602     1.9068     0.0170 H       
  35 H35           -0.9288    -0.5516     0.0083 H       
  36 H36            1.2005    -1.7708    -0.0189 H       
  37 H37            1.1507     3.1714     0.0081 H       
  38 H38            5.6984    -0.6535    -0.0522 H       
  39 H39            4.4657    -2.5242     0.4622 H       
  40 H40            2.6861    -2.4910     0.4783 H       
  41 H41            5.6859    -2.7254    -1.6245 H       
  42 H42            5.6549    -3.5330    -3.9492 H       
  43 H43            1.3801    -3.4540    -3.9101 H       
  44 H44            1.4214    -2.6516    -1.5837 H       
  45 H45            1.3666    -4.1195    -5.8223 H       
  46 H46            2.1548    -4.9514    -8.1845 H       
  47 H47            4.8219    -4.9949    -8.1926 H       
  48 H48            4.5739     6.3145    -1.5728 H       
  49 H49            4.9699     7.0448    -3.8907 H       
  50 H50            7.0163     6.3466    -5.0689 H       
  51 H51            8.6668     4.9185    -3.9290 H       
  52 H52            8.2700     4.1870    -1.6115 H       
  53 H53            5.5743     5.5217     0.4936 H       
  54 H54            7.1148     4.6302     0.4759 H       
@<TRIPOS>BOND
   1    1    2 ar
   2    1    6 ar
   3    1   34 1
   4    2    3 ar
   5    2   35 1
   6    3    4 ar
   7    3   36 1
   8    4    5 ar
   9    4    7 1
  10    5    6 ar
  11    5   10 1
  12    6   37 1
  13    7    8 1
  14    7   14 1
  15    8    9 2
  16    8   38 1
  17    9   10 1
  18    9   11 1
  19   10   12 2
  20   11   13 2
  21   11   26 am
  22   12   26 1
  23   14   15 1
  24   14   39 1
  25   14   40 1
  26   15   16 ar
  27   15   20 ar
  28   16   17 ar
  29   16   41 1
  30   17   18 ar
  31   17   42 1
  32   18   19 ar
  33   18   21 1
  34   19   20 ar
  35   19   43 1
  36   20   44 1
  37   21   22 1
  38   21   25 1
  39   22   23 2
  40   22   45 1
  41   23   24 1
  42   23   46 1
  43   24   25 2
  44   24   47 1
  45   26   33 1
  46   27   28 ar
  47   27   32 ar
  48   27   33 1
  49   28   29 ar
  50   28   48 1
  51   29   30 ar
  52   29   49 1
  53   30   31 ar
  54   30   50 1
  55   31   32 ar
  56   31   51 1
  57   32   52 1
  58   33   53 1
  59   33   54 1

#	End of record

