#	Name: ASD01915414
#	Creating user name:	WinNT
#	Creation time:	15. 06. 2019 20:05

#	Modifying user name:	WinNT
#	Modification time:	15. 06. 2019 20:05

#	Program:	/corina/corina34_cracker 3.40 0067  02.08.2006

@<TRIPOS>MOLECULE
ASD01915414
  54   58    0    0    0
SMALL
NO_CHARGES


@<TRIPOS>ATOM
   1 C1             0.0429     1.2715    -0.5724 C.ar    
   2 C2             0.1069    -0.1232    -0.6540 C.ar    
   3 C3            -1.0437    -0.8633    -0.8115 C.ar    
   4 C4            -2.2806    -0.2270    -0.8907 C.ar    
   5 C5            -2.3540     1.1772    -0.8094 C.ar    
   6 C6            -1.1887     1.9204    -0.6444 C.ar    
   7 C7             1.2818     2.0578    -0.4034 C.2     
   8 N8             2.4593     1.4287    -0.2186 N.am    
   9 O9             1.2393     3.2726    -0.4310 O.2     
  10 C10            3.6414     2.1647    -0.1630 C.2     
  11 C11            3.7685     3.4970    -0.4001 C.2     
  12 C12            5.1250     3.8356    -0.2373 C.2     
  13 N13            5.7857     2.7434     0.0859 N.2     
  14 N14            4.8764     1.6798     0.1444 N.pl3   
  15 C15            5.1845     0.3489     0.4561 C.ar    
  16 C16            4.4143    -0.3456     1.3788 C.ar    
  17 C17            4.7205    -1.6577     1.6842 C.ar    
  18 C18            5.7929    -2.2798     1.0722 C.ar    
  19 C19            6.5631    -1.5913     0.1527 C.ar    
  20 C20            6.2586    -0.2805    -0.1620 C.ar    
  21 Cl21           7.2252     0.5833    -1.3165 Cl      
  22 C22            5.7096     5.1895    -0.4019 C.ar    
  23 C23            7.0753     5.3895    -0.2106 C.ar    
  24 C24            7.6137     6.6509    -0.3649 C.ar    
  25 C25            6.8002     7.7156    -0.7084 C.ar    
  26 C26            5.4438     7.5229    -0.8991 C.ar    
  27 C27            4.8959     6.2645    -0.7539 C.ar    
  28 C28           -3.5160    -1.0257    -1.0606 C.ar    
  29 C29           -3.5902    -1.9963    -2.0596 C.ar    
  30 C30           -4.7436    -2.7381    -2.2141 C.ar    
  31 C31           -5.8261    -2.5211    -1.3812 C.ar    
  32 C32           -5.7599    -1.5581    -0.3868 C.ar    
  33 C33           -4.6077    -0.8140    -0.2186 C.ar    
  34 F34           -6.8211    -1.3507     0.4232 F       
  35 C35           -3.6224     1.8369    -0.8903 C.1     
  36 N36           -4.6286     2.3602    -0.9544 N.1     
  37 H37            1.0629    -0.6219    -0.5936 H       
  38 H38           -0.9870    -1.9400    -0.8742 H       
  39 H39           -1.2378     2.9975    -0.5814 H       
  40 H40            2.4840     0.4636    -0.1244 H       
  41 H41            2.9710     4.1749    -0.6662 H       
  42 H42            3.5766     0.1394     1.8577 H       
  43 H43            4.1216    -2.1982     2.4022 H       
  44 H44            6.0299    -3.3056     1.3129 H       
  45 H45            7.4006    -2.0798    -0.3231 H       
  46 H46            7.7112     4.5590     0.0584 H       
  47 H47            8.6720     6.8070    -0.2169 H       
  48 H48            7.2256     8.7011    -0.8279 H       
  49 H49            4.8131     8.3578    -1.1666 H       
  50 H50            3.8367     6.1150    -0.9033 H       
  51 H51           -2.7462    -2.1669    -2.7115 H       
  52 H52           -4.8012    -3.4897    -2.9875 H       
  53 H53           -6.7266    -3.1040    -1.5065 H       
  54 H54           -4.5561    -0.0636     0.5564 H       
@<TRIPOS>BOND
   1    1    2 ar
   2    1    7 1
   3    1    6 ar
   4    2    3 ar
   5    2   37 1
   6    3    4 ar
   7    3   38 1
   8    4    5 ar
   9    4   28 1
  10    5    6 ar
  11    5   35 1
  12    6   39 1
  13    7    8 am
  14    7    9 2
  15    8   10 1
  16    8   40 1
  17   10   11 2
  18   10   14 1
  19   11   12 1
  20   11   41 1
  21   12   13 2
  22   12   22 1
  23   13   14 1
  24   14   15 1
  25   15   16 ar
  26   15   20 ar
  27   16   17 ar
  28   16   42 1
  29   17   18 ar
  30   17   43 1
  31   18   19 ar
  32   18   44 1
  33   19   20 ar
  34   19   45 1
  35   20   21 1
  36   22   23 ar
  37   22   27 ar
  38   23   24 ar
  39   23   46 1
  40   24   25 ar
  41   24   47 1
  42   25   26 ar
  43   25   48 1
  44   26   27 ar
  45   26   49 1
  46   27   50 1
  47   28   29 ar
  48   28   33 ar
  49   29   30 ar
  50   29   51 1
  51   30   31 ar
  52   30   52 1
  53   31   32 ar
  54   31   53 1
  55   32   33 ar
  56   32   34 1
  57   33   54 1
  58   35   36 3

#	End of record

