#	Name: ASD02039247
#	Creating user name:	WinNT
#	Creation time:	15. 06. 2019 20:17

#	Modifying user name:	WinNT
#	Modification time:	15. 06. 2019 20:17

#	Program:	/corina/corina34_cracker 3.40 0067  02.08.2006

@<TRIPOS>MOLECULE
ASD02039247
  44   47    0    0    0
SMALL
NO_CHARGES


@<TRIPOS>ATOM
   1 N1            -0.0164     1.3039    -0.0294 N.2     
   2 C2             0.0018    -0.0038    -0.0019 C.2     
   3 C3             1.3717    -0.3807     0.0158 C.2     
   4 C4             2.0345     0.7976    -0.0041 C.2     
   5 O5             1.1027     1.7617    -0.0309 O.3     
   6 N6            -1.0991    -0.8547     0.0084 N.pl3   
   7 C7            -0.9158    -2.2379    -0.1060 C.ar    
   8 C8            -1.7560    -3.1088     0.5753 C.ar    
   9 C9            -1.5748    -4.4730     0.4615 C.ar    
  10 C10           -0.5539    -4.9736    -0.3330 C.ar    
  11 C11            0.2861    -4.1045    -1.0135 C.ar    
  12 C12            0.1027    -2.7400    -0.9054 C.ar    
  13 O13            4.0112     1.0228    -1.3422 O.3     
  14 C14            5.3493     1.1912    -1.5143 C.ar    
  15 C15            6.1797     1.3223    -0.4040 C.ar    
  16 C16            7.5378     1.4932    -0.5593 C.ar    
  17 C17            8.0913     1.5361    -1.8343 C.ar    
  18 C18            7.2556     1.4040    -2.9595 C.ar    
  19 C19            5.8790     1.2257    -2.7888 C.ar    
  20 C20            3.5291     0.9901     0.0026 C.3     
  21 O21           -0.3762    -6.3172    -0.4445 O.3     
  22 C22            0.6945    -6.7629    -1.2794 C.3     
  23 F23            0.4916    -6.3010    -2.5843 F       
  24 F24            1.9062    -6.2627    -0.7908 F       
  25 N25            9.4494     1.7076    -2.0109 N.am    
  26 C26            9.9867     1.7503    -3.2425 C.2     
  27 C27            9.1924     1.6232    -4.4020 C.2     
  28 C28            7.8516     1.4520    -4.2960 C.2     
  29 O29           11.1903     1.9031    -3.3606 O.2     
  30 H30            1.7872    -1.3773     0.0396 H       
  31 H31           -1.9936    -0.4895     0.0948 H       
  32 H32           -2.5507    -2.7192     1.1942 H       
  33 H33           -2.2279    -5.1504     0.9916 H       
  34 H34            1.0811    -4.4950    -1.6314 H       
  35 H35            0.7568    -2.0634    -1.4353 H       
  36 H36            5.7547     1.2900     0.5883 H       
  37 H37            8.1723     1.5941     0.3088 H       
  38 H38            5.2335     1.1235    -3.6486 H       
  39 H39            3.7722     1.9297     0.4987 H       
  40 H40            3.9993     0.1648     0.5372 H       
  41 H41            0.7251    -7.8525    -1.2803 H       
  42 H42           10.0244     1.7989    -1.2351 H       
  43 H43            9.6544     1.6621    -5.3775 H       
  44 H44            7.2365     1.3532    -5.1782 H       
@<TRIPOS>BOND
   1    1    2 2
   2    1    5 1
   3    2    3 1
   4    2    6 1
   5    3    4 2
   6    3   30 1
   7    4    5 1
   8    4   20 1
   9    6    7 1
  10    6   31 1
  11    7    8 ar
  12    7   12 ar
  13    8    9 ar
  14    8   32 1
  15    9   10 ar
  16    9   33 1
  17   10   11 ar
  18   10   21 1
  19   11   12 ar
  20   11   34 1
  21   12   35 1
  22   13   14 1
  23   13   20 1
  24   14   15 ar
  25   14   19 ar
  26   15   16 ar
  27   15   36 1
  28   16   17 ar
  29   16   37 1
  30   17   18 ar
  31   17   25 1
  32   18   19 ar
  33   18   28 1
  34   19   38 1
  35   20   39 1
  36   20   40 1
  37   21   22 1
  38   22   23 1
  39   22   24 1
  40   22   41 1
  41   25   26 am
  42   25   42 1
  43   26   27 1
  44   26   29 2
  45   27   28 2
  46   27   43 1
  47   28   44 1

#	End of record

