#	Name: ASD01900990
#	Creating user name:	WinNT
#	Creation time:	15. 06. 2019 19:52

#	Modifying user name:	WinNT
#	Modification time:	15. 06. 2019 19:52

#	Program:	/corina/corina34_cracker 3.40 0067  02.08.2006

@<TRIPOS>MOLECULE
ASD01900990
  57   61    0    0    0
SMALL
NO_CHARGES


@<TRIPOS>ATOM
   1 C1             3.6973     0.5798     0.9746 C.ar    
   2 C2             4.3508    -0.6335     0.9247 C.ar    
   3 C3             5.6889    -0.6973     0.5639 C.ar    
   4 C4             6.3895     0.4545     0.2563 C.ar    
   5 C5             5.7491     1.6805     0.3075 C.ar    
   6 C6             4.3889     1.7471     0.6587 C.ar    
   7 N7             6.4164     2.8674     0.0259 N.pl3   
   8 C8             5.6526     3.9976    -0.5145 C.3     
   9 N9             4.3839     4.1406     0.2005 N.am    
  10 C10            3.7343     3.0663     0.6913 C.2     
  11 C11            3.8350     5.4166     0.3789 C.ar    
  12 C12            4.3446     6.2615     1.3560 C.ar    
  13 C13            3.8028     7.5195     1.5314 C.ar    
  14 C14            2.7495     7.9391     0.7321 C.ar    
  15 C15            2.2399     7.0955    -0.2442 C.ar    
  16 C16            2.7847     5.8396    -0.4249 C.ar    
  17 O17            2.6169     3.1850     1.1568 O.2     
  18 O18            2.2160     9.1776     0.9060 O.3     
  19 C19            6.4722     5.2820    -0.3586 C.3     
  20 C20            5.3765     3.7570    -2.0013 C.3     
  21 C21            4.6397     4.9673    -2.5797 C.3     
  22 N22            5.4609     6.1719    -2.4043 N.3     
  23 C23            5.7028     6.4487    -0.9827 C.3     
  24 C24            4.8468     7.3291    -3.0689 C.3     
  25 C25            5.6609     8.5642    -2.7810 C.ar    
  26 C26            1.1430     9.5494     0.0385 C.3     
  27 C27            6.7099     8.9319    -3.6097 C.ar    
  28 C28            7.4340    10.0714    -3.3143 C.ar    
  29 N29            7.1373    10.8045    -2.2591 N.ar    
  30 C30            6.1468    10.4851    -1.4492 C.ar    
  31 C31            5.3752     9.3629    -1.6843 C.ar    
  32 F32            0.0630     8.6821     0.2345 F       
  33 F33            0.7459    10.8603     0.3233 F       
  34 F34            1.5696     9.4699    -1.2915 F       
  35 Br35           6.5620    -2.3732     0.4927 Br      
  36 H36            2.6547     0.6243     1.2527 H       
  37 H37            3.8173    -1.5403     1.1685 H       
  38 H38            7.4314     0.3978    -0.0221 H       
  39 H39            7.3701     2.9469     0.1843 H       
  40 H40            5.1641     5.9348     1.9788 H       
  41 H41            4.1990     8.1768     2.2913 H       
  42 H42            1.4196     7.4228    -0.8659 H       
  43 H43            2.3908     5.1846    -1.1880 H       
  44 H44            6.6397     5.4810     0.6999 H       
  45 H45            7.4308     5.1660    -0.8643 H       
  46 H46            6.3201     3.6189    -2.5292 H       
  47 H47            4.7598     2.8658    -2.1175 H       
  48 H48            4.4539     4.8060    -3.6416 H       
  49 H49            3.6900     5.0965    -2.0606 H       
  50 H50            4.7493     6.5711    -0.4690 H       
  51 H51            6.2879     7.3632    -0.8851 H       
  52 H52            4.8165     7.1565    -4.1447 H       
  53 H53            3.8325     7.4671    -2.6944 H       
  54 H54            6.9582     8.3352    -4.4750 H       
  55 H55            8.2526    10.3646    -3.9549 H       
  56 H56            5.9337    11.1099    -0.5944 H       
  57 H57            4.5624     9.1091    -1.0199 H       
@<TRIPOS>BOND
   1    1    2 ar
   2    1    6 ar
   3    1   36 1
   4    2    3 ar
   5    2   37 1
   6    3    4 ar
   7    3   35 1
   8    4    5 ar
   9    4   38 1
  10    5    7 1
  11    5    6 ar
  12    6   10 1
  13    7    8 1
  14    7   39 1
  15    8    9 1
  16    8   20 1
  17    8   19 1
  18    9   10 am
  19    9   11 1
  20   10   17 2
  21   11   12 ar
  22   11   16 ar
  23   12   13 ar
  24   12   40 1
  25   13   14 ar
  26   13   41 1
  27   14   15 ar
  28   14   18 1
  29   15   16 ar
  30   15   42 1
  31   16   43 1
  32   18   26 1
  33   19   23 1
  34   19   44 1
  35   19   45 1
  36   20   21 1
  37   20   46 1
  38   20   47 1
  39   21   22 1
  40   21   48 1
  41   21   49 1
  42   22   23 1
  43   22   24 1
  44   23   50 1
  45   23   51 1
  46   24   25 1
  47   24   52 1
  48   24   53 1
  49   25   27 ar
  50   25   31 ar
  51   26   32 1
  52   26   33 1
  53   26   34 1
  54   27   28 ar
  55   27   54 1
  56   28   29 ar
  57   28   55 1
  58   29   30 ar
  59   30   31 ar
  60   30   56 1
  61   31   57 1

#	End of record

