#	Name: ASD01810214
#	Creating user name:	WinNT
#	Creation time:	15. 06. 2019 19:24

#	Modifying user name:	WinNT
#	Modification time:	15. 06. 2019 19:24

#	Program:	/corina/corina34_cracker 3.40 0067  02.08.2006

@<TRIPOS>MOLECULE
ASD01810214
  46   49    0    0    0
SMALL
NO_CHARGES


@<TRIPOS>ATOM
   1 C1            -0.0167     1.3832     0.0096 C.ar    
   2 C2             0.0021    -0.0041     0.0020 C.ar    
   3 C3             1.1959    -0.6919    -0.0130 C.ar    
   4 C4             2.4007     0.0059    -0.0207 C.ar    
   5 C5             2.3789     1.4111    -0.0130 C.ar    
   6 C6             1.1632     2.0941     0.0022 C.ar    
   7 N7             3.6013    -0.6705    -0.0353 N.pl3   
   8 C8             4.7860    -0.0462    -0.0428 C.2     
   9 C9             4.8924     1.3300    -0.0360 C.2     
  10 C10            3.6622     2.1381    -0.0214 C.2     
  11 O11            3.7023     3.3559    -0.0152 O.2     
  12 C12            6.2117     1.9776    -0.0437 C.2     
  13 O13            6.3025     3.3226    -0.0369 O.3     
  14 O14            7.2212     1.3003    -0.0561 O.2     
  15 C15            3.5807    -2.1353    -0.0424 C.3     
  16 C16            3.5604    -2.6305    -1.4656 C.ar    
  17 C17            4.7358    -2.6769    -2.1972 C.ar    
  18 C18            4.7215    -3.1310    -3.5031 C.ar    
  19 C19            3.5227    -3.5416    -4.0813 C.ar    
  20 C20            2.3438    -3.4923    -3.3396 C.ar    
  21 C21            2.3693    -3.0424    -2.0351 C.ar    
  22 C22            3.5007    -4.0295    -5.4824 C.ar    
  23 C23            2.3072    -4.4451    -6.0778 C.ar    
  24 N24            2.3292    -4.8726    -7.3281 N.ar    
  25 C25            3.4608    -4.9098    -8.0136 C.ar    
  26 N26            4.6116    -4.5248    -7.4850 N.ar    
  27 C27            4.6720    -4.0796    -6.2422 C.ar    
  28 O28            3.4408    -5.3552    -9.2925 O.3     
  29 C29            4.6870    -5.3769    -9.9916 C.3     
  30 F30            5.8972    -2.2777    -1.6343 F       
  31 H31           -0.9606     1.9081     0.0170 H       
  32 H32           -0.9293    -0.5508     0.0083 H       
  33 H33            1.1970    -1.7719    -0.0185 H       
  34 H34            1.1468     3.1740     0.0078 H       
  35 H35            5.6885    -0.6393    -0.0542 H       
  36 H36            7.1917     3.7026    -0.0424 H       
  37 H37            4.4703    -2.5136     0.4612 H       
  38 H38            2.6906    -2.4887     0.4779 H       
  39 H39            5.6378    -3.1670    -4.0736 H       
  40 H40            1.4119    -3.8097    -3.7838 H       
  41 H41            1.4558    -3.0045    -1.4603 H       
  42 H42            1.3802    -4.4178    -5.5244 H       
  43 H43            5.6144    -3.7667    -5.8175 H       
  44 H44            5.3870    -6.0266    -9.4662 H       
  45 H45            4.5301    -5.7537   -11.0023 H       
  46 H46            5.0944    -4.3670   -10.0394 H       
@<TRIPOS>BOND
   1    1    2 ar
   2    1    6 ar
   3    1   31 1
   4    2    3 ar
   5    2   32 1
   6    3    4 ar
   7    3   33 1
   8    4    5 ar
   9    4    7 1
  10    5    6 ar
  11    5   10 1
  12    6   34 1
  13    7    8 1
  14    7   15 1
  15    8    9 2
  16    8   35 1
  17    9   10 1
  18    9   12 1
  19   10   11 2
  20   12   13 1
  21   12   14 2
  22   13   36 1
  23   15   16 1
  24   15   37 1
  25   15   38 1
  26   16   17 ar
  27   16   21 ar
  28   17   18 ar
  29   17   30 1
  30   18   19 ar
  31   18   39 1
  32   19   20 ar
  33   19   22 1
  34   20   21 ar
  35   20   40 1
  36   21   41 1
  37   22   23 ar
  38   22   27 ar
  39   23   24 ar
  40   23   42 1
  41   24   25 ar
  42   25   26 ar
  43   25   28 1
  44   26   27 ar
  45   27   43 1
  46   28   29 1
  47   29   44 1
  48   29   45 1
  49   29   46 1

#	End of record

