#	Name: ASD01886078
#	Creating user name:	WinNT
#	Creation time:	15. 06. 2019 19:50

#	Modifying user name:	WinNT
#	Modification time:	15. 06. 2019 19:50

#	Program:	/corina/corina34_cracker 3.40 0067  02.08.2006

@<TRIPOS>MOLECULE
ASD01886078
  47   50    0    0    0
SMALL
NO_CHARGES


@<TRIPOS>ATOM
   1 C1            -0.0171     1.4133     0.0098 C.ar    
   2 C2             0.0021    -0.0041     0.0020 C.ar    
   3 C3            -1.2278    -0.7095     0.0099 C.ar    
   4 C4            -2.4019     0.0314     0.0251 C.ar    
   5 C5            -2.3350     1.4286     0.0320 C.ar    
   6 N6            -1.1795     2.0667     0.0299 N.ar    
   7 C7             1.2050     2.1127     0.0019 C.ar    
   8 C8             2.3774     1.4227    -0.0130 C.ar    
   9 C9             2.3912     0.0292    -0.0210 C.ar    
  10 C10            1.2285    -0.6812    -0.0128 C.ar    
  11 C11            3.6818     2.1773    -0.0214 C.3     
  12 N12            4.1189     2.4150     1.3608 N.3     
  13 C13           -3.5936     2.2125     0.0477 C.2     
  14 N14           -3.5486     3.5595     0.0546 N.am    
  15 O15           -4.6655     1.6405     0.0544 O.2     
  16 C16           -1.2590    -2.1900     0.0017 C.2     
  17 C17           -0.5540    -3.0344    -0.8807 C.2     
  18 N18           -0.8391    -4.2710    -0.5722 N.2     
  19 N19           -1.7287    -4.2677     0.5087 N.pl3   
  20 C20           -1.9719    -2.9884     0.8520 C.2     
  21 C21            5.4937     2.9345     1.3967 C.3     
  22 C22            5.8865     3.2238     2.8478 C.3     
  23 O23            5.7378     2.0315     3.6235 O.3     
  24 C24            4.4108     1.4985     3.6113 C.3     
  25 C25            4.0030     1.1917     2.1679 C.3     
  26 C26            7.3432     3.6888     2.8998 C.3     
  27 F27            7.4888     4.8524     2.1369 F       
  28 F28            7.7014     3.9530     4.2262 F       
  29 F29            8.1714     2.6862     2.3840 F       
  30 H30           -3.3599    -0.4674     0.0311 H       
  31 H31            1.2117     3.1926     0.0072 H       
  32 H32            3.3357    -0.4944    -0.0335 H       
  33 H33            1.2523    -1.7609    -0.0189 H       
  34 H34            4.4370     1.5916    -0.5455 H       
  35 H35            3.5459     3.1323    -0.5288 H       
  36 H36           -2.6928     4.0161     0.0492 H       
  37 H37           -4.3719     4.0722     0.0649 H       
  38 H38            0.1061    -2.7143    -1.6734 H       
  39 H39           -2.1028    -5.0524     0.9391 H       
  40 H40           -2.6179    -2.6539     1.6502 H       
  41 H41            6.1738     2.1936     0.9763 H       
  42 H42            5.5507     3.8539     0.8140 H       
  43 H43            5.2403     4.0034     3.2513 H       
  44 H44            4.3813     0.5819     4.2005 H       
  45 H45            3.7217     2.2279     4.0370 H       
  46 H46            2.9719     0.8389     2.1481 H       
  47 H47            4.6593     0.4230     1.7598 H       
@<TRIPOS>BOND
   1    1    2 ar
   2    1    7 ar
   3    1    6 ar
   4    2    3 ar
   5    2   10 ar
   6    3    4 ar
   7    3   16 1
   8    4    5 ar
   9    4   30 1
  10    5    6 ar
  11    5   13 1
  12    7    8 ar
  13    7   31 1
  14    8    9 ar
  15    8   11 1
  16    9   10 ar
  17    9   32 1
  18   10   33 1
  19   11   12 1
  20   11   34 1
  21   11   35 1
  22   12   21 1
  23   12   25 1
  24   13   14 am
  25   13   15 2
  26   14   36 1
  27   14   37 1
  28   16   17 1
  29   16   20 2
  30   17   18 2
  31   17   38 1
  32   18   19 1
  33   19   20 1
  34   19   39 1
  35   20   40 1
  36   21   22 1
  37   21   41 1
  38   21   42 1
  39   22   23 1
  40   22   26 1
  41   22   43 1
  42   23   24 1
  43   24   25 1
  44   24   44 1
  45   24   45 1
  46   25   46 1
  47   25   47 1
  48   26   27 1
  49   26   28 1
  50   26   29 1

#	End of record

