#	Name: ASD01811961
#	Creating user name:	WinNT
#	Creation time:	15. 06. 2019 19:27

#	Modifying user name:	WinNT
#	Modification time:	15. 06. 2019 19:27

#	Program:	/corina/corina34_cracker 3.40 0067  02.08.2006

@<TRIPOS>MOLECULE
ASD01811961
  41   44    0    0    0
SMALL
NO_CHARGES


@<TRIPOS>ATOM
   1 C1            -0.0167     1.3772     0.0096 C.ar    
   2 C2             0.0021    -0.0041     0.0020 C.ar    
   3 C3             1.2094    -0.6807    -0.0131 C.ar    
   4 C4             2.4033     0.0124    -0.0204 C.ar    
   5 C5             1.1795     2.0826     0.0020 C.ar    
   6 C6             1.5047     3.5308     0.0067 C.2     
   7 C7             2.4033     1.4029    -0.0129 C.ar    
   8 N8             3.4441     2.3258    -0.0175 N.am    
   9 C9             2.9838     3.5883    -0.0072 C.2     
  10 C10            4.8643     1.9664    -0.0315 C.3     
  11 C11            5.3390     1.8500    -1.4570 C.ar    
  12 C12            5.4519     0.6039    -2.0463 C.ar    
  13 C13            5.6554     2.9917    -2.1747 C.ar    
  14 C14            6.0909     2.8889    -3.4831 C.ar    
  15 C15            6.2110     1.6354    -4.0773 C.ar    
  16 C16            5.8861     0.4913    -3.3515 C.ar    
  17 C17            6.6776     1.5187    -5.4820 C.2     
  18 C18            0.6445     4.5639     0.0200 C.2     
  19 O19            3.6617     4.5982    -0.0086 O.2     
  20 C20            6.8350     0.3605    -6.1857 C.2     
  21 C21            7.0325     2.5840    -6.3323 C.2     
  22 N22            7.3889     2.0819    -7.4849 N.2     
  23 N23            7.2736     0.6882    -7.4178 N.pl3   
  24 F24            5.5380     4.2068    -1.5960 F       
  25 C25            7.5742    -0.2517    -8.5006 C.3     
  26 H26           -0.9580     1.9065     0.0169 H       
  27 H27           -0.9260    -0.5564     0.0083 H       
  28 H28            1.2175    -1.7606    -0.0190 H       
  29 H29            3.3392    -0.5265    -0.0315 H       
  30 H30            5.4393     2.7376     0.4811 H       
  31 H31            5.0026     1.0121     0.4767 H       
  32 H32            5.2001    -0.2830    -1.4838 H       
  33 H33            6.3370     3.7791    -4.0430 H       
  34 H34            5.9740    -0.4827    -3.8098 H       
  35 H35           -0.4197     4.3803     0.0288 H       
  36 H36            1.0177     5.5773     0.0220 H       
  37 H37            6.6435    -0.6380    -5.8215 H       
  38 H38            7.0129     3.6331    -6.0765 H       
  39 H39            6.6772    -0.4176    -9.0972 H       
  40 H40            8.3598     0.1619    -9.1330 H       
  41 H41            7.9093    -1.1986    -8.0773 H       
@<TRIPOS>BOND
   1    1    2 ar
   2    1    5 ar
   3    1   26 1
   4    2    3 ar
   5    2   27 1
   6    3    4 ar
   7    3   28 1
   8    4    7 ar
   9    4   29 1
  10    5    7 ar
  11    5    6 1
  12    6    9 1
  13    6   18 2
  14    7    8 1
  15    8    9 am
  16    8   10 1
  17    9   19 2
  18   10   11 1
  19   10   30 1
  20   10   31 1
  21   11   13 ar
  22   11   12 ar
  23   12   16 ar
  24   12   32 1
  25   13   14 ar
  26   13   24 1
  27   14   15 ar
  28   14   33 1
  29   15   16 ar
  30   15   17 1
  31   16   34 1
  32   17   21 1
  33   17   20 2
  34   18   35 1
  35   18   36 1
  36   20   23 1
  37   20   37 1
  38   21   22 2
  39   21   38 1
  40   22   23 1
  41   23   25 1
  42   25   39 1
  43   25   40 1
  44   25   41 1

#	End of record

