#	Name: ASD04882067
#	Creating user name:	WinNT
#	Creation time:	15. 06. 2019 20:54

#	Modifying user name:	WinNT
#	Modification time:	15. 06. 2019 20:54

#	Program:	/corina/corina34_cracker 3.40 0067  02.08.2006

@<TRIPOS>MOLECULE
ASD04882067
  70   73    0    0    0
SMALL
NO_CHARGES


@<TRIPOS>ATOM
   1 N1            -0.1249     1.5381    -0.0422 N.am    
   2 C2            -0.0616     0.1386    -0.0427 C.ar    
   3 C3            -1.2356    -0.6147     0.0449 C.ar    
   4 C4            -1.1743    -2.0035     0.0444 C.ar    
   5 C5             0.0428    -2.6421    -0.0429 C.ar    
   6 C6             1.2206    -1.8949    -0.1313 C.ar    
   7 C7             1.1614    -0.4984    -0.1358 C.ar    
   8 N8            -2.4684     0.0268     0.1333 N.3     
   9 C9            -2.5904     0.7604     1.4002 C.3     
  10 N10           -5.0047     0.7070     1.0659 N.am    
  11 C11           -3.8755     1.5950     1.3816 C.3     
  12 C12            0.8586     2.2569     0.5345 C.2     
  13 O13            1.7479     1.6921     1.1441 O.2     
  14 C14            0.8572     3.7193     0.4275 C.2     
  15 C15            2.5243    -2.5792    -0.2242 C.2     
  16 N16            2.5800    -3.9259    -0.2239 N.am    
  17 O17            3.5485    -1.9284    -0.3011 O.2     
  18 C18           -6.1086     0.6902     1.8389 C.2     
  19 O19           -7.1319    -0.1297     1.5334 O.3     
  20 C20            1.7881     4.5638     0.9614 C.2     
  21 C21            3.8746    -4.6054    -0.3162 C.3     
  22 C22            3.6582    -6.1199    -0.2955 C.3     
  23 C23            5.0102    -6.8296    -0.3919 C.3     
  24 N24            4.8030    -8.2798    -0.3721 N.am    
  25 C25            4.6154    -9.0342    -1.4687 C.2     
  26 C26            4.7798    -9.0964     0.8471 C.3     
  27 C27            4.1148   -10.4293     0.4378 C.3     
  28 C28            4.4249   -10.4830    -1.0772 C.3     
  29 O29            4.6003    -8.6143    -2.6064 O.2     
  30 C30            1.3964     5.8666     0.6157 C.2     
  31 C31            0.2581     5.7616    -0.1048 C.2     
  32 O32           -0.0607     4.4659    -0.2207 O.3     
  33 C33           -4.8973    -0.1621    -0.1158 C.3     
  34 C34           -3.5720    -0.9274    -0.0383 C.3     
  35 O35           -6.1804     1.4150     2.8115 O.2     
  36 C36           -8.2888    -0.0949     2.4101 C.3     
  37 C37           -9.3401    -1.0862     1.9069 C.3     
  38 H38           -0.8745     1.9899    -0.4603 H       
  39 H39           -2.0831    -2.5830     0.1130 H       
  40 H40            0.0871    -3.7212    -0.0427 H       
  41 H41            2.0699     0.0815    -0.2043 H       
  42 H42           -2.6284     0.0526     2.2282 H       
  43 H43           -1.7307     1.4191     1.5233 H       
  44 H44           -4.0304     2.0507     2.3596 H       
  45 H45           -3.7967     2.3717     0.6210 H       
  46 H46            1.7630    -4.4451    -0.1626 H       
  47 H47            2.6572     4.2836     1.5382 H       
  48 H48            4.3685    -4.3216    -1.2456 H       
  49 H49            4.4981    -4.3159     0.5297 H       
  50 H50            3.1643    -6.4037     0.6338 H       
  51 H51            3.0347    -6.4094    -1.1414 H       
  52 H52            5.5041    -6.5458    -1.3213 H       
  53 H53            5.6336    -6.5401     0.4540 H       
  54 H54            5.7952    -9.2745     1.2011 H       
  55 H55            4.1911    -8.6029     1.6204 H       
  56 H56            4.5734   -11.2700     0.9583 H       
  57 H57            3.0401   -10.4004     0.6177 H       
  58 H58            3.5879   -10.9188    -1.6227 H       
  59 H59            5.3375   -11.0504    -1.2599 H       
  60 H60            1.9085     6.7810     0.8766 H       
  61 H61           -0.3005     6.5865    -0.5220 H       
  62 H62           -5.7277    -0.8681    -0.1278 H       
  63 H63           -4.9167     0.4458    -1.0204 H       
  64 H64           -3.4241    -1.4929    -0.9583 H       
  65 H65           -3.5962    -1.6118     0.8098 H       
  66 H66           -7.9868    -0.3677     3.4213 H       
  67 H67           -8.7105     0.9102     2.4156 H       
  68 H68          -10.2085    -1.0601     2.5651 H       
  69 H69           -9.6421    -0.8134     0.8958 H       
  70 H70           -8.9184    -2.0913     1.9015 H       
@<TRIPOS>BOND
   1    1    2 1
   2    1   12 am
   3    1   38 1
   4    2    3 ar
   5    2    7 ar
   6    3    4 ar
   7    3    8 1
   8    4    5 ar
   9    4   39 1
  10    5    6 ar
  11    5   40 1
  12    6    7 ar
  13    6   15 1
  14    7   41 1
  15    8    9 1
  16    8   34 1
  17    9   11 1
  18    9   42 1
  19    9   43 1
  20   10   11 1
  21   10   18 am
  22   10   33 1
  23   11   44 1
  24   11   45 1
  25   12   13 2
  26   12   14 1
  27   14   20 2
  28   14   32 1
  29   15   16 am
  30   15   17 2
  31   16   21 1
  32   16   46 1
  33   18   19 1
  34   18   35 2
  35   19   36 1
  36   20   30 1
  37   20   47 1
  38   21   22 1
  39   21   48 1
  40   21   49 1
  41   22   23 1
  42   22   50 1
  43   22   51 1
  44   23   24 1
  45   23   52 1
  46   23   53 1
  47   24   25 am
  48   24   26 1
  49   25   29 2
  50   25   28 1
  51   26   27 1
  52   26   54 1
  53   26   55 1
  54   27   28 1
  55   27   56 1
  56   27   57 1
  57   28   58 1
  58   28   59 1
  59   30   31 2
  60   30   60 1
  61   31   32 1
  62   31   61 1
  63   33   34 1
  64   33   62 1
  65   33   63 1
  66   34   64 1
  67   34   65 1
  68   36   37 1
  69   36   66 1
  70   36   67 1
  71   37   68 1
  72   37   69 1
  73   37   70 1

#	End of record

