#	Name: ASD00069373
#	Creating user name:	WinNT
#	Creation time:	15. 06. 2019 18:29

#	Modifying user name:	WinNT
#	Modification time:	15. 06. 2019 18:29

#	Program:	/corina/corina34_cracker 3.40 0067  02.08.2006

@<TRIPOS>MOLECULE
ASD00069373
  90   95    0    0    0
SMALL
NO_CHARGES


@<TRIPOS>ATOM
   1 C1             0.0020     1.4283     0.0193 C.2     
   2 C2             0.0069     0.0508     0.0382 C.2     
   3 N3             1.2932     1.8249    -0.0072 N.pl3   
   4 C4             2.0681     0.6982    -0.0043 C.2     
   5 N5             1.2834    -0.3550     0.0230 N.2     
   6 C6            -1.1878    -0.8262     0.0701 C.ar    
   7 N7            -2.4129    -0.2998     0.0832 N.ar    
   8 C8            -1.0466    -2.2126     0.0811 C.ar    
   9 C9            -2.1988    -2.9954     0.1114 C.ar    
  10 N10           -3.3873    -2.3980     0.1286 N.ar    
  11 C11           -3.4841    -1.0770     0.1118 C.ar    
  12 C12            3.5422     0.6701    -0.0283 C.2     
  13 N13            4.1939    -0.5097    -0.0226 N.am    
  14 O14            4.1700     1.7114    -0.0533 O.2     
  15 C15            5.5861    -0.5411    -0.1679 C.ar    
  16 C16            6.3349    -1.5182     0.4855 C.ar    
  17 C17            6.2233     0.3966    -0.9670 C.ar    
  18 C18            7.5979     0.3635    -1.1088 C.ar    
  19 C19            8.3406    -0.6025    -0.4558 C.ar    
  20 C20            7.7118    -1.5443     0.3381 C.ar    
  21 O21            5.7154    -2.4432     1.2661 O.3     
  22 C22            6.5337    -3.4720     1.8265 C.3     
  23 C23            5.8650    -4.0282     3.0867 C.3     
  24 N24           -2.1080    -4.3784     0.1228 N.3     
  25 C25           -1.2871    -4.8425     1.2485 C.3     
  26 C26           -1.5898    -4.8823    -1.1554 C.3     
  27 C27           -1.6400    -6.4119    -1.1602 C.3     
  28 C28           -0.7980    -6.9489     0.0005 C.3     
  29 C29           -1.3282    -6.3709     1.3155 C.3     
  30 C30           -0.4684    -6.8477     2.4576 C.2     
  31 N31           -0.3499    -8.1669     2.7067 N.am    
  32 O32            0.1169    -6.0444     3.1526 O.2     
  33 C33            0.4859    -8.6305     3.8170 C.3     
  34 C34           -0.0020   -10.0034     4.2841 C.3     
  35 C35            1.9394    -8.7372     3.3513 C.3     
  36 C36            2.8123    -9.2213     4.5108 C.3     
  37 C37            2.3244   -10.5942     4.9778 C.3     
  38 C38            0.8709   -10.4875     5.4436 C.3     
  39 C39            6.7043    -4.6021     0.8076 C.3     
  40 C40            7.5303    -5.7275     1.4347 C.3     
  41 N41            6.8483    -6.2260     2.6359 N.3     
  42 C42            6.7154    -5.1702     3.6478 C.3     
  43 C43           -2.4462    -4.3406    -2.3018 C.3     
  44 N44           -4.7389    -0.4935     0.1307 N.pl3   
  45 C45           -4.8686     0.9657     0.1127 C.3     
  46 H46           -0.8677     2.0685     0.0206 H       
  47 H47            1.6121     2.7408    -0.0255 H       
  48 H48           -0.0679    -2.6690     0.0662 H       
  49 H49            3.6984    -1.3370     0.0821 H       
  50 H50            5.6456     1.1522    -1.4786 H       
  51 H51            8.0930     1.0939    -1.7316 H       
  52 H52            9.4143    -0.6245    -0.5695 H       
  53 H53            8.2951    -2.2973     0.8471 H       
  54 H54            7.5102    -3.0613     2.0833 H       
  55 H55            5.7796    -3.2378     3.8324 H       
  56 H56            4.8723    -4.4025     2.8369 H       
  57 H57           -0.2578    -4.5127     1.1077 H       
  58 H58           -1.6774    -4.4276     2.1779 H       
  59 H59           -0.5591    -4.5523    -1.2850 H       
  60 H60           -2.6721    -6.7425    -1.0446 H       
  61 H61           -1.2408    -6.7861    -2.1030 H       
  62 H62           -0.8659    -8.0365     0.0271 H       
  63 H63            0.2417    -6.6511    -0.1354 H       
  64 H64           -2.3555    -6.7009     1.4701 H       
  65 H65           -0.8180    -8.8095     2.1509 H       
  66 H66            0.4199    -7.9214     4.6422 H       
  67 H67           -1.0375    -9.9274     4.6159 H       
  68 H68            0.0640   -10.7125     3.4589 H       
  69 H69            2.0054    -9.4463     2.5261 H       
  70 H70            2.2870    -7.7591     3.0185 H       
  71 H71            3.8478    -9.2973     4.1790 H       
  72 H72            2.7463    -8.5122     5.3360 H       
  73 H73            2.3904   -11.3033     4.1527 H       
  74 H74            2.9463   -10.9391     5.8039 H       
  75 H75            0.8049    -9.7784     6.2688 H       
  76 H76            0.5233   -11.4656     5.7763 H       
  77 H77            5.7247    -4.9854     0.5219 H       
  78 H78            7.2185    -4.2217    -0.0751 H       
  79 H79            7.6415    -6.5399     0.7166 H       
  80 H80            8.5146    -5.3469     1.7076 H       
  81 H81            5.9488    -6.6198     2.4038 H       
  82 H82            7.7034    -4.7922     3.9102 H       
  83 H83            6.2347    -5.5779     4.5371 H       
  84 H84           -2.4099    -3.2512    -2.2990 H       
  85 H85           -2.0618    -4.7146    -3.2507 H       
  86 H86           -3.4771    -4.6701    -2.1722 H       
  87 H87           -5.5325    -1.0506     0.1560 H       
  88 H88           -5.9242     1.2369     0.1317 H       
  89 H89           -4.3697     1.3856     0.9861 H       
  90 H90           -4.4084     1.3601    -0.7933 H       
@<TRIPOS>BOND
   1    1    2 2
   2    1    3 1
   3    1   46 1
   4    2    6 1
   5    2    5 1
   6    3    4 1
   7    3   47 1
   8    4    5 2
   9    4   12 1
  10    6    7 ar
  11    6    8 ar
  12    7   11 ar
  13    8    9 ar
  14    8   48 1
  15    9   10 ar
  16    9   24 1
  17   10   11 ar
  18   11   44 1
  19   12   13 am
  20   12   14 2
  21   13   15 1
  22   13   49 1
  23   15   16 ar
  24   15   17 ar
  25   16   21 1
  26   16   20 ar
  27   17   18 ar
  28   17   50 1
  29   18   19 ar
  30   18   51 1
  31   19   20 ar
  32   19   52 1
  33   20   53 1
  34   21   22 1
  35   22   23 1
  36   22   39 1
  37   22   54 1
  38   23   42 1
  39   23   55 1
  40   23   56 1
  41   24   25 1
  42   24   26 1
  43   25   29 1
  44   25   57 1
  45   25   58 1
  46   26   27 1
  47   26   43 1
  48   26   59 1
  49   27   28 1
  50   27   60 1
  51   27   61 1
  52   28   29 1
  53   28   62 1
  54   28   63 1
  55   29   30 1
  56   29   64 1
  57   30   31 am
  58   30   32 2
  59   31   33 1
  60   31   65 1
  61   33   34 1
  62   33   35 1
  63   33   66 1
  64   34   38 1
  65   34   67 1
  66   34   68 1
  67   35   36 1
  68   35   69 1
  69   35   70 1
  70   36   37 1
  71   36   71 1
  72   36   72 1
  73   37   38 1
  74   37   73 1
  75   37   74 1
  76   38   75 1
  77   38   76 1
  78   39   40 1
  79   39   77 1
  80   39   78 1
  81   40   41 1
  82   40   79 1
  83   40   80 1
  84   41   42 1
  85   41   81 1
  86   42   82 1
  87   42   83 1
  88   43   84 1
  89   43   85 1
  90   43   86 1
  91   44   45 1
  92   44   87 1
  93   45   88 1
  94   45   89 1
  95   45   90 1

#	End of record

