#	Name: ASD01917143
#	Creating user name:	WinNT
#	Creation time:	15. 06. 2019 20:08

#	Modifying user name:	WinNT
#	Modification time:	15. 06. 2019 20:08

#	Program:	/corina/corina34_cracker 3.40 0067  02.08.2006

@<TRIPOS>MOLECULE
ASD01917143
  60   64    0    0    0
SMALL
NO_CHARGES


@<TRIPOS>ATOM
   1 C1            -0.0235     1.3172     0.0986 C.2     
   2 N2             0.0068     0.0293    -0.1680 N.2     
   3 N3            -1.3248    -0.4162    -0.1840 N.pl3   
   4 C4            -2.0936     0.6656     0.0822 C.2     
   5 N5            -1.2961     1.6988     0.2548 N.2     
   6 C6             1.1623     2.2020     0.2137 C.ar    
   7 C7             0.9988     3.5555     0.5013 C.ar    
   8 C8             2.4427     1.6804     0.0401 C.ar    
   9 C9             3.5425     2.5064     0.1485 C.ar    
  10 C10            3.3752     3.8528     0.4294 C.ar    
  11 C11            2.1041     4.3745     0.6079 C.ar    
  12 F12            4.4548     4.6581     0.5351 F       
  13 C13           -1.7900    -1.7818    -0.4392 C.3     
  14 C14           -1.8215    -2.5519     0.8558 C.2     
  15 N15           -2.2201    -3.8394     0.8646 N.am    
  16 O16           -1.4882    -2.0132     1.8900 O.2     
  17 C17           -2.2583    -4.6092     2.1173 C.3     
  18 C18           -3.6393    -5.2606     2.2464 C.3     
  19 N19           -3.9271    -6.0356     1.0320 N.3     
  20 C20           -3.9948    -5.1671    -0.1508 C.3     
  21 C21           -2.6341    -4.5100    -0.3772 C.3     
  22 C22           -5.0970    -6.7722     1.1767 C.ar    
  23 N23           -5.7794    -6.7040     2.3092 N.ar    
  24 C24           -6.8944    -7.3871     2.4874 C.ar    
  25 C25           -7.3916    -8.2030     1.4914 C.ar    
  26 C26           -6.7057    -8.3025     0.2878 C.ar    
  27 C27           -5.5434    -7.5702     0.1280 C.ar    
  28 C28           -3.5700     0.6828     0.1688 C.ar    
  29 C29           -4.2648     1.8853     0.0305 C.ar    
  30 C30           -5.6407     1.8975     0.1113 C.ar    
  31 C31           -6.3357     0.7150     0.3300 C.ar    
  32 C32           -5.6476    -0.4835     0.4681 C.ar    
  33 C33           -4.2721    -0.5042     0.3832 C.ar    
  34 O34           -7.6916     0.7309     0.4096 O.3     
  35 C35           -8.3428    -0.5208     0.6360 C.3     
  36 H36            0.0084     3.9631     0.6402 H       
  37 H37            2.5741     0.6309    -0.1785 H       
  38 H38            4.5353     2.1029     0.0145 H       
  39 H39            1.9781     5.4246     0.8267 H       
  40 H40           -2.7917    -1.7503    -0.8676 H       
  41 H41           -1.1115    -2.2723    -1.1372 H       
  42 H42           -1.4896    -5.3817     2.0959 H       
  43 H43           -2.0877    -3.9422     2.9623 H       
  44 H44           -3.6494    -5.9234     3.1117 H       
  45 H45           -4.3964    -4.4865     2.3717 H       
  46 H46           -4.2627    -5.7619    -1.0240 H       
  47 H47           -4.7469    -4.3942     0.0080 H       
  48 H48           -2.7099    -3.7790    -1.1822 H       
  49 H49           -1.8988    -5.2711    -0.6380 H       
  50 H50           -7.4247    -7.3068     3.4249 H       
  51 H51           -8.3046    -8.7588     1.6465 H       
  52 H52           -7.0739    -8.9344    -0.5069 H       
  53 H53           -4.9853    -7.6238    -0.7950 H       
  54 H54           -3.7251     2.8052    -0.1392 H       
  55 H55           -6.1791     2.8277     0.0048 H       
  56 H56           -6.1913    -1.4010     0.6384 H       
  57 H57           -3.7377    -1.4365     0.4906 H       
  58 H58           -9.4211    -0.3669     0.6781 H       
  59 H59           -8.1051    -1.2064    -0.1774 H       
  60 H60           -7.9990    -0.9437     1.5799 H       
@<TRIPOS>BOND
   1    1    2 2
   2    1    6 1
   3    1    5 1
   4    2    3 1
   5    3    4 1
   6    3   13 1
   7    4    5 2
   8    4   28 1
   9    6    7 ar
  10    6    8 ar
  11    7   11 ar
  12    7   36 1
  13    8    9 ar
  14    8   37 1
  15    9   10 ar
  16    9   38 1
  17   10   11 ar
  18   10   12 1
  19   11   39 1
  20   13   14 1
  21   13   40 1
  22   13   41 1
  23   14   15 am
  24   14   16 2
  25   15   17 1
  26   15   21 1
  27   17   18 1
  28   17   42 1
  29   17   43 1
  30   18   19 1
  31   18   44 1
  32   18   45 1
  33   19   20 1
  34   19   22 1
  35   20   21 1
  36   20   46 1
  37   20   47 1
  38   21   48 1
  39   21   49 1
  40   22   23 ar
  41   22   27 ar
  42   23   24 ar
  43   24   25 ar
  44   24   50 1
  45   25   26 ar
  46   25   51 1
  47   26   27 ar
  48   26   52 1
  49   27   53 1
  50   28   29 ar
  51   28   33 ar
  52   29   30 ar
  53   29   54 1
  54   30   31 ar
  55   30   55 1
  56   31   32 ar
  57   31   34 1
  58   32   33 ar
  59   32   56 1
  60   33   57 1
  61   34   35 1
  62   35   58 1
  63   35   59 1
  64   35   60 1

#	End of record

