#	Name: ASD07930005
#	Creating user name:	WinNT
#	Creation time:	15. 06. 2019 21:11

#	Modifying user name:	WinNT
#	Modification time:	15. 06. 2019 21:11

#	Program:	/corina/corina34_cracker 3.40 0067  02.08.2006

@<TRIPOS>MOLECULE
ASD07930005
  51   54    0    0    0
SMALL
NO_CHARGES


@<TRIPOS>ATOM
   1 C1            -0.0167     1.3807     0.0096 C.2     
   2 N2             0.0021    -0.0041     0.0020 N.am    
   3 N3             1.2023     2.0320     0.0015 N.pl3   
   4 C4             2.2545     1.5040    -0.8785 C.3     
   5 C5             2.4301    -0.0046    -0.6026 C.3     
   6 C6             1.1260    -0.6674    -0.3006 C.2     
   7 C7             3.6038     2.1081    -0.4355 C.3     
   8 N8             4.2432     1.1401     0.4737 N.3     
   9 C9             3.3350    -0.0129     0.6493 C.3     
  10 C10            4.5423     1.7266     1.6926 C.ar    
  11 N11            4.2404     3.0014     1.8874 N.ar    
  12 C12            4.5117     3.5928     3.0394 C.ar    
  13 C13            5.1197     2.8603     4.0490 C.ar    
  14 C14            5.4219     1.5268     3.8101 C.ar    
  15 N15            5.1184     0.9972     2.6365 N.ar    
  16 F16            5.4114     3.4323     5.2376 F       
  17 C17            4.1651     5.0439     3.2523 C.3     
  18 C18            6.0829     0.6914     4.8761 C.3     
  19 C19            5.0102     0.0248     5.7397 C.3     
  20 C20            1.9625     1.7955    -2.3280 C.ar    
  21 C21            1.2357     2.9192    -2.6741 C.ar    
  22 C22            0.9678     3.1867    -4.0036 C.ar    
  23 C23            1.4272     2.3307    -4.9870 C.ar    
  24 C24            2.1548     1.2074    -4.6409 C.ar    
  25 C25            2.4264     0.9423    -3.3117 C.ar    
  26 N26           -1.1378     2.0425     0.0186 N.2     
  27 C27           -1.2164    -0.7493     0.3279 C.3     
  28 O28            1.0819    -1.8787    -0.3312 O.2     
  29 H29            1.3581     2.8114     0.5575 H       
  30 H30            2.9183    -0.4925    -1.4462 H       
  31 H31            4.2388     2.2739    -1.3058 H       
  32 H32            3.4343     3.0500     0.0861 H       
  33 H33            2.7352     0.1114     1.5509 H       
  34 H34            3.9056    -0.9403     0.6980 H       
  35 H35            3.1577     5.1206     3.6614 H       
  36 H36            4.8753     5.4885     3.9496 H       
  37 H37            4.2118     5.5721     2.3000 H       
  38 H38            6.6995    -0.0751     4.4067 H       
  39 H39            6.7085     1.3286     5.5011 H       
  40 H40            5.4883    -0.5794     6.5108 H       
  41 H41            4.3936     0.7913     6.2091 H       
  42 H42            4.3846    -0.6123     5.1147 H       
  43 H43            0.8768     3.5880    -1.9058 H       
  44 H44            0.3993     4.0642    -4.2740 H       
  45 H45            1.2173     2.5392    -6.0257 H       
  46 H46            2.5135     0.5385    -5.4092 H       
  47 H47            2.9949     0.0648    -3.0413 H       
  48 H48           -1.9825     1.5657     0.0200 H       
  49 H49           -2.0230    -0.0493     0.5458 H       
  50 H50           -1.4972    -1.3749    -0.5194 H       
  51 H51           -1.0355    -1.3781     1.1996 H       
@<TRIPOS>BOND
   1    1    2 1
   2    1    3 1
   3    1   26 2
   4    2   27 1
   5    2    6 am
   6    3    4 1
   7    3   29 1
   8    4    7 1
   9    4   20 1
  10    4    5 1
  11    5    6 1
  12    5    9 1
  13    5   30 1
  14    6   28 2
  15    7    8 1
  16    7   31 1
  17    7   32 1
  18    8    9 1
  19    8   10 1
  20    9   33 1
  21    9   34 1
  22   10   11 ar
  23   10   15 ar
  24   11   12 ar
  25   12   13 ar
  26   12   17 1
  27   13   14 ar
  28   13   16 1
  29   14   15 ar
  30   14   18 1
  31   17   35 1
  32   17   36 1
  33   17   37 1
  34   18   19 1
  35   18   38 1
  36   18   39 1
  37   19   40 1
  38   19   41 1
  39   19   42 1
  40   20   21 ar
  41   20   25 ar
  42   21   22 ar
  43   21   43 1
  44   22   23 ar
  45   22   44 1
  46   23   24 ar
  47   23   45 1
  48   24   25 ar
  49   24   46 1
  50   25   47 1
  51   26   48 1
  52   27   49 1
  53   27   50 1
  54   27   51 1

#	End of record

