#	Name: ASD01912774
#	Creating user name:	WinNT
#	Creation time:	15. 06. 2019 20:00

#	Modifying user name:	WinNT
#	Modification time:	15. 06. 2019 20:00

#	Program:	/corina/corina34_cracker 3.40 0067  02.08.2006

@<TRIPOS>MOLECULE
ASD01912774
  61   64    0    0    0
SMALL
NO_CHARGES


@<TRIPOS>ATOM
   1 C1            -0.0184     1.5028     0.0103 C.3     
   2 C2             0.0021    -0.0041     0.0020 C.2     
   3 N3            -0.0928    -0.7934    -1.0897 N.pl3   
   4 C4             0.1243    -0.8025     1.0846 C.2     
   5 C5             0.0985    -2.1391     0.6405 C.2     
   6 N6            -0.0323    -2.1282    -0.6695 N.2     
   7 C7             0.2037    -3.3457     1.4971 C.ar    
   8 C8             0.1628    -4.6109     0.9154 C.ar    
   9 N9             0.3414    -3.2100     2.8096 N.ar    
  10 C10            0.4387    -4.2549     3.6059 C.ar    
  11 C11            0.4008    -5.5423     3.0964 C.ar    
  12 C12            0.2625    -5.7279     1.7262 C.ar    
  13 C13           -0.2343    -0.3333    -2.4734 C.3     
  14 C14            1.1312    -0.1549    -3.0856 C.2     
  15 N15            1.2482     0.2648    -4.3610 N.am    
  16 O16            2.1247    -0.3890    -2.4306 O.2     
  17 C17            2.5711     0.4455    -4.9778 C.3     
  18 C18            2.5923    -0.3059    -6.3132 C.3     
  19 N19            1.4578     0.1333    -7.1366 N.3     
  20 C20            0.1766    -0.2014    -6.5006 C.3     
  21 C21            0.0564     0.5484    -5.1748 C.3     
  22 C22            1.5336    -0.4020    -8.4128 C.ar    
  23 N23            2.5435    -1.2004    -8.7516 N.ar    
  24 C24            2.6219    -1.7132    -9.9627 C.ar    
  25 N25            1.7150    -1.4624   -10.8848 N.ar    
  26 C26            0.6754    -0.6742   -10.6244 C.ar    
  27 C27            0.5512    -0.1174    -9.3582 C.ar    
  28 C28            1.3963     3.5622     0.0079 C.3     
  29 C29            1.4170     2.0324    -0.0006 C.3     
  30 F30            0.5019    -6.6065     3.9224 F       
  31 C31            0.5937    -4.0469     5.0904 C.3     
  32 O32           -0.2524    -0.4223   -11.5800 O.3     
  33 C33           -0.0547    -1.0377   -12.8544 C.3     
  34 H34           -0.5455     1.8639    -0.8728 H       
  35 H35           -0.5286     1.8543     0.9071 H       
  36 H36            0.2247    -0.4744     2.1086 H       
  37 H37            0.0545    -4.7185    -0.1537 H       
  38 H38            0.2299    -6.7214     1.3040 H       
  39 H39           -0.7956    -1.0716    -3.0461 H       
  40 H40           -0.7659     0.6182    -2.4874 H       
  41 H41            2.7523     1.5062    -5.1516 H       
  42 H42            3.3404     0.0429    -4.3189 H       
  43 H43            3.5249    -0.0929    -6.8357 H       
  44 H44            2.5147    -1.3774    -6.1289 H       
  45 H45           -0.6427     0.0875    -7.1589 H       
  46 H46            0.1327    -1.2743    -6.3137 H       
  47 H47           -0.8373     0.2166    -4.6462 H       
  48 H48           -0.0037     1.6201    -5.3644 H       
  49 H49            3.4537    -2.3574   -10.2067 H       
  50 H50           -0.2813     0.5263    -9.1154 H       
  51 H51            2.4189     3.9395     0.0001 H       
  52 H52            0.8691     3.9233    -0.8752 H       
  53 H53            0.8861     3.9137     0.9047 H       
  54 H54            1.9442     1.6713     0.8825 H       
  55 H55            1.9272     1.6808    -0.8974 H       
  56 H56           -0.3908    -4.0093     5.5568 H       
  57 H57            1.1656    -4.8719     5.5152 H       
  58 H58            1.1183    -3.1091     5.2731 H       
  59 H59            0.8953    -0.7070   -13.2742 H       
  60 H60           -0.0424    -2.1213   -12.7366 H       
  61 H61           -0.8663    -0.7543   -13.5245 H       
@<TRIPOS>BOND
   1    1    2 1
   2    1   29 1
   3    1   34 1
   4    1   35 1
   5    2    3 1
   6    2    4 2
   7    3   13 1
   8    3    6 1
   9    4    5 1
  10    4   36 1
  11    5    6 2
  12    5    7 1
  13    7    8 ar
  14    7    9 ar
  15    8   12 ar
  16    8   37 1
  17    9   10 ar
  18   10   11 ar
  19   10   31 1
  20   11   12 ar
  21   11   30 1
  22   12   38 1
  23   13   14 1
  24   13   39 1
  25   13   40 1
  26   14   15 am
  27   14   16 2
  28   15   17 1
  29   15   21 1
  30   17   18 1
  31   17   41 1
  32   17   42 1
  33   18   19 1
  34   18   43 1
  35   18   44 1
  36   19   20 1
  37   19   22 1
  38   20   21 1
  39   20   45 1
  40   20   46 1
  41   21   47 1
  42   21   48 1
  43   22   23 ar
  44   22   27 ar
  45   23   24 ar
  46   24   25 ar
  47   24   49 1
  48   25   26 ar
  49   26   27 ar
  50   26   32 1
  51   27   50 1
  52   28   29 1
  53   28   51 1
  54   28   52 1
  55   28   53 1
  56   29   54 1
  57   29   55 1
  58   31   56 1
  59   31   57 1
  60   31   58 1
  61   32   33 1
  62   33   59 1
  63   33   60 1
  64   33   61 1

#	End of record

