#	Name: ASD01885365
#	Creating user name:	WinNT
#	Creation time:	15. 06. 2019 19:49

#	Modifying user name:	WinNT
#	Modification time:	15. 06. 2019 19:49

#	Program:	/corina/corina34_cracker 3.40 0067  02.08.2006

@<TRIPOS>MOLECULE
ASD01885365
  53   56    0    0    0
SMALL
NO_CHARGES


@<TRIPOS>ATOM
   1 C1             0.1478     0.8605     0.7218 C.ar    
   2 C2             0.0474    -0.4451     0.3517 C.ar    
   3 C3             1.1843    -1.2115     0.1048 C.ar    
   4 C4             2.4303    -0.6732     0.2277 C.ar    
   5 C5             2.5721     0.6677     0.6069 C.ar    
   6 C6             1.4180     1.4517     0.8592 C.ar    
   7 C7             3.8520     1.2620     0.7449 C.ar    
   8 C8             3.9114     2.5963     1.1243 C.ar    
   9 C9             2.7251     3.3008     1.3546 C.ar    
  10 N10            1.5429     2.7294     1.2203 N.ar    
  11 C11            5.0864     0.4840     0.4929 C.2     
  12 C12            2.7975     4.7255     1.7594 C.2     
  13 O13            3.8779     5.2666     1.8872 O.2     
  14 N14            1.6650     5.4202     1.9856 N.am    
  15 C15           -1.3153    -1.0721     0.2069 C.3     
  16 N16           -1.7354    -1.0114    -1.1994 N.3     
  17 C17           -1.9354     0.3800    -1.6300 C.3     
  18 C18           -2.3132     0.4002    -3.1134 C.3     
  19 O19           -3.4803    -0.4017    -3.3139 O.3     
  20 C20           -3.3206    -1.7630    -2.9059 C.3     
  21 C21           -2.9530    -1.8052    -1.4203 C.3     
  22 C22            5.3989    -0.7819     1.0301 C.2     
  23 N23            6.5703    -1.1371     0.5746 N.2     
  24 N24            7.0495    -0.1234    -0.2635 N.pl3   
  25 C25            6.1292     0.8588    -0.3077 C.2     
  26 C26            8.3303    -0.1318    -0.9747 C.3     
  27 C27           -2.6009     1.8387    -3.5478 C.3     
  28 F28           -1.4603     2.6235    -3.3468 F       
  29 F29           -2.9460     1.8563    -4.9035 F       
  30 F30           -3.6593     2.3518    -2.7904 F       
  31 C31           -4.1003    -1.2216    -0.5934 C.3     
  32 H32           -0.7435     1.4420     0.9052 H       
  33 H33            1.0769    -2.2457    -0.1874 H       
  34 H34            3.3041    -1.2776     0.0339 H       
  35 H35            4.8666     3.0866     1.2410 H       
  36 H36            0.8025     4.9882     1.8837 H       
  37 H37            1.7123     6.3522     2.2504 H       
  38 H38           -1.2726    -2.1126     0.5288 H       
  39 H39           -2.0320    -0.5301     0.8239 H       
  40 H40           -2.7365     0.8307    -1.0442 H       
  41 H41           -1.0139     0.9430    -1.4814 H       
  42 H42           -1.4899    -0.0014    -3.7042 H       
  43 H43           -4.2541    -2.3027    -3.0653 H       
  44 H44           -2.5266    -2.2275    -3.4906 H       
  45 H45           -2.7743    -2.8372    -1.1187 H       
  46 H46            4.7782    -1.3571     1.7012 H       
  47 H47            6.2027     1.7770    -0.8714 H       
  48 H48            8.1978    -0.5865    -1.9564 H       
  49 H49            8.6867     0.8915    -1.0933 H       
  50 H50            9.0593    -0.7066    -0.4035 H       
  51 H51           -4.3226    -0.2128    -0.9414 H       
  52 H52           -4.9851    -1.8481    -0.7065 H       
  53 H53           -3.8108    -1.1880     0.4569 H       
@<TRIPOS>BOND
   1    1    2 ar
   2    1    6 ar
   3    1   32 1
   4    2    3 ar
   5    2   15 1
   6    3    4 ar
   7    3   33 1
   8    4    5 ar
   9    4   34 1
  10    5    7 ar
  11    5    6 ar
  12    6   10 ar
  13    7    8 ar
  14    7   11 1
  15    8    9 ar
  16    8   35 1
  17    9   10 ar
  18    9   12 1
  19   11   22 1
  20   11   25 2
  21   12   13 2
  22   12   14 am
  23   14   36 1
  24   14   37 1
  25   15   16 1
  26   15   38 1
  27   15   39 1
  28   16   17 1
  29   16   21 1
  30   17   18 1
  31   17   40 1
  32   17   41 1
  33   18   19 1
  34   18   27 1
  35   18   42 1
  36   19   20 1
  37   20   21 1
  38   20   43 1
  39   20   44 1
  40   21   31 1
  41   21   45 1
  42   22   23 2
  43   22   46 1
  44   23   24 1
  45   24   25 1
  46   24   26 1
  47   25   47 1
  48   26   48 1
  49   26   49 1
  50   26   50 1
  51   27   28 1
  52   27   29 1
  53   27   30 1
  54   31   51 1
  55   31   52 1
  56   31   53 1

#	End of record

