#	Name: ASD04882348
#	Creating user name:	WinNT
#	Creation time:	15. 06. 2019 20:54

#	Modifying user name:	WinNT
#	Modification time:	15. 06. 2019 20:54

#	Program:	/corina/corina34_cracker 3.40 0067  02.08.2006

@<TRIPOS>MOLECULE
ASD04882348
  77   82    0    0    0
SMALL
NO_CHARGES


@<TRIPOS>ATOM
   1 N1            -0.0169     1.3970     0.0097 N.am    
   2 C2             0.1094     0.0022    -0.0339 C.ar    
   3 C3            -1.0280    -0.8060     0.0461 C.ar    
   4 C4            -0.9042    -2.1900     0.0030 C.ar    
   5 C5             0.3392    -2.7697    -0.1185 C.ar    
   6 C6             1.4808    -1.9673    -0.1985 C.ar    
   7 C7             1.3585    -0.5755    -0.1616 C.ar    
   8 N8            -2.2871    -0.2241     0.1695 N.3     
   9 C9            -3.1532    -0.5990    -0.9569 C.3     
  10 C10           -2.9098    -0.5831     1.4512 C.3     
  11 C11           -4.2534     0.1380     1.5823 C.3     
  12 N12           -5.1196    -0.2369     0.4559 N.3     
  13 C13           -4.4968     0.1221    -0.8259 C.3     
  14 C14            2.8126    -2.5886    -0.3281 C.2     
  15 O15            3.8053    -1.8898    -0.3976 O.2     
  16 C16            0.9212     2.1768    -0.5632 C.2     
  17 C17            0.7444     3.6398    -0.5950 C.2     
  18 O18            1.9137     1.6734    -1.0539 O.2     
  19 N19            2.9290    -3.9307    -0.3695 N.am    
  20 C20           -6.3825     0.3467     0.5797 C.ar    
  21 C21           -7.5145    -0.4540     0.6593 C.ar    
  22 C22           -6.5086     1.7294     0.6291 C.ar    
  23 C23           -7.7586     2.3032     0.7515 C.ar    
  24 C24           -8.8843     1.5030     0.8253 C.ar    
  25 C25           -8.7619     0.1265     0.7816 C.ar    
  26 C26           -7.3821    -1.9544     0.6118 C.3     
  27 C27            1.6032     4.5465    -1.1362 C.2     
  28 N28           -0.3109     4.3377    -0.0942 N.2     
  29 C29           -0.1084     5.6027    -0.3111 C.2     
  30 O30            1.0598     5.7600    -0.9495 O.3     
  31 C31            4.2516    -4.5476    -0.4983 C.3     
  32 C32            4.2140    -5.9407     0.0753 C.ar    
  33 C33            2.9146     4.2457    -1.8149 C.3     
  34 C34            3.0699     4.6771    -3.2746 C.3     
  35 C35            3.8141     5.4311    -2.1707 C.3     
  36 C36            5.2801    -6.4108     0.8192 C.ar    
  37 C37            5.2457    -7.6887     1.3453 C.ar    
  38 C38            4.1450    -8.4962     1.1279 C.ar    
  39 C39            3.0785    -8.0257     0.3848 C.ar    
  40 C40            3.1111    -6.7463    -0.1376 C.ar    
  41 C41            4.6412    -4.6150    -1.9763 C.3     
  42 O42            3.7468    -5.4909    -2.6652 O.3     
  43 H43           -0.7816     1.8012     0.4487 H       
  44 H44           -1.7849    -2.8119     0.0654 H       
  45 H45            0.4321    -3.8452    -0.1517 H       
  46 H46            2.2388     0.0470    -0.2236 H       
  47 H47           -2.6761    -0.3116    -1.8939 H       
  48 H48           -3.3164    -1.6767    -0.9471 H       
  49 H49           -3.0703    -1.6606     1.4884 H       
  50 H50           -2.2553    -0.2842     2.2700 H       
  51 H51           -4.7305    -0.1494     2.5192 H       
  52 H52           -4.0902     1.2157     1.5725 H       
  53 H53           -4.3364     1.1996    -0.8630 H       
  54 H54           -5.1514    -0.1768    -1.6446 H       
  55 H55            2.1372    -4.4881    -0.3141 H       
  56 H56           -5.6300     2.3548     0.5723 H       
  57 H57           -7.8574     3.3780     0.7900 H       
  58 H58           -9.8608     1.9543     0.9217 H       
  59 H59           -9.6430    -0.4955     0.8394 H       
  60 H60           -7.2608    -2.3407     1.6239 H       
  61 H61           -8.2780    -2.3843     0.1638 H       
  62 H62           -6.5117    -2.2236     0.0135 H       
  63 H63           -0.7769     6.4011    -0.0246 H       
  64 H64            4.9851    -3.9510     0.0440 H       
  65 H65            3.4002     3.3189    -1.5096 H       
  66 H66            3.6580     4.0343    -3.9295 H       
  67 H67            2.2235     5.1785    -3.7440 H       
  68 H68            3.4573     6.4286    -1.9139 H       
  69 H69            4.8918     5.2843    -2.0995 H       
  70 H70            6.1401    -5.7799     0.9890 H       
  71 H71            6.0789    -8.0562     1.9259 H       
  72 H72            4.1184    -9.4948     1.5384 H       
  73 H73            2.2187    -8.6568     0.2147 H       
  74 H74            2.2779    -6.3787    -0.7182 H       
  75 H75            4.5822    -3.6182    -2.4134 H       
  76 H76            5.6601    -4.9916    -2.0666 H       
  77 H77            3.9347    -5.5818    -3.6094 H       
@<TRIPOS>BOND
   1    1    2 1
   2    1   16 am
   3    1   43 1
   4    2    3 ar
   5    2    7 ar
   6    3    4 ar
   7    3    8 1
   8    4    5 ar
   9    4   44 1
  10    5    6 ar
  11    5   45 1
  12    6    7 ar
  13    6   14 1
  14    7   46 1
  15    8    9 1
  16    8   10 1
  17    9   13 1
  18    9   47 1
  19    9   48 1
  20   10   11 1
  21   10   49 1
  22   10   50 1
  23   11   12 1
  24   11   51 1
  25   11   52 1
  26   12   13 1
  27   12   20 1
  28   13   53 1
  29   13   54 1
  30   14   15 2
  31   14   19 am
  32   16   18 2
  33   16   17 1
  34   17   27 2
  35   17   28 1
  36   19   31 1
  37   19   55 1
  38   20   21 ar
  39   20   22 ar
  40   21   26 1
  41   21   25 ar
  42   22   23 ar
  43   22   56 1
  44   23   24 ar
  45   23   57 1
  46   24   25 ar
  47   24   58 1
  48   25   59 1
  49   26   60 1
  50   26   61 1
  51   26   62 1
  52   27   33 1
  53   27   30 1
  54   28   29 2
  55   29   30 1
  56   29   63 1
  57   31   32 1
  58   31   41 1
  59   31   64 1
  60   32   36 ar
  61   32   40 ar
  62   33   34 1
  63   33   35 1
  64   33   65 1
  65   34   35 1
  66   34   66 1
  67   34   67 1
  68   35   68 1
  69   35   69 1
  70   36   37 ar
  71   36   70 1
  72   37   38 ar
  73   37   71 1
  74   38   39 ar
  75   38   72 1
  76   39   40 ar
  77   39   73 1
  78   40   74 1
  79   41   42 1
  80   41   75 1
  81   41   76 1
  82   42   77 1

#	End of record

