#	Name: ASD01670017
#	Creating user name:	WinNT
#	Creation time:	15. 06. 2019 19:22

#	Modifying user name:	WinNT
#	Modification time:	15. 06. 2019 19:22

#	Program:	/corina/corina34_cracker 3.40 0067  02.08.2006

@<TRIPOS>MOLECULE
ASD01670017
  57   58    0    0    0
SMALL
NO_CHARGES


@<TRIPOS>ATOM
   1 O1            -4.8108     1.4082    -1.9278 O.2     
   2 C2            -4.2360     2.4760    -1.8523 C.2     
   3 O3            -4.1530     3.1144    -0.6685 O.3     
   4 C4            -3.6243     3.0703    -3.0546 C.ar    
   5 C5            -4.4002     3.8347    -3.9340 C.ar    
   6 O6            -5.7182     4.1768    -3.9130 O.3     
   7 C7            -6.0261     4.6063    -5.2524 C.3     
   8 O8            -4.7650     5.0845    -5.7565 O.3     
   9 C9            -3.8116     4.3918    -5.0669 C.ar    
  10 C10           -2.4656     4.1872    -5.3172 C.ar    
  11 C11           -1.6980     3.4304    -4.4468 C.ar    
  12 C12           -2.2644     2.8780    -3.3194 C.ar    
  13 C13           -1.4207     2.0613    -2.3748 C.3     
  14 C14           -1.6304     0.5729    -2.6608 C.3     
  15 C15           -1.1303     0.2490    -4.0701 C.3     
  16 N16           -1.4391    -1.1471    -4.3889 N.am    
  17 C17           -1.0895    -1.6582    -5.5860 C.2     
  18 O18           -0.5194    -0.9622    -6.3993 O.2     
  19 C19           -1.4071    -3.0944    -5.9139 C.3     
  20 C20           -0.9071    -3.4183    -7.3232 C.3     
  21 C21           -1.2295    -4.8764    -7.6561 C.3     
  22 C22           -0.7295    -5.2003    -9.0654 C.3     
  23 N23           -1.0391    -6.6003    -9.3850 N.3     
  24 C24           -0.8504    -0.2574    -1.6395 C.3     
  25 C25           -1.4479    -0.0456    -0.2470 C.3     
  26 C26           -2.8622    -0.6277    -0.2049 C.3     
  27 C27           -0.5756    -0.7492     0.7946 C.3     
  28 H28           -4.5660     2.6836     0.0924 H       
  29 H29           -6.3847     3.7684    -5.8504 H       
  30 H30           -6.7622     5.4100    -5.2373 H       
  31 H31           -2.0112     4.6198    -6.1963 H       
  32 H32           -0.6488     3.2763    -4.6511 H       
  33 H33           -0.3697     2.3138    -2.5156 H       
  34 H34           -1.7121     2.2784    -1.3472 H       
  35 H35           -2.6916     0.3350    -2.5882 H       
  36 H36           -1.6225     0.9034    -4.7896 H       
  37 H37           -0.0523     0.4027    -4.1173 H       
  38 H38           -1.8951    -1.7038    -3.7384 H       
  39 H39           -0.9150    -3.7487    -5.1944 H       
  40 H40           -2.4852    -3.2480    -5.8667 H       
  41 H41           -1.3993    -2.7639    -8.0427 H       
  42 H42            0.1710    -3.2647    -7.3704 H       
  43 H43           -0.7374    -5.5308    -6.9366 H       
  44 H44           -2.3076    -5.0301    -7.6089 H       
  45 H45           -1.2217    -4.5460    -9.7849 H       
  46 H46            0.3486    -5.0467    -9.1126 H       
  47 H47           -2.0262    -6.7842    -9.2853 H       
  48 H48           -0.7186    -6.8391   -10.3115 H       
  49 H49           -0.9133    -1.3127    -1.9052 H       
  50 H50            0.1937     0.0553    -1.6383 H       
  51 H51           -1.4873     1.0213    -0.0270 H       
  52 H52           -2.8227    -1.6945    -0.4249 H       
  53 H53           -3.2878    -0.4767     0.7872 H       
  54 H54           -3.4836    -0.1264    -0.9470 H       
  55 H55            0.4522    -0.3974     0.7052 H       
  56 H56           -0.9505    -0.5255     1.7934 H       
  57 H57           -0.6070    -1.8258     0.6274 H       
@<TRIPOS>BOND
   1    1    2 2
   2    2    3 1
   3    2    4 1
   4    3   28 1
   5    4    5 ar
   6    4   12 ar
   7    5    6 1
   8    5    9 ar
   9    6    7 1
  10    7    8 1
  11    7   29 1
  12    7   30 1
  13    8    9 1
  14    9   10 ar
  15   10   11 ar
  16   10   31 1
  17   11   12 ar
  18   11   32 1
  19   12   13 1
  20   13   14 1
  21   13   33 1
  22   13   34 1
  23   14   15 1
  24   14   24 1
  25   14   35 1
  26   15   16 1
  27   15   36 1
  28   15   37 1
  29   16   17 am
  30   16   38 1
  31   17   18 2
  32   17   19 1
  33   19   20 1
  34   19   39 1
  35   19   40 1
  36   20   21 1
  37   20   41 1
  38   20   42 1
  39   21   22 1
  40   21   43 1
  41   21   44 1
  42   22   23 1
  43   22   45 1
  44   22   46 1
  45   23   47 1
  46   23   48 1
  47   24   25 1
  48   24   49 1
  49   24   50 1
  50   25   26 1
  51   25   27 1
  52   25   51 1
  53   26   52 1
  54   26   53 1
  55   26   54 1
  56   27   55 1
  57   27   56 1
  58   27   57 1

#	End of record

