#	Name: ASD09116329
#	Creating user name:	WinNT
#	Creation time:	15. 06. 2019 21:21

#	Modifying user name:	WinNT
#	Modification time:	15. 06. 2019 21:21

#	Program:	/corina/corina34_cracker 3.40 0067  02.08.2006

@<TRIPOS>MOLECULE
ASD09116329
  73   78    0    0    0
SMALL
NO_CHARGES


@<TRIPOS>ATOM
   1 N1             0.9354    -0.4242    -1.9182 N.2     
   2 N2             1.2087    -1.6637    -2.5191 N.pl3   
   3 C3             2.0875     0.1742    -1.7323 C.2     
   4 N4             3.0707    -0.6156    -2.1809 N.2     
   5 C5             2.5614    -1.7300    -2.6599 C.2     
   6 N6             3.2719    -2.7798    -3.2069 N.pl3   
   7 C7             0.2858    -2.6271    -2.8940 C.2     
   8 N8             2.2607     1.4330    -1.1595 N.pl3   
   9 C9             3.5507     1.9202    -0.9166 C.ar    
  10 C10            3.7923     3.2880    -0.9403 C.ar    
  11 C11            4.5869     1.0366    -0.6464 C.ar    
  12 C12            5.8600     1.5165    -0.4057 C.ar    
  13 C13            6.1041     2.8821    -0.4343 C.ar    
  14 C14            5.0657     3.7685    -0.7000 C.ar    
  15 N15            7.3954     3.3685    -0.1897 N.3     
  16 C16            7.4097     4.8367    -0.1698 C.3     
  17 C17           -1.1139    -2.2938    -2.6254 C.ar    
  18 C18           -2.0020    -3.2319    -2.0819 C.ar    
  19 S19           -1.4278    -4.8513    -1.6887 S.3     
  20 C20           -0.8546    -5.4454    -3.2459 C.ar    
  21 C21            0.1740    -4.7802    -3.9198 C.ar    
  22 N22            0.7735    -3.6695    -3.4252 N.2     
  23 C23           -1.4314    -6.5773    -3.7965 C.ar    
  24 C24           -0.9942    -7.0574    -5.0198 C.ar    
  25 C25            0.0204    -6.4058    -5.6950 C.ar    
  26 C26            0.6041    -5.2767    -5.1561 C.ar    
  27 C27           -1.5836    -1.0086    -2.9171 C.ar    
  28 C28           -3.3240    -2.8902    -1.8500 C.ar    
  29 C29           -2.9016    -0.6801    -2.6767 C.ar    
  30 C30           -3.7726    -1.6159    -2.1478 C.ar    
  31 C31            8.3511     2.8414    -1.1721 C.3     
  32 C32            9.7684     3.2742    -0.7900 C.3     
  33 C33            9.8372     4.8034    -0.7527 C.3     
  34 C34            8.7989     5.3291     0.2422 C.3     
  35 N35           11.1796     5.2242    -0.3297 N.3     
  36 F36            5.3027     5.0982    -0.7284 F       
  37 C37           11.3187     6.6851    -0.3964 C.3     
  38 C38           11.4868     4.7271     1.0181 C.3     
  39 C39           12.9928     4.8286     1.2681 C.3     
  40 C40           11.4488     7.1188    -1.8579 C.3     
  41 H41            4.2391    -2.7335    -3.2636 H       
  42 H42            2.8038    -3.5637    -3.5346 H       
  43 H43            1.4875     1.9714    -0.9290 H       
  44 H44            2.9855     3.9756    -1.1467 H       
  45 H45            4.3977    -0.0265    -0.6241 H       
  46 H46            6.6654     0.8285    -0.1950 H       
  47 H47            7.1699     5.2157    -1.1632 H       
  48 H48            6.6698     5.1975     0.5447 H       
  49 H49           -2.2245    -7.0876    -3.2703 H       
  50 H50           -1.4459    -7.9410    -5.4460 H       
  51 H51            0.3587    -6.7820    -6.6491 H       
  52 H52            1.3962    -4.7738    -5.6910 H       
  53 H53           -0.9121    -0.2713    -3.3315 H       
  54 H54           -4.0052    -3.6193    -1.4368 H       
  55 H55           -3.2562     0.3144    -2.9037 H       
  56 H56           -4.8038    -1.3510    -1.9665 H       
  57 H57            8.2950     1.7529    -1.1856 H       
  58 H58            8.1069     3.2298    -2.1609 H       
  59 H59           10.0184     2.8746     0.1928 H       
  60 H60           10.4758     2.8960    -1.5280 H       
  61 H61            9.6254     5.2018    -1.7449 H       
  62 H62            8.8136     6.4190     0.2418 H       
  63 H63            9.0336     4.9619     1.2413 H       
  64 H64           10.4395     7.1544     0.0450 H       
  65 H65           12.2086     6.9908     0.1539 H       
  66 H66           10.9546     5.3268     1.7565 H       
  67 H67           11.1739     3.6863     1.1015 H       
  68 H68           13.3097     5.8660     1.1615 H       
  69 H69           13.2178     4.4817     2.2766 H       
  70 H70           13.5237     4.2103     0.5443 H       
  71 H71           12.2694     6.5755    -2.3264 H       
  72 H72           10.5204     6.9005    -2.3856 H       
  73 H73           11.6492     8.1893    -1.9027 H       
@<TRIPOS>BOND
   1    1    2 1
   2    1    3 2
   3    2    7 1
   4    2    5 1
   5    3    4 1
   6    3    8 1
   7    4    5 2
   8    5    6 1
   9    6   41 1
  10    6   42 1
  11    7   17 1
  12    7   22 2
  13    8    9 1
  14    8   43 1
  15    9   10 ar
  16    9   11 ar
  17   10   14 ar
  18   10   44 1
  19   11   12 ar
  20   11   45 1
  21   12   13 ar
  22   12   46 1
  23   13   14 ar
  24   13   15 1
  25   14   36 1
  26   15   31 1
  27   15   16 1
  28   16   34 1
  29   16   47 1
  30   16   48 1
  31   17   18 ar
  32   17   27 ar
  33   18   19 1
  34   18   28 ar
  35   19   20 1
  36   20   21 ar
  37   20   23 ar
  38   21   22 1
  39   21   26 ar
  40   23   24 ar
  41   23   49 1
  42   24   25 ar
  43   24   50 1
  44   25   26 ar
  45   25   51 1
  46   26   52 1
  47   27   29 ar
  48   27   53 1
  49   28   30 ar
  50   28   54 1
  51   29   30 ar
  52   29   55 1
  53   30   56 1
  54   31   32 1
  55   31   57 1
  56   31   58 1
  57   32   33 1
  58   32   59 1
  59   32   60 1
  60   33   34 1
  61   33   35 1
  62   33   61 1
  63   34   62 1
  64   34   63 1
  65   35   37 1
  66   35   38 1
  67   37   40 1
  68   37   64 1
  69   37   65 1
  70   38   39 1
  71   38   66 1
  72   38   67 1
  73   39   68 1
  74   39   69 1
  75   39   70 1
  76   40   71 1
  77   40   72 1
  78   40   73 1

#	End of record

