#	Name: ASD02500898
#	Creating user name:	WinNT
#	Creation time:	15. 06. 2019 20:23

#	Modifying user name:	WinNT
#	Modification time:	15. 06. 2019 20:23

#	Program:	/corina/corina34_cracker 3.40 0067  02.08.2006

@<TRIPOS>MOLECULE
ASD02500898
  29   32    0    0    0
SMALL
NO_CHARGES


@<TRIPOS>ATOM
   1 C1            -0.0158     1.3137     0.0093 C.2     
   2 C2             0.0021    -0.0041     0.0020 C.2     
   3 C3             1.4634    -0.4686    -0.0147 C.3     
   4 C4             1.9677    -0.0888    -1.4425 C.3     
   5 C5             1.9474     1.4685    -1.4333 C.3     
   6 C6             1.4323     1.8182    -0.0019 C.3     
   7 C7             3.4410    -0.4161    -1.5274 C.2     
   8 N8             4.1486     0.7188    -1.5606 N.am    
   9 C9             3.4120     1.8345    -1.5130 C.2     
  10 O10            3.9090    -1.5338    -1.5597 O.2     
  11 O11            3.8510     2.9642    -1.5313 O.2     
  12 C12            2.1200     0.6792     0.8358 C.3     
  13 C13            5.5401     0.7372    -1.6374 C.ar    
  14 N14            6.1697     1.9009    -1.6661 N.ar    
  15 N15            6.1999    -0.4094    -1.6745 N.ar    
  16 C16            7.5205    -0.4280    -1.7474 C.ar    
  17 C17            8.2122     0.7727    -1.7850 C.ar    
  18 C18            7.4894     1.9546    -1.7388 C.ar    
  19 H19           -0.9004     1.9332     0.0170 H       
  20 H20           -0.8653    -0.6476     0.0070 H       
  21 H21            1.6475    -1.4945     0.3043 H       
  22 H22            1.3699    -0.5271    -2.2416 H       
  23 H23            1.3391     1.9004    -2.2280 H       
  24 H24            1.5882     2.8450     0.3289 H       
  25 H25            1.7915     0.6688     1.8751 H       
  26 H26            3.2064     0.6944     0.7483 H       
  27 H27            8.0532    -1.3670    -1.7770 H       
  28 H28            9.2904     0.7870    -1.8442 H       
  29 H29            7.9971     2.9074    -1.7665 H       
@<TRIPOS>BOND
   1    1    2 2
   2    1    6 1
   3    1   19 1
   4    2    3 1
   5    2   20 1
   6    3    4 1
   7    3   12 1
   8    3   21 1
   9    4    5 1
  10    4    7 1
  11    4   22 1
  12    5    6 1
  13    5    9 1
  14    5   23 1
  15    6   12 1
  16    6   24 1
  17    7    8 am
  18    7   10 2
  19    8    9 am
  20    8   13 1
  21    9   11 2
  22   12   25 1
  23   12   26 1
  24   13   14 ar
  25   13   15 ar
  26   14   18 ar
  27   15   16 ar
  28   16   17 ar
  29   16   27 1
  30   17   18 ar
  31   17   28 1
  32   18   29 1

#	End of record

