#	Name: ASD01870430
#	Creating user name:	WinNT
#	Creation time:	15. 06. 2019 19:39

#	Modifying user name:	WinNT
#	Modification time:	15. 06. 2019 19:39

#	Program:	/corina/corina34_cracker 3.40 0067  02.08.2006

@<TRIPOS>MOLECULE
ASD01870430
  57   61    0    0    0
SMALL
NO_CHARGES


@<TRIPOS>ATOM
   1 N1            -0.0162     1.3436     0.0094 N.am    
   2 C2             0.0021    -0.0041     0.0020 C.2     
   3 C3            -1.2926    -0.7753     0.0102 C.3     
   4 O4             1.0605    -0.5961    -0.0113 O.2     
   5 C5            -1.1041    -2.3031     0.0002 C.3     
   6 N6            -2.1920    -2.3432     0.9966 N.am    
   7 C7            -1.8956    -0.9592     1.4147 C.3     
   8 S8            -3.3003    -3.4832     1.4596 S.o2    
   9 C9            -2.5707    -4.4221     2.7598 C.ar    
  10 C10           -1.8297    -5.5516     2.4638 C.ar    
  11 O11           -4.3876    -2.7742     2.0378 O.2     
  12 O12           -3.4480    -4.3695     0.3587 O.2     
  13 C13           -2.7351    -4.0257     4.0719 C.ar    
  14 C14           -2.1577    -4.7690     5.0989 C.ar    
  15 C15           -1.4168    -5.9095     4.7952 C.ar    
  16 C16           -1.2541    -6.2934     3.4798 C.ar    
  17 C17            1.2357     2.1156     0.0016 C.3     
  18 C18            1.1612     3.1524    -1.1243 C.3     
  19 N19           -0.0610     3.9524    -0.9688 N.3     
  20 C20           -1.2637     3.1194    -1.1013 C.3     
  21 C21           -1.2886     2.0812     0.0194 C.3     
  22 C22           -0.0840     5.0090    -1.8742 C.ar    
  23 C23           -1.1551     5.9018    -1.9050 C.ar    
  24 C24            0.9662     5.2062    -2.7706 C.ar    
  25 C25            0.9051     6.2651    -3.6518 C.ar    
  26 N26           -0.1292     7.0852    -3.6534 N.ar    
  27 C27           -1.1396     6.9356    -2.8174 C.ar    
  28 C28           -2.3306    -4.3474     6.5115 C.2     
  29 N29           -2.9968    -3.3047     6.9343 N.2     
  30 O30           -2.9464    -3.2406     8.1445 O.3     
  31 C31           -2.2269    -4.2585     8.6272 C.2     
  32 N32           -1.8337    -4.9730     7.6024 N.2     
  33 C33           -1.9290    -4.5351    10.0784 C.3     
  34 H34           -2.0058    -0.4162    -0.7318 H       
  35 H35           -1.3611    -2.7713    -0.9500 H       
  36 H36           -0.1396    -2.6293     0.3895 H       
  37 H37           -1.1636    -0.8907     2.2195 H       
  38 H38           -2.7845    -0.3544     1.5939 H       
  39 H39           -1.7002    -5.8559     1.4356 H       
  40 H40           -3.3100    -3.1408     4.3017 H       
  41 H41           -0.9671    -6.4893     5.5877 H       
  42 H42           -0.6801    -7.1772     3.2433 H       
  43 H43            1.3592     2.6225     0.9586 H       
  44 H44            2.0778     1.4458    -0.1725 H       
  45 H45            2.0323     3.8057    -1.0753 H       
  46 H46            1.1421     2.6426    -2.0875 H       
  47 H47           -2.1512     3.7488    -1.0356 H       
  48 H48           -1.2490     2.6100    -2.0648 H       
  49 H49           -2.1158     1.3897    -0.1405 H       
  50 H50           -1.4069     2.5823     0.9801 H       
  51 H51           -1.9852     5.7849    -1.2240 H       
  52 H52            1.8156     4.5391    -2.7743 H       
  53 H53            1.7139     6.4257    -4.3492 H       
  54 H54           -1.9670     7.6289    -2.8516 H       
  55 H55           -2.3950    -3.7685    10.6975 H       
  56 H56           -2.3258    -5.5130    10.3507 H       
  57 H57           -0.8506    -4.5237    10.2364 H       
@<TRIPOS>BOND
   1    1    2 am
   2    1   17 1
   3    1   21 1
   4    2    3 1
   5    2    4 2
   6    3    5 1
   7    3    7 1
   8    3   34 1
   9    5    6 1
  10    5   35 1
  11    5   36 1
  12    6    7 1
  13    6    8 am
  14    7   37 1
  15    7   38 1
  16    8    9 1
  17    8   11 2
  18    8   12 2
  19    9   13 ar
  20    9   10 ar
  21   10   16 ar
  22   10   39 1
  23   13   14 ar
  24   13   40 1
  25   14   15 ar
  26   14   28 1
  27   15   16 ar
  28   15   41 1
  29   16   42 1
  30   17   18 1
  31   17   43 1
  32   17   44 1
  33   18   19 1
  34   18   45 1
  35   18   46 1
  36   19   20 1
  37   19   22 1
  38   20   21 1
  39   20   47 1
  40   20   48 1
  41   21   49 1
  42   21   50 1
  43   22   23 ar
  44   22   24 ar
  45   23   27 ar
  46   23   51 1
  47   24   25 ar
  48   24   52 1
  49   25   26 ar
  50   25   53 1
  51   26   27 ar
  52   27   54 1
  53   28   29 2
  54   28   32 1
  55   29   30 1
  56   30   31 1
  57   31   32 2
  58   31   33 1
  59   33   55 1
  60   33   56 1
  61   33   57 1

#	End of record

