#	Name: ASD09740050
#	Creating user name:	WinNT
#	Creation time:	15. 06. 2019 21:22

#	Modifying user name:	WinNT
#	Modification time:	15. 06. 2019 21:22

#	Program:	/corina/corina34_cracker 3.40 0067  02.08.2006

@<TRIPOS>MOLECULE
ASD09740050
  60   64    0    0    0
SMALL
NO_CHARGES


@<TRIPOS>ATOM
   1 N1            -0.0144     1.2085     0.0087 N.2     
   2 O2             0.0021    -0.0041     0.0020 O.3     
   3 C3             1.2064     1.6802    -0.0004 C.2     
   4 N4             2.0463     0.6241    -0.0141 N.2     
   5 C5             1.2701    -0.4441    -0.0125 C.2     
   6 C6             1.7125    -1.8532    -0.0242 C.ar    
   7 C7             1.5952     3.1123     0.0031 C.ar    
   8 C8             3.0747    -2.1587    -0.0389 C.ar    
   9 C9             0.7687    -2.8832    -0.0149 C.ar    
  10 C10            1.1875    -4.1998    -0.0255 C.ar    
  11 C11            2.5490    -4.4978    -0.0455 C.ar    
  12 C12            3.4861    -3.4747    -0.0499 C.ar    
  13 C13            0.6162     4.0959     0.0178 C.ar    
  14 C14            0.9939     5.4381     0.0214 C.ar    
  15 C15            2.3582     5.7848     0.0103 C.ar    
  16 C16            3.3228     4.7807    -0.0044 C.ar    
  17 C17            2.9480     3.4686    -0.0025 C.ar    
  18 C18            0.2545     6.7031     0.0354 C.2     
  19 C19            1.1652     7.6890     0.0320 C.2     
  20 N20            2.4267     7.1592     0.0171 N.pl3   
  21 O21            2.9594    -5.7930    -0.0555 O.3     
  22 C22            4.3690    -6.0268    -0.0759 C.3     
  23 C23            4.6360    -7.5333    -0.0845 C.3     
  24 O24            0.2714    -5.2049    -0.0161 O.3     
  25 C25           -1.1065    -4.8266     0.0049 C.3     
  26 C26           -1.9801    -6.0827     0.0129 C.3     
  27 C27           -1.2436     6.8661     0.0498 C.3     
  28 N28           -1.7441     6.6722     1.4172 N.3     
  29 C29           -3.1643     7.0550     1.5193 C.3     
  30 C30           -3.9320     5.8263     2.0507 C.3     
  31 C31           -2.8244     5.0008     2.7568 C.3     
  32 C32           -1.6055     5.2614     1.8370 C.3     
  33 H33            3.8062    -1.3642    -0.0420 H       
  34 H34           -0.2859    -2.6509     0.0009 H       
  35 H35            4.5402    -3.7096    -0.0657 H       
  36 H36           -0.4291     3.8241     0.0259 H       
  37 H37            4.3709     5.0412    -0.0133 H       
  38 H38            3.7036     2.6970    -0.0136 H       
  39 H39            0.9362     8.7444     0.0403 H       
  40 H40            3.2477     7.6759     0.0121 H       
  41 H41            4.7990    -5.5764    -0.9705 H       
  42 H42            4.8239    -5.5822     0.8093 H       
  43 H43            4.2059    -7.9836     0.8100 H       
  44 H44            4.1811    -7.9778    -0.9697 H       
  45 H45            5.7112    -7.7116    -0.1001 H       
  46 H46           -1.3082    -4.2381     0.8999 H       
  47 H47           -1.3335    -4.2318    -0.8799 H       
  48 H48           -1.7784    -6.6712    -0.8822 H       
  49 H49           -1.7531    -6.6775     0.8976 H       
  50 H50           -3.0311    -5.7942     0.0288 H       
  51 H51           -1.5035     7.8675    -0.2936 H       
  52 H52           -1.6959     6.1266    -0.6110 H       
  53 H53           -3.2746     7.8893     2.2121 H       
  54 H54           -3.5449     7.3334     0.5366 H       
  55 H55           -4.6995     6.1297     2.7627 H       
  56 H56           -4.3696     5.2601     1.2285 H       
  57 H57           -2.6406     5.3750     3.7639 H       
  58 H58           -3.0795     3.9412     2.7761 H       
  59 H59           -1.6371     4.6024     0.9694 H       
  60 H60           -0.6764     5.1193     2.3889 H       
@<TRIPOS>BOND
   1    1    2 1
   2    1    3 2
   3    2    5 1
   4    3    4 1
   5    3    7 1
   6    4    5 2
   7    5    6 1
   8    6    8 ar
   9    6    9 ar
  10    7   13 ar
  11    7   17 ar
  12    8   12 ar
  13    8   33 1
  14    9   10 ar
  15    9   34 1
  16   10   11 ar
  17   10   24 1
  18   11   12 ar
  19   11   21 1
  20   12   35 1
  21   13   14 ar
  22   13   36 1
  23   14   15 ar
  24   14   18 1
  25   15   16 ar
  26   15   20 1
  27   16   17 ar
  28   16   37 1
  29   17   38 1
  30   18   19 2
  31   18   27 1
  32   19   20 1
  33   19   39 1
  34   20   40 1
  35   21   22 1
  36   22   23 1
  37   22   41 1
  38   22   42 1
  39   23   43 1
  40   23   44 1
  41   23   45 1
  42   24   25 1
  43   25   26 1
  44   25   46 1
  45   25   47 1
  46   26   48 1
  47   26   49 1
  48   26   50 1
  49   27   28 1
  50   27   51 1
  51   27   52 1
  52   28   29 1
  53   28   32 1
  54   29   30 1
  55   29   53 1
  56   29   54 1
  57   30   31 1
  58   30   55 1
  59   30   56 1
  60   31   32 1
  61   31   57 1
  62   31   58 1
  63   32   59 1
  64   32   60 1

#	End of record

