#	Name: ASD07300949
#	Creating user name:	WinNT
#	Creation time:	15. 06. 2019 21:10

#	Modifying user name:	WinNT
#	Modification time:	15. 06. 2019 21:10

#	Program:	/corina/corina34_cracker 3.40 0067  02.08.2006

@<TRIPOS>MOLECULE
ASD07300949
  48   52    0    0    0
SMALL
NO_CHARGES


@<TRIPOS>ATOM
   1 N1             0.5045     1.7735    -0.5594 N.am    
   2 C2             0.3763     0.4319    -0.4011 C.2     
   3 N3             1.3947    -0.3743    -0.3281 N.2     
   4 C4             2.6580     0.0710    -0.4057 C.2     
   5 C5             2.8906     1.4458    -0.5704 C.2     
   6 C6             1.7325     2.3358    -0.6498 C.2     
   7 N7             3.8801    -0.5266    -0.3610 N.pl3   
   8 N8             4.8593     0.4656    -0.4965 N.2     
   9 C9             4.2850     1.6308    -0.6204 C.2     
  10 O10            1.8681     3.5381    -0.7929 O.2     
  11 C11            4.1177    -1.8984    -0.2055 C.ar    
  12 C12            3.4178    -2.8252    -0.9662 C.ar    
  13 N13            3.6382    -4.1168    -0.8224 N.ar    
  14 C14            4.5227    -4.5790     0.0394 C.ar    
  15 C15            5.2589    -3.7181     0.8325 C.ar    
  16 C16            5.0638    -2.3523     0.7104 C.ar    
  17 C17           -1.0100    -0.1511    -0.3050 C.3     
  18 C18           -1.0645    -1.4891     0.4510 C.3     
  19 C19           -2.0793    -1.9552    -0.6063 C.3     
  20 C20           -1.4382    -0.9320    -1.5587 C.3     
  21 C21           -1.6456    -1.3762     1.8369 C.2     
  22 N22           -1.0247    -1.6836     2.9253 N.2     
  23 C23           -1.6808    -1.5239     4.0570 C.2     
  24 C24           -2.9244    -1.0556     3.9152 C.2     
  25 S25           -3.2206    -0.8153     2.1950 S.3     
  26 C26           -3.8994    -0.7773     5.0301 C.3     
  27 C27           -1.0783    -1.8435     5.4008 C.3     
  28 C28            5.8466    -1.3818     1.5568 C.3     
  29 H29           -0.2872     2.3314    -0.6120 H       
  30 H30            4.7931     2.5761    -0.7413 H       
  31 H31            2.6850    -2.4845    -1.6827 H       
  32 H32            4.6741    -5.6447     0.1273 H       
  33 H33            5.9809    -4.1060     1.5358 H       
  34 H34           -1.7509     0.5727     0.0345 H       
  35 H35           -0.1254    -2.0420     0.4285 H       
  36 H36           -1.9397    -2.9900    -0.9192 H       
  37 H37           -3.1135    -1.7251    -0.3503 H       
  38 H38           -2.1602    -0.4005    -2.1787 H       
  39 H39           -0.6012    -1.3325    -2.1306 H       
  40 H40           -3.7802     0.2520     5.3685 H       
  41 H41           -4.9169    -0.9252     4.6683 H       
  42 H42           -3.7064    -1.4572     5.8598 H       
  43 H43           -0.5788    -0.9584     5.7948 H       
  44 H44           -1.8660    -2.1523     6.0880 H       
  45 H45           -0.3543    -2.6509     5.2916 H       
  46 H46            6.7168    -1.0341     1.0002 H       
  47 H47            5.2150    -0.5310     1.8124 H       
  48 H48            6.1742    -1.8785     2.4701 H       
@<TRIPOS>BOND
   1    1    2 1
   2    1    6 am
   3    1   29 1
   4    2    3 2
   5    2   17 1
   6    3    4 1
   7    4    5 2
   8    4    7 1
   9    5    6 1
  10    5    9 1
  11    6   10 2
  12    7    8 1
  13    7   11 1
  14    8    9 2
  15    9   30 1
  16   11   12 ar
  17   11   16 ar
  18   12   13 ar
  19   12   31 1
  20   13   14 ar
  21   14   15 ar
  22   14   32 1
  23   15   16 ar
  24   15   33 1
  25   16   28 1
  26   17   18 1
  27   17   20 1
  28   17   34 1
  29   18   19 1
  30   18   21 1
  31   18   35 1
  32   19   20 1
  33   19   36 1
  34   19   37 1
  35   20   38 1
  36   20   39 1
  37   21   22 2
  38   21   25 1
  39   22   23 1
  40   23   24 2
  41   23   27 1
  42   24   25 1
  43   24   26 1
  44   26   40 1
  45   26   41 1
  46   26   42 1
  47   27   43 1
  48   27   44 1
  49   27   45 1
  50   28   46 1
  51   28   47 1
  52   28   48 1

#	End of record

