#	Name: ASD02030111
#	Creating user name:	WinNT
#	Creation time:	15. 06. 2019 20:14

#	Modifying user name:	WinNT
#	Modification time:	15. 06. 2019 20:14

#	Program:	/corina/corina34_cracker 3.40 0067  02.08.2006

@<TRIPOS>MOLECULE
ASD02030111
  52   55    0    0    0
SMALL
NO_CHARGES


@<TRIPOS>ATOM
   1 N1            -0.2113     1.4219    -0.1396 N.am    
   2 C2            -0.0214    -0.0117     0.1223 C.3     
   3 C3            -0.9185    -0.4181     1.2980 C.3     
   4 N4            -2.2773     0.0821     1.0467 N.am    
   5 C5            -2.4672     1.5157     0.7848 C.3     
   6 C6            -1.5709     1.9230    -0.3854 C.3     
   7 C7             0.8418     2.2630    -0.1487 C.2     
   8 C8             2.1841     1.7708     0.2274 C.2     
   9 N9             3.2629     2.5076     0.3826 N.2     
  10 N10            2.5165     0.4909     0.4771 N.2     
  11 C11            3.7908     0.4709     0.7743 C.2     
  12 N12            4.2441     1.7397     0.7111 N.pl3   
  13 O13            0.6879     3.4263    -0.4662 O.2     
  14 C14           -3.3304    -0.7590     1.0558 C.2     
  15 C15           -4.7025    -0.2272     0.9117 C.ar    
  16 O16           -3.1522    -1.9547     1.1824 O.2     
  17 C17           -1.5438     3.4481    -0.5049 C.3     
  18 C18           -2.1087     1.3124    -1.6811 C.3     
  19 C19            5.5599     2.1529     0.9601 C.ar    
  20 C20            5.8980     3.4960     0.8606 C.ar    
  21 C21            7.1956     3.9001     1.1066 C.ar    
  22 C22            8.1577     2.9686     1.4513 C.ar    
  23 C23            7.8241     1.6304     1.5513 C.ar    
  24 C24            6.5269     1.2209     1.3125 C.ar    
  25 C25           -5.6736    -0.9681     0.2373 C.ar    
  26 C26           -6.9542    -0.4649     0.1063 C.ar    
  27 C27           -7.2727     0.7722     0.6428 C.ar    
  28 C28           -6.3128     1.5102     1.3118 C.ar    
  29 C29           -5.0330     1.0155     1.4548 C.ar    
  30 F30           -7.8965    -1.1801    -0.5461 F       
  31 H31           -0.2966    -0.5849    -0.7631 H       
  32 H32            1.0216    -0.2023     0.3750 H       
  33 H33           -0.9386    -1.5045     1.3842 H       
  34 H34           -0.5330     0.0174     2.2199 H       
  35 H35           -3.5103     1.7063     0.5321 H       
  36 H36           -2.1921     2.0889     1.6701 H       
  37 H37            4.3732    -0.4027     1.0274 H       
  38 H38           -1.0478     3.8722     0.3681 H       
  39 H39           -1.0000     3.7324    -1.4057 H       
  40 H40           -2.5646     3.8262    -0.5622 H       
  41 H41           -3.1222     1.6722    -1.8589 H       
  42 H42           -1.4683     1.6041    -2.5134 H       
  43 H43           -2.1189     0.2260    -1.5939 H       
  44 H44            5.1471     4.2238     0.5907 H       
  45 H45            7.4591     4.9446     1.0293 H       
  46 H46            9.1719     3.2869     1.6425 H       
  47 H47            8.5778     0.9052     1.8207 H       
  48 H48            6.2669     0.1756     1.3911 H       
  49 H49           -5.4252    -1.9321    -0.1815 H       
  50 H50           -8.2744     1.1620     0.5380 H       
  51 H51           -6.5672     2.4740     1.7274 H       
  52 H52           -4.2851     1.5934     1.9774 H       
@<TRIPOS>BOND
   1    1    2 1
   2    1    7 am
   3    1    6 1
   4    2    3 1
   5    2   31 1
   6    2   32 1
   7    3    4 1
   8    3   33 1
   9    3   34 1
  10    4    5 1
  11    4   14 am
  12    5    6 1
  13    5   35 1
  14    5   36 1
  15    6   17 1
  16    6   18 1
  17    7    8 1
  18    7   13 2
  19    8    9 2
  20    8   10 1
  21    9   12 1
  22   10   11 2
  23   11   12 1
  24   11   37 1
  25   12   19 1
  26   14   15 1
  27   14   16 2
  28   15   25 ar
  29   15   29 ar
  30   17   38 1
  31   17   39 1
  32   17   40 1
  33   18   41 1
  34   18   42 1
  35   18   43 1
  36   19   20 ar
  37   19   24 ar
  38   20   21 ar
  39   20   44 1
  40   21   22 ar
  41   21   45 1
  42   22   23 ar
  43   22   46 1
  44   23   24 ar
  45   23   47 1
  46   24   48 1
  47   25   26 ar
  48   25   49 1
  49   26   27 ar
  50   26   30 1
  51   27   28 ar
  52   27   50 1
  53   28   29 ar
  54   28   51 1
  55   29   52 1

#	End of record

