#	Name: ASD07300426
#	Creating user name:	WinNT
#	Creation time:	15. 06. 2019 21:09

#	Modifying user name:	WinNT
#	Modification time:	15. 06. 2019 21:09

#	Program:	/corina/corina34_cracker 3.40 0067  02.08.2006

@<TRIPOS>MOLECULE
ASD07300426
  40   44    0    0    0
SMALL
NO_CHARGES


@<TRIPOS>ATOM
   1 C1            -0.0169     1.3941     0.0097 C.ar    
   2 C2             0.0021    -0.0041     0.0020 C.ar    
   3 C3             1.2199    -0.6674    -0.0132 C.ar    
   4 C4             2.3808     0.0923    -0.0202 C.ar    
   5 C5             2.2878     1.4713    -0.0119 C.ar    
   6 N6             1.1161     2.0768     0.0026 N.ar    
   7 C7            -2.1139     0.6622     0.0347 C.2     
   8 N8            -1.3543     1.7733     0.0301 N.am    
   9 N9            -1.3235    -0.4279     0.0124 N.am    
  10 O10           -3.3304     0.6453     0.0513 O.2     
  11 N11           -3.4810     6.8742     0.0904 N.pl3   
  12 N12           -4.8405     6.5460     0.1070 N.2     
  13 C13           -4.9889     5.2520     0.1006 C.2     
  14 C14           -3.6592     4.6490     0.0784 C.ar    
  15 C15           -3.1914     3.3305     0.0643 C.ar    
  16 C16           -1.8318     3.0925     0.0444 C.ar    
  17 C17           -0.9303     4.1569     0.0389 C.ar    
  18 C18           -1.3746     5.4479     0.0526 C.ar    
  19 C19           -2.7404     5.7156     0.0727 C.ar    
  20 C20           -2.9601     8.1690     0.0864 C.ar    
  21 C21           -3.7250     9.2175    -0.4117 C.ar    
  22 C22           -3.1964    10.4963    -0.4098 C.ar    
  23 C23           -1.9157    10.6828     0.0925 C.ar    
  24 C24           -1.2124     9.5951     0.5716 C.ar    
  25 N25           -1.7445     8.3881     0.5619 N.ar    
  26 C26           -1.2991    12.0577     0.1141 C.3     
  27 H27            1.2635    -1.7465    -0.0190 H       
  28 H28            3.3476    -0.3890    -0.0316 H       
  29 H29            3.1908     2.0638    -0.0173 H       
  30 H30           -1.6258    -1.3496     0.0100 H       
  31 H31           -5.9284     4.7195     0.1106 H       
  32 H32           -3.8884     2.5056     0.0697 H       
  33 H33            0.1311     3.9577     0.0240 H       
  34 H34           -0.6654     6.2623     0.0481 H       
  35 H35           -4.7182     9.0364    -0.7954 H       
  36 H36           -3.7672    11.3304    -0.7907 H       
  37 H37           -0.2158     9.7353     0.9633 H       
  38 H38           -1.5412    12.5497     1.0562 H       
  39 H39           -0.2168    11.9721     0.0165 H       
  40 H40           -1.6933    12.6458    -0.7147 H       
@<TRIPOS>BOND
   1    1    2 ar
   2    1    6 ar
   3    1    8 1
   4    2    3 ar
   5    2    9 1
   6    3    4 ar
   7    3   27 1
   8    4    5 ar
   9    4   28 1
  10    5    6 ar
  11    5   29 1
  12    7    8 am
  13    7    9 am
  14    7   10 2
  15    8   16 1
  16    9   30 1
  17   11   12 1
  18   11   19 1
  19   11   20 1
  20   12   13 2
  21   13   14 1
  22   13   31 1
  23   14   15 ar
  24   14   19 ar
  25   15   16 ar
  26   15   32 1
  27   16   17 ar
  28   17   18 ar
  29   17   33 1
  30   18   19 ar
  31   18   34 1
  32   20   21 ar
  33   20   25 ar
  34   21   22 ar
  35   21   35 1
  36   22   23 ar
  37   22   36 1
  38   23   24 ar
  39   23   26 1
  40   24   25 ar
  41   24   37 1
  42   26   38 1
  43   26   39 1
  44   26   40 1

#	End of record

