#	Name: ASD03170002
#	Creating user name:	WinNT
#	Creation time:	15. 06. 2019 20:33

#	Modifying user name:	WinNT
#	Modification time:	15. 06. 2019 20:33

#	Program:	/corina/corina34_cracker 3.40 0067  02.08.2006

@<TRIPOS>MOLECULE
ASD03170002
  73   76    0    0    0
SMALL
NO_CHARGES


@<TRIPOS>ATOM
   1 O1            -1.0779     1.4430     0.9971 O.3     
   2 C2            -0.8932     0.1063     0.8361 C.ar    
   3 C3            -0.3983    -0.6591     1.8817 C.ar    
   4 C4            -0.2121    -2.0154     1.7097 C.ar    
   5 C5            -0.5163    -2.6180     0.4982 C.ar    
   6 C6            -1.0124    -1.8602    -0.5420 C.ar    
   7 C7            -1.2039    -0.4981    -0.3713 C.ar    
   8 C8            -1.3680    -2.4721    -1.8717 C.3     
   9 N9            -0.7352    -3.7868    -2.0172 N.3     
  10 C10           -1.0492    -4.6344    -0.8559 C.3     
  11 C11           -0.2852    -4.1007     0.3560 C.3     
  12 C12           -0.6265    -6.0536    -1.1360 C.2     
  13 O13            0.1901    -6.2832    -2.0027 O.2     
  14 N14           -1.1560    -7.0675    -0.4232 N.am    
  15 C15           -0.7451    -8.4471    -0.6955 C.3     
  16 C16            0.2753    -8.8919     0.3542 C.3     
  17 C17            0.7045   -10.3327     0.0698 C.3     
  18 C18            1.4986    -7.9747     0.2970 C.3     
  19 C19           -1.9684    -9.3643    -0.6384 C.3     
  20 N20           -3.0125    -8.8442    -1.5312 N.3     
  21 C21           -4.1697    -9.7474    -1.5699 C.3     
  22 C22           -5.2914    -9.1067    -2.3905 C.3     
  23 C23           -4.7864    -8.8328    -3.8098 C.3     
  24 C24           -3.5522    -7.9293    -3.7385 C.3     
  25 C25           -2.4809    -8.6041    -2.8789 C.3     
  26 C26           -3.9374    -6.5867    -3.1139 C.3     
  27 C27           -4.4140   -10.1548    -4.4840 C.3     
  28 C28           -5.8677    -8.1486    -4.6058 C.ar    
  29 C29           -5.6691    -7.8725    -5.9458 C.ar    
  30 C30           -6.6592    -7.2443    -6.6789 C.ar    
  31 C31           -7.8495    -6.8911    -6.0736 C.ar    
  32 C32           -8.0514    -7.1675    -4.7290 C.ar    
  33 C33           -7.0589    -7.8028    -3.9972 C.ar    
  34 O34           -9.2215    -6.8207    -4.1310 O.3     
  35 H35           -0.3073     1.9778     0.7619 H       
  36 H36           -0.1591    -0.1949     2.8271 H       
  37 H37            0.1732    -2.6115     2.5236 H       
  38 H38           -1.5896     0.0965    -1.1862 H       
  39 H39           -2.4501    -2.5836    -1.9392 H       
  40 H40           -1.0257    -1.8169    -2.6728 H       
  41 H41           -1.0195    -4.2318    -2.8770 H       
  42 H42           -2.1204    -4.6010    -0.6572 H       
  43 H43            0.7802    -4.2898     0.2241 H       
  44 H44           -0.6327    -4.6090     1.2554 H       
  45 H45           -1.8092    -6.8838     0.2700 H       
  46 H46           -0.2949    -8.5033    -1.6866 H       
  47 H47           -0.1749    -8.8358     1.3452 H       
  48 H48            1.1547   -10.3888    -0.9213 H       
  49 H49            1.4314   -10.6496     0.8176 H       
  50 H50           -0.1670   -10.9861     0.1105 H       
  51 H51            1.1929    -6.9483     0.4996 H       
  52 H52            2.2256    -8.2916     1.0448 H       
  53 H53            1.9488    -8.0308    -0.6941 H       
  54 H54           -1.6853   -10.3678    -0.9562 H       
  55 H55           -2.3482    -9.4002     0.3827 H       
  56 H56           -3.8779   -10.6920    -2.0290 H       
  57 H57           -4.5215    -9.9306    -0.5547 H       
  58 H58           -6.1444    -9.7840    -2.4321 H       
  59 H59           -5.5932    -8.1688    -1.9243 H       
  60 H60           -3.1626    -7.7654    -4.7432 H       
  61 H61           -1.6062    -7.9570    -2.8143 H       
  62 H62           -2.1971    -9.5541    -3.3318 H       
  63 H63           -4.2440    -6.7419    -2.0794 H       
  64 H64           -3.0804    -5.9138    -3.1417 H       
  65 H65           -4.7622    -6.1481    -3.6754 H       
  66 H66           -5.2917   -10.7994    -4.5293 H       
  67 H67           -4.0546    -9.9588    -5.4943 H       
  68 H68           -3.6303   -10.6478    -3.9089 H       
  69 H69           -4.7390    -8.1475    -6.4208 H       
  70 H70           -6.5016    -7.0294    -7.7255 H       
  71 H71           -8.6222    -6.3999    -6.6464 H       
  72 H72           -7.2137    -8.0190    -2.9505 H       
  73 H73           -9.9021    -7.5065    -4.1710 H       
@<TRIPOS>BOND
   1    1    2 1
   2    1   35 1
   3    2    3 ar
   4    2    7 ar
   5    3    4 ar
   6    3   36 1
   7    4    5 ar
   8    4   37 1
   9    5    6 ar
  10    5   11 1
  11    6    7 ar
  12    6    8 1
  13    7   38 1
  14    8    9 1
  15    8   39 1
  16    8   40 1
  17    9   10 1
  18    9   41 1
  19   10   11 1
  20   10   12 1
  21   10   42 1
  22   11   43 1
  23   11   44 1
  24   12   13 2
  25   12   14 am
  26   14   15 1
  27   14   45 1
  28   15   16 1
  29   15   19 1
  30   15   46 1
  31   16   17 1
  32   16   18 1
  33   16   47 1
  34   17   48 1
  35   17   49 1
  36   17   50 1
  37   18   51 1
  38   18   52 1
  39   18   53 1
  40   19   20 1
  41   19   54 1
  42   19   55 1
  43   20   21 1
  44   20   25 1
  45   21   22 1
  46   21   56 1
  47   21   57 1
  48   22   23 1
  49   22   58 1
  50   22   59 1
  51   23   27 1
  52   23   28 1
  53   23   24 1
  54   24   25 1
  55   24   26 1
  56   24   60 1
  57   25   61 1
  58   25   62 1
  59   26   63 1
  60   26   64 1
  61   26   65 1
  62   27   66 1
  63   27   67 1
  64   27   68 1
  65   28   29 ar
  66   28   33 ar
  67   29   30 ar
  68   29   69 1
  69   30   31 ar
  70   30   70 1
  71   31   32 ar
  72   31   71 1
  73   32   33 ar
  74   32   34 1
  75   33   72 1
  76   34   73 1

#	End of record

