#	Name: ASD03240024
#	Creating user name:	WinNT
#	Creation time:	15. 06. 2019 20:34

#	Modifying user name:	WinNT
#	Modification time:	15. 06. 2019 20:34

#	Program:	/corina/corina34_cracker 3.40 0067  02.08.2006

@<TRIPOS>MOLECULE
ASD03240024
  92   98    0    0    0
SMALL
NO_CHARGES


@<TRIPOS>ATOM
   1 C1            -0.5309     3.6176    -0.4821 C.ar    
   2 C2            -0.1481     2.2525    -0.4481 C.ar    
   3 N3             0.3955     4.5780    -0.5859 N.ar    
   4 C4             1.6735     4.2565    -0.6572 C.ar    
   5 C5             2.0687     2.8490    -0.6221 C.ar    
   6 N6             1.1436     1.9121    -0.5190 N.ar    
   7 C7             3.4996     2.4758    -0.7023 C.ar    
   8 C8             2.7025     5.3159    -0.7726 C.ar    
   9 C9             2.4349     6.4755    -1.4998 C.ar    
  10 C10            3.3974     7.4588    -1.6037 C.ar    
  11 C11            4.6257     7.2961    -0.9884 C.ar    
  12 C12            4.8970     6.1481    -0.2657 C.ar    
  13 C13            3.9405     5.1603    -0.1497 C.ar    
  14 C14            3.9770     1.3743     0.0079 C.ar    
  15 C15            5.3112     1.0317    -0.0709 C.ar    
  16 C16            6.1751     1.7785    -0.8519 C.ar    
  17 C17            5.7077     2.8721    -1.5588 C.ar    
  18 C18            4.3744     3.2211    -1.4930 C.ar    
  19 C19            7.6314     1.3994    -0.9328 C.3     
  20 N20            7.8316     0.4584    -2.0429 N.3     
  21 C21            9.2614     0.2494    -2.3044 C.3     
  22 C22            9.4314    -0.6176    -3.5539 C.3     
  23 C23            8.7316    -1.9619    -3.3355 C.3     
  24 C24            7.2545    -1.7137    -3.0174 C.3     
  25 C25            7.1476    -0.8148    -1.7834 C.3     
  26 N26            8.8411    -2.7739    -4.5499 N.am    
  27 C27            9.4505    -4.0229    -4.6432 C.ar    
  28 C28            9.3282    -4.4333    -5.9722 C.ar    
  29 N29            8.6482    -3.4210    -6.6452 N.am    
  30 C30            8.3647    -2.4426    -5.7649 C.2     
  31 C31           10.0920    -4.8397    -3.7245 C.ar    
  32 C32           10.6073    -6.0558    -4.1280 C.ar    
  33 C33           10.4860    -6.4628    -5.4457 C.ar    
  34 C34            9.8487    -5.6561    -6.3679 C.ar    
  35 O35            7.7749    -1.4115    -6.0290 O.2     
  36 C36           -1.1373     1.2561    -0.3385 C.ar    
  37 C37           -2.4481     1.6003    -0.2660 C.ar    
  38 C38           -2.8407     2.9500    -0.2993 C.ar    
  39 C39           -1.8927     3.9541    -0.4000 C.ar    
  40 C40           -4.2747     3.2996    -0.2198 C.2     
  41 N41           -5.2009     2.3261    -0.1159 N.am    
  42 O42           -4.6186     4.4652    -0.2482 O.2     
  43 C43           -6.6222     2.6726    -0.0372 C.3     
  44 C44           -7.4536     1.3930     0.0739 C.3     
  45 N45           -8.8788     1.7404     0.1528 N.3     
  46 C46           -9.3421     2.3506    -1.1006 C.3     
  47 C47           -9.6891     0.5644     0.4968 C.3     
  48 C48          -10.6782     3.0565    -0.8608 C.3     
  49 C49           -9.5443     0.2644     1.9901 C.3     
  50 H50            1.4765     6.6034    -1.9809 H       
  51 H51            3.1915     8.3570    -2.1669 H       
  52 H52            5.3760     8.0684    -1.0729 H       
  53 H53            5.8578     6.0268     0.2125 H       
  54 H54            4.1535     4.2645     0.4147 H       
  55 H55            3.3037     0.7910     0.6185 H       
  56 H56            5.6820     0.1791     0.4786 H       
  57 H57            6.3870     3.4514    -2.1665 H       
  58 H58            4.0106     4.0750    -2.0452 H       
  59 H59            8.2308     2.2939    -1.1021 H       
  60 H60            7.9368     0.9290     0.0018 H       
  61 H61            9.7463     1.2128    -2.4621 H       
  62 H62            9.7174    -0.2511    -1.4502 H       
  63 H63            8.9878    -0.1114    -4.4112 H       
  64 H64           10.4924    -0.7855    -3.7387 H       
  65 H65            9.2006    -2.4856    -2.5025 H       
  66 H66            6.7766    -1.2247    -3.8663 H       
  67 H67            6.7602    -2.6646    -2.8188 H       
  68 H68            7.6135    -1.3103    -0.9316 H       
  69 H69            6.0972    -0.6244    -1.5627 H       
  70 H70            8.4153    -3.4224    -7.5868 H       
  71 H71           10.1888    -4.5254    -2.6958 H       
  72 H72           11.1072    -6.6919    -3.4127 H       
  73 H73           10.8914    -7.4152    -5.7538 H       
  74 H74            9.7557    -5.9771    -7.3949 H       
  75 H75           -0.8520     0.2148    -0.3124 H       
  76 H76           -3.1986     0.8283    -0.1822 H       
  77 H77           -2.1987     4.9895    -0.4252 H       
  78 H78           -4.9265     1.3960    -0.0933 H       
  79 H79           -6.7961     3.2961     0.8397 H       
  80 H80           -6.9133     3.2183    -0.9347 H       
  81 H81           -7.2797     0.7694    -0.8031 H       
  82 H82           -7.1625     0.8472     0.9713 H       
  83 H83           -8.6050     3.0756    -1.4459 H       
  84 H84           -9.4711     1.5756    -1.8561 H       
  85 H85          -10.7355     0.7641     0.2661 H       
  86 H86           -9.3470    -0.2941    -0.0811 H       
  87 H87          -11.4476     2.3147    -0.6465 H       
  88 H88          -10.5831     3.7364    -0.0142 H       
  89 H89          -10.9557     3.6211    -1.7509 H       
  90 H90           -8.4968     0.0720     2.2221 H       
  91 H91           -9.8932     1.1201     2.5681 H       
  92 H92          -10.1396    -0.6127     2.2439 H       
@<TRIPOS>BOND
   1    1    2 ar
   2    1    3 ar
   3    1   39 ar
   4    2   36 ar
   5    2    6 ar
   6    3    4 ar
   7    4    5 ar
   8    4    8 1
   9    5    6 ar
  10    5    7 1
  11    7   14 ar
  12    7   18 ar
  13    8    9 ar
  14    8   13 ar
  15    9   10 ar
  16    9   50 1
  17   10   11 ar
  18   10   51 1
  19   11   12 ar
  20   11   52 1
  21   12   13 ar
  22   12   53 1
  23   13   54 1
  24   14   15 ar
  25   14   55 1
  26   15   16 ar
  27   15   56 1
  28   16   17 ar
  29   16   19 1
  30   17   18 ar
  31   17   57 1
  32   18   58 1
  33   19   20 1
  34   19   59 1
  35   19   60 1
  36   20   21 1
  37   20   25 1
  38   21   22 1
  39   21   61 1
  40   21   62 1
  41   22   23 1
  42   22   63 1
  43   22   64 1
  44   23   24 1
  45   23   26 1
  46   23   65 1
  47   24   25 1
  48   24   66 1
  49   24   67 1
  50   25   68 1
  51   25   69 1
  52   26   27 1
  53   26   30 am
  54   27   28 ar
  55   27   31 ar
  56   28   29 1
  57   28   34 ar
  58   29   30 am
  59   29   70 1
  60   30   35 2
  61   31   32 ar
  62   31   71 1
  63   32   33 ar
  64   32   72 1
  65   33   34 ar
  66   33   73 1
  67   34   74 1
  68   36   37 ar
  69   36   75 1
  70   37   38 ar
  71   37   76 1
  72   38   39 ar
  73   38   40 1
  74   39   77 1
  75   40   41 am
  76   40   42 2
  77   41   43 1
  78   41   78 1
  79   43   44 1
  80   43   79 1
  81   43   80 1
  82   44   45 1
  83   44   81 1
  84   44   82 1
  85   45   46 1
  86   45   47 1
  87   46   48 1
  88   46   83 1
  89   46   84 1
  90   47   49 1
  91   47   85 1
  92   47   86 1
  93   48   87 1
  94   48   88 1
  95   48   89 1
  96   49   90 1
  97   49   91 1
  98   49   92 1

#	End of record

