#	Name: ASD01882093
#	Creating user name:	WinNT
#	Creation time:	15. 06. 2019 19:43

#	Modifying user name:	WinNT
#	Modification time:	15. 06. 2019 19:43

#	Program:	/corina/corina34_cracker 3.40 0067  02.08.2006

@<TRIPOS>MOLECULE
ASD01882093
  18   18    0    0    0
SMALL
NO_CHARGES


@<TRIPOS>ATOM
   1 C1             0.0021    -0.0041     0.0020 C.1     
   2 C2            -0.0173     1.4278     0.0099 C.ar    
   3 C3             1.1823     2.1612     0.0024 C.ar    
   4 C4             1.1043     3.5506     0.0106 C.ar    
   5 C5            -0.1333     4.1601     0.0258 C.ar    
   6 N6            -1.2472     3.4514     0.0326 N.ar    
   7 C7            -1.2354     2.1277     0.0194 C.ar    
   8 N8             0.0175    -1.1399    -0.0042 N.1     
   9 O9             2.3828     1.5316    -0.0121 O.3     
  10 C10            3.5486     2.3579    -0.0188 C.3     
  11 N11           -2.4302     1.4290     0.0211 N.pl3   
  12 H12            2.0050     4.1466     0.0056 H       
  13 H13           -0.1921     5.2385     0.0325 H       
  14 H14            3.5396     2.9918    -0.9055 H       
  15 H15            3.5563     2.9827     0.8743 H       
  16 H16            4.4392     1.7296    -0.0303 H       
  17 H17           -2.4248     0.4590     0.0158 H       
  18 H18           -3.2729     1.9093     0.0277 H       
@<TRIPOS>BOND
   1    1    2 1
   2    1    8 3
   3    2    3 ar
   4    2    7 ar
   5    3    4 ar
   6    3    9 1
   7    4    5 ar
   8    4   12 1
   9    5    6 ar
  10    5   13 1
  11    6    7 ar
  12    7   11 1
  13    9   10 1
  14   10   14 1
  15   10   15 1
  16   10   16 1
  17   11   17 1
  18   11   18 1

#	End of record

