#	Name: ASD01912918
#	Creating user name:	WinNT
#	Creation time:	15. 06. 2019 20:00

#	Modifying user name:	WinNT
#	Modification time:	15. 06. 2019 20:00

#	Program:	/corina/corina34_cracker 3.40 0067  02.08.2006

@<TRIPOS>MOLECULE
ASD01912918
  44   48    0    0    0
SMALL
NO_CHARGES


@<TRIPOS>ATOM
   1 C1            -0.0175     1.3661    -0.0406 C.2     
   2 N2             0.0021    -0.0040     0.0057 N.pl3   
   3 C3            -1.2011    -0.6910     0.0646 C.2     
   4 C4            -2.3619    -0.0485     0.0767 C.2     
   5 N5            -2.4358     1.3306     0.0312 N.am    
   6 C6            -1.3028     2.0662    -0.0211 C.2     
   7 C7             1.2997     1.7823    -0.0940 C.2     
   8 C8             2.0538     0.6101    -0.0763 C.2     
   9 N9             1.2242    -0.4046    -0.0169 N.2     
  10 O10           -1.3507     3.2825    -0.0612 O.2     
  11 C11           -3.6839     1.9663     0.0457 C.ar    
  12 C12            3.5577     0.5236    -0.1180 C.3     
  13 O13            4.1091     1.8405    -0.1795 O.3     
  14 C14            5.4637     1.9408    -0.2232 C.ar    
  15 C15            6.0664     3.1889    -0.2839 C.ar    
  16 C16            7.4436     3.2882    -0.3283 C.ar    
  17 C17            8.2212     2.1450    -0.3123 C.ar    
  18 C18            7.6229     0.8999    -0.2523 C.ar    
  19 C19            6.2463     0.7955    -0.2015 C.ar    
  20 C20           -4.0586     2.7306     1.1498 C.ar    
  21 C21           -5.2824     3.3572     1.1691 C.ar    
  22 C22           -6.1520     3.2312     0.0872 C.ar    
  23 C23           -5.7904     2.4677    -1.0281 C.ar    
  24 C24           -4.5304     1.8365    -1.0339 C.ar    
  25 S25           -7.7595     3.8898    -0.2029 S.3     
  26 C26           -7.8239     3.1273    -1.7281 C.2     
  27 N27           -6.7560     2.4647    -1.9672 N.2     
  28 C28           -8.9927     3.2221    -2.6747 C.3     
  29 H29           -1.1931    -1.7704     0.1009 H       
  30 H30           -3.2767    -0.6207     0.1231 H       
  31 H31            1.6658     2.7973    -0.1397 H       
  32 H32            3.9178     0.0205     0.7794 H       
  33 H33            3.8649    -0.0404    -0.9988 H       
  34 H34            5.4595     4.0821    -0.2968 H       
  35 H35            7.9133     4.2595    -0.3758 H       
  36 H36            9.2976     2.2247    -0.3470 H       
  37 H37            8.2324     0.0084    -0.2406 H       
  38 H38            5.7794    -0.1773    -0.1547 H       
  39 H39           -3.3876     2.8302     1.9902 H       
  40 H40           -5.5709     3.9485     2.0255 H       
  41 H41           -4.2304     1.2422    -1.8843 H       
  42 H42           -9.7697     3.8447    -2.2314 H       
  43 H43           -8.6640     3.6655    -3.6146 H       
  44 H44           -9.3897     2.2245    -2.8628 H       
@<TRIPOS>BOND
   1    1    2 1
   2    1    7 2
   3    1    6 1
   4    2    3 1
   5    2    9 1
   6    3    4 2
   7    3   29 1
   8    4    5 1
   9    4   30 1
  10    5    6 am
  11    5   11 1
  12    6   10 2
  13    7    8 1
  14    7   31 1
  15    8    9 2
  16    8   12 1
  17   11   20 ar
  18   11   24 ar
  19   12   13 1
  20   12   32 1
  21   12   33 1
  22   13   14 1
  23   14   15 ar
  24   14   19 ar
  25   15   16 ar
  26   15   34 1
  27   16   17 ar
  28   16   35 1
  29   17   18 ar
  30   17   36 1
  31   18   19 ar
  32   18   37 1
  33   19   38 1
  34   20   21 ar
  35   20   39 1
  36   21   22 ar
  37   21   40 1
  38   22   23 ar
  39   22   25 1
  40   23   24 ar
  41   23   27 1
  42   24   41 1
  43   25   26 1
  44   26   27 2
  45   26   28 1
  46   28   42 1
  47   28   43 1
  48   28   44 1

#	End of record

