#	Name: ASD03320075
#	Creating user name:	WinNT
#	Creation time:	15. 06. 2019 20:36

#	Modifying user name:	WinNT
#	Modification time:	15. 06. 2019 20:36

#	Program:	/corina/corina34_cracker 3.40 0067  02.08.2006

@<TRIPOS>MOLECULE
ASD03320075
  49   52    0    0    0
SMALL
NO_CHARGES


@<TRIPOS>ATOM
   1 C1            -0.0611     1.5017    -0.1115 C.2     
   2 C2            -0.0203     0.0271    -0.1409 C.ar    
   3 C3             1.1817    -0.6447    -0.4036 C.ar    
   4 C4             1.1690    -2.0344    -0.4205 C.ar    
   5 C5            -0.0391    -2.7075    -0.1755 C.ar    
   6 N6            -1.1527    -2.0331     0.0686 N.ar    
   7 C7            -1.1770    -0.7171     0.0983 C.ar    
   8 O8             0.9522     2.1422    -0.3160 O.2     
   9 N9            -1.2226     2.1388     0.1365 N.am    
  10 C10           -1.2420     3.5328     0.2696 C.ar    
  11 C11           -2.3515     4.2552    -0.1492 C.ar    
  12 C12           -2.3700     5.6296    -0.0172 C.ar    
  13 C13           -1.2807     6.2887     0.5336 C.ar    
  14 C14           -0.1718     5.5677     0.9518 C.ar    
  15 C15           -0.1541     4.1927     0.8257 C.ar    
  16 O16           -1.2997     7.6421     0.6633 O.3     
  17 C17           -0.1442     8.2549     1.2388 C.3     
  18 F18            0.9764     7.9684     0.4518 F       
  19 F19           -0.3313     9.6402     1.2972 F       
  20 F20            0.0535     7.7563     2.5309 F       
  21 N21            3.8744    -4.4181    -0.9626 N.pl3   
  22 N22            2.5495    -4.1034    -0.6344 N.2     
  23 C23            2.4129    -2.7955    -0.6939 C.2     
  24 C24            3.6563    -2.2462    -1.0636 C.2     
  25 C25            4.5289    -3.2654    -1.2204 C.2     
  26 N26           -0.0664    -4.0904    -0.1898 N.3     
  27 C27           -0.4744    -4.6244     1.1226 C.3     
  28 C28           -1.7119    -5.5162     0.8886 C.3     
  29 C29           -1.5931    -5.8921    -0.6119 C.3     
  30 C30           -1.0067    -4.5912    -1.2148 C.3     
  31 O31           -1.6544    -6.6853     1.7083 O.3     
  32 H32            2.0938    -0.0967    -0.5884 H       
  33 H33           -2.1056    -0.2061     0.3058 H       
  34 H34           -2.0450     1.6319     0.2227 H       
  35 H35           -3.1995     3.7423    -0.5784 H       
  36 H36           -3.2327     6.1917    -0.3432 H       
  37 H37            0.6761     6.0815     1.3802 H       
  38 H38            0.7074     3.6311     1.1557 H       
  39 H39            4.2564    -5.3091    -0.9950 H       
  40 H40            3.8734    -1.1968    -1.1975 H       
  41 H41            5.5675    -3.1744    -1.5023 H       
  42 H42            0.3345    -5.2172     1.5495 H       
  43 H43           -0.7300    -3.8042     1.7934 H       
  44 H44           -2.6297    -4.9585     1.0747 H       
  45 H45           -0.9098    -6.7298    -0.7517 H       
  46 H46           -2.5718    -6.1132    -1.0377 H       
  47 H47           -1.7991    -3.8637    -1.3908 H       
  48 H48           -0.4767    -4.8081    -2.1423 H       
  49 H49           -2.4093    -7.2797     1.5992 H       
@<TRIPOS>BOND
   1    1    2 1
   2    1    8 2
   3    1    9 am
   4    2    3 ar
   5    2    7 ar
   6    3    4 ar
   7    3   32 1
   8    4    5 ar
   9    4   23 1
  10    5    6 ar
  11    5   26 1
  12    6    7 ar
  13    7   33 1
  14    9   10 1
  15    9   34 1
  16   10   11 ar
  17   10   15 ar
  18   11   12 ar
  19   11   35 1
  20   12   13 ar
  21   12   36 1
  22   13   14 ar
  23   13   16 1
  24   14   15 ar
  25   14   37 1
  26   15   38 1
  27   16   17 1
  28   17   18 1
  29   17   19 1
  30   17   20 1
  31   21   22 1
  32   21   25 1
  33   21   39 1
  34   22   23 2
  35   23   24 1
  36   24   25 2
  37   24   40 1
  38   25   41 1
  39   26   27 1
  40   26   30 1
  41   27   28 1
  42   27   42 1
  43   27   43 1
  44   28   29 1
  45   28   31 1
  46   28   44 1
  47   29   30 1
  48   29   45 1
  49   29   46 1
  50   30   47 1
  51   30   48 1
  52   31   49 1

#	End of record

