#	Name: ASD00431259
#	Creating user name:	WinNT
#	Creation time:	15. 06. 2019 18:35

#	Modifying user name:	WinNT
#	Modification time:	15. 06. 2019 18:35

#	Program:	/corina/corina34_cracker 3.40 0067  02.08.2006

@<TRIPOS>MOLECULE
ASD00431259
  20   21    0    0    0
SMALL
NO_CHARGES


@<TRIPOS>ATOM
   1 C1            -0.0110     1.2570    -0.7663 C.ar    
   2 C2             0.0038    -0.0315    -0.2523 C.ar    
   3 C3             1.2079    -0.6636    -0.0075 C.ar    
   4 C4             2.4025    -0.0088    -0.2762 C.ar    
   5 C5             2.3866     1.2791    -0.7899 C.ar    
   6 C6             1.1823     1.9106    -1.0345 C.ar    
   7 O7            -1.1959     1.8770    -1.0125 O.3     
   8 O8             3.5878    -0.6302    -0.0351 O.3     
   9 S9             6.3089    -0.5336    -0.0603 S.3     
  10 C10            4.7236     0.1010    -0.1458 C.2     
  11 N11            4.7660     1.3821    -0.3327 N.2     
  12 C12            5.9623     1.9346    -0.4184 C.2     
  13 C13            6.9783     1.0786    -0.2981 C.2     
  14 Cl14           1.2271    -2.2758     0.6362 Cl      
  15 H15           -0.9256    -0.5402    -0.0432 H       
  16 H16            3.3157     1.7887    -0.9985 H       
  17 H17            1.1703     2.9136    -1.4350 H       
  18 H18           -1.5378     2.3837    -0.2632 H       
  19 H19            6.1065     2.9936    -0.5736 H       
  20 H20            8.0278     1.3300    -0.3389 H       
@<TRIPOS>BOND
   1    1    2 ar
   2    1    6 ar
   3    1    7 1
   4    2    3 ar
   5    2   15 1
   6    3    4 ar
   7    3   14 1
   8    4    5 ar
   9    4    8 1
  10    5    6 ar
  11    5   16 1
  12    6   17 1
  13    7   18 1
  14    8   10 1
  15    9   10 1
  16    9   13 1
  17   10   11 2
  18   11   12 1
  19   12   13 2
  20   12   19 1
  21   13   20 1

#	End of record

