#	Name: ASD01911163
#	Creating user name:	WinNT
#	Creation time:	15. 06. 2019 19:57

#	Modifying user name:	WinNT
#	Modification time:	15. 06. 2019 19:57

#	Program:	/corina/corina34_cracker 3.40 0067  02.08.2006

@<TRIPOS>MOLECULE
ASD01911163
  43   46    0    0    0
SMALL
NO_CHARGES


@<TRIPOS>ATOM
   1 C1             0.0031     1.3384    -0.1333 C.ar    
   2 C2             0.0301    -0.0469    -0.1754 C.ar    
   3 C3             1.2350    -0.7239    -0.1981 C.ar    
   4 C4             2.4331    -0.0270    -0.1794 C.ar    
   5 C5             2.4215     1.3580    -0.1378 C.ar    
   6 C6             1.1929     2.0484    -0.1142 C.ar    
   7 C7             3.4709     2.3986    -0.1080 C.2     
   8 N8             2.8771     3.6051    -0.0704 N.am    
   9 C9             1.5372     3.4852    -0.0714 C.2     
  10 C10            3.5951     4.8816    -0.0329 C.3     
  11 C11            3.8388     5.3624    -1.4402 C.ar    
  12 C12            2.9037     6.1728    -2.0697 C.ar    
  13 C13            3.1318     6.6140    -3.3672 C.ar    
  14 C14            4.2873     6.2460    -4.0279 C.ar    
  15 C15            5.2178     5.4385    -3.4003 C.ar    
  16 C16            4.9973     5.0014    -2.1048 C.ar    
  17 N17            1.7340     6.5439    -1.3992 N.am    
  18 C18            0.6275     6.8619    -2.0999 C.2     
  19 C19           -0.6323     7.1719    -1.3915 C.ar    
  20 C20           -1.7801     7.5016    -2.1143 C.ar    
  21 C21           -2.9526     7.7898    -1.4470 C.ar    
  22 C22           -2.9924     7.7526    -0.0644 C.ar    
  23 C23           -1.8583     7.4265     0.6580 C.ar    
  24 C24           -0.6809     7.1305     0.0029 C.ar    
  25 O25            0.7433     4.4038    -0.0424 O.2     
  26 O26            4.6686     2.1980    -0.1162 O.2     
  27 F27            5.9084     4.2129    -1.4938 F       
  28 O28            0.6656     6.8939    -3.3145 O.2     
  29 H29           -0.9412     1.8622    -0.1199 H       
  30 H30           -0.8967    -0.6010    -0.1903 H       
  31 H31            1.2431    -1.8034    -0.2302 H       
  32 H32            3.3715    -0.5612    -0.1969 H       
  33 H33            2.9983     5.6185     0.5045 H       
  34 H34            4.5498     4.7467     0.4754 H       
  35 H35            2.4056     7.2442    -3.8590 H       
  36 H36            4.4642     6.5892    -5.0366 H       
  37 H37            6.1202     5.1517    -3.9197 H       
  38 H38            1.7190     6.5725    -0.4297 H       
  39 H39           -1.7502     7.5314    -3.1935 H       
  40 H40           -3.8412     8.0455    -2.0049 H       
  41 H41           -3.9128     7.9794     0.4531 H       
  42 H42           -1.8962     7.3992     1.7370 H       
  43 H43            0.2037     6.8761     0.5680 H       
@<TRIPOS>BOND
   1    1    2 ar
   2    1    6 ar
   3    1   29 1
   4    2    3 ar
   5    2   30 1
   6    3    4 ar
   7    3   31 1
   8    4    5 ar
   9    4   32 1
  10    5    6 ar
  11    5    7 1
  12    6    9 1
  13    7    8 am
  14    7   26 2
  15    8    9 am
  16    8   10 1
  17    9   25 2
  18   10   11 1
  19   10   33 1
  20   10   34 1
  21   11   12 ar
  22   11   16 ar
  23   12   13 ar
  24   12   17 1
  25   13   14 ar
  26   13   35 1
  27   14   15 ar
  28   14   36 1
  29   15   16 ar
  30   15   37 1
  31   16   27 1
  32   17   18 am
  33   17   38 1
  34   18   19 1
  35   18   28 2
  36   19   20 ar
  37   19   24 ar
  38   20   21 ar
  39   20   39 1
  40   21   22 ar
  41   21   40 1
  42   22   23 ar
  43   22   41 1
  44   23   24 ar
  45   23   42 1
  46   24   43 1

#	End of record

