#	Name: ASD01883685
#	Creating user name:	WinNT
#	Creation time:	15. 06. 2019 19:46

#	Modifying user name:	WinNT
#	Modification time:	15. 06. 2019 19:46

#	Program:	/corina/corina34_cracker 3.40 0067  02.08.2006

@<TRIPOS>MOLECULE
ASD01883685
  43   46    0    0    0
SMALL
NO_CHARGES


@<TRIPOS>ATOM
   1 C1             0.0149     1.1637    -1.5526 C.2     
   2 C2             0.0353    -0.0657    -0.8782 C.2     
   3 C3            -1.1789    -0.6084    -0.4085 C.2     
   4 C4            -2.3458     0.0352    -0.5996 C.2     
   5 N5            -2.4114     1.2329    -1.2503 N.pl3   
   6 C6            -1.2758     1.8317    -1.7328 C.2     
   7 C7            -3.4588     2.0608    -1.5606 C.2     
   8 C8            -2.9463     3.1225    -2.2179 C.2     
   9 N9            -1.6216     2.9671    -2.3123 N.2     
  10 C10           -4.9107     1.8292    -1.2299 C.3     
  11 C11           -5.6067     1.1704    -2.4226 C.3     
  12 C12            1.3104    -0.7823    -0.6631 C.ar    
  13 C13            1.7976    -0.9709     0.6321 C.ar    
  14 C14            2.9863    -1.6392     0.8285 C.ar    
  15 C15            3.7004    -2.1250    -0.2600 C.ar    
  16 C16            3.2189    -1.9393    -1.5502 C.ar    
  17 C17            2.0278    -1.2774    -1.7543 C.ar    
  18 O18            4.8720    -2.7824    -0.0626 O.3     
  19 C19            6.0203    -2.0560    -0.0703 C.ar    
  20 C20            5.9667    -0.6734    -0.1672 C.ar    
  21 C21            7.1377     0.0638    -0.1744 C.ar    
  22 C22            8.3612    -0.5788    -0.0854 C.ar    
  23 C23            8.4150    -1.9569     0.0108 C.ar    
  24 C24            7.2482    -2.6961     0.0245 C.ar    
  25 F25           -4.9912    -0.0541    -2.7036 F       
  26 F26           -6.9545     0.9554    -2.1156 F       
  27 F27           -5.5106     2.0077    -3.5393 F       
  28 F28            7.0874     1.4106    -0.2687 F       
  29 C29            1.2233     1.7524    -2.0463 C.1     
  30 N30            2.1820     2.2194    -2.4378 N.1     
  31 H31           -1.1725    -1.5547     0.1119 H       
  32 H32           -3.2568    -0.4096    -0.2273 H       
  33 H33           -3.5114     3.9595    -2.6006 H       
  34 H34           -4.9855     1.1768    -0.3599 H       
  35 H35           -5.3902     2.7832    -1.0109 H       
  36 H36            1.2435    -0.5930     1.4786 H       
  37 H37            3.3637    -1.7855     1.8298 H       
  38 H38            3.7767    -2.3183    -2.3938 H       
  39 H39            1.6540    -1.1338    -2.7573 H       
  40 H40            5.0123    -0.1729    -0.2373 H       
  41 H41            9.2746    -0.0026    -0.0914 H       
  42 H42            9.3703    -2.4559     0.0797 H       
  43 H43            7.2917    -3.7725     0.1000 H       
@<TRIPOS>BOND
   1    1    2 2
   2    1   29 1
   3    1    6 1
   4    2    3 1
   5    2   12 1
   6    3    4 2
   7    3   31 1
   8    4    5 1
   9    4   32 1
  10    5    6 1
  11    5    7 1
  12    6    9 2
  13    7    8 2
  14    7   10 1
  15    8    9 1
  16    8   33 1
  17   10   11 1
  18   10   34 1
  19   10   35 1
  20   11   25 1
  21   11   26 1
  22   11   27 1
  23   12   13 ar
  24   12   17 ar
  25   13   14 ar
  26   13   36 1
  27   14   15 ar
  28   14   37 1
  29   15   16 ar
  30   15   18 1
  31   16   17 ar
  32   16   38 1
  33   17   39 1
  34   18   19 1
  35   19   20 ar
  36   19   24 ar
  37   20   21 ar
  38   20   40 1
  39   21   22 ar
  40   21   28 1
  41   22   23 ar
  42   22   41 1
  43   23   24 ar
  44   23   42 1
  45   24   43 1
  46   29   30 3

#	End of record

