#	Name: ASD01410768
#	Creating user name:	WinNT
#	Creation time:	15. 06. 2019 19:18

#	Modifying user name:	WinNT
#	Modification time:	15. 06. 2019 19:18

#	Program:	/corina/corina34_cracker 3.40 0067  02.08.2006

@<TRIPOS>MOLECULE
ASD01410768
  51   52    0    0    0
SMALL
NO_CHARGES


@<TRIPOS>ATOM
   1 S1             1.1449     0.9075    -0.8270 S.3     
   2 C2             0.4507    -0.1881     0.3641 C.2     
   3 N3             1.2716    -0.2902     1.3744 N.2     
   4 C4             2.3738     0.4067     1.2872 C.2     
   5 C5             2.5165     1.1363     0.1694 C.2     
   6 C6            -0.8445    -0.8766     0.2409 C.2     
   7 O7            -1.2280    -1.6140     1.1288 O.2     
   8 N8            -1.6053    -0.6899    -0.8558 N.am    
   9 C9            -2.7970    -1.3920    -1.0032 C.ar    
  10 C10           -2.8510    -2.7457    -0.7067 C.ar    
  11 C11           -4.0434    -3.4396    -0.8563 C.ar    
  12 C12           -5.1878    -2.7836    -1.3031 C.ar    
  13 C13           -5.1508    -1.4522    -1.5989 C.ar    
  14 C14           -3.9578    -0.7319    -1.4490 C.ar    
  15 O15           -4.0945    -4.7642    -0.5661 O.3     
  16 C16           -5.3526    -5.4187    -0.7417 C.3     
  17 C17           -5.2154    -6.8960    -0.3679 C.3     
  18 O18           -4.2371    -7.5112    -1.2084 O.3     
  19 C19           -4.2684    -8.9397    -1.1875 C.3     
  20 O20           -4.8077    -7.0061     0.9972 O.3     
  21 C21           -5.0258    -8.2984     1.5666 C.3     
  22 Cl22          -1.4289    -3.5711    -0.1497 Cl      
  23 C23           -3.9176     0.6986    -1.7602 C.2     
  24 O24           -2.9094     1.3384    -1.5443 O.2     
  25 C25           -5.1283     1.3761    -2.3487 C.3     
  26 C26            3.4185     0.3926     2.3733 C.3     
  27 C27            4.4937    -0.6414     2.0333 C.3     
  28 C28            4.0593     1.7776     2.4826 C.3     
  29 H29            3.3620     1.7665    -0.0636 H       
  30 H30           -1.3219    -0.0659    -1.5422 H       
  31 H31           -6.1109    -3.3327    -1.4165 H       
  32 H32           -6.0430    -0.9517    -1.9451 H       
  33 H33           -6.0988    -4.9495    -0.1007 H       
  34 H34           -5.6636    -5.3348    -1.7830 H       
  35 H35           -6.1751    -7.3952    -0.5019 H       
  36 H36           -5.3023    -9.2812    -1.2387 H       
  37 H37           -3.7148    -9.3278    -2.0425 H       
  38 H38           -3.8121    -9.2997    -0.2654 H       
  39 H39           -4.8693    -8.2518     2.6443 H       
  40 H40           -6.0474    -8.6182     1.3613 H       
  41 H41           -4.3271    -9.0111     1.1285 H       
  42 H42           -5.9687     1.2797    -1.6612 H       
  43 H43           -4.9110     2.4318    -2.5110 H       
  44 H44           -5.3811     0.9067    -3.2995 H       
  45 H45            2.9515     0.1323     3.3232 H       
  46 H46            5.2493    -0.6516     2.8188 H       
  47 H47            4.0372    -1.6281     1.9554 H       
  48 H48            4.9607    -0.3811     1.0834 H       
  49 H49            3.2932     2.5143     2.7249 H       
  50 H50            4.8148     1.7674     3.2682 H       
  51 H51            4.5262     2.0379     1.5327 H       
@<TRIPOS>BOND
   1    1    2 1
   2    1    5 1
   3    2    3 2
   4    2    6 1
   5    3    4 1
   6    4    5 2
   7    4   26 1
   8    5   29 1
   9    6    7 2
  10    6    8 am
  11    8    9 1
  12    8   30 1
  13    9   10 ar
  14    9   14 ar
  15   10   11 ar
  16   10   22 1
  17   11   12 ar
  18   11   15 1
  19   12   13 ar
  20   12   31 1
  21   13   14 ar
  22   13   32 1
  23   14   23 1
  24   15   16 1
  25   16   17 1
  26   16   33 1
  27   16   34 1
  28   17   18 1
  29   17   20 1
  30   17   35 1
  31   18   19 1
  32   19   36 1
  33   19   37 1
  34   19   38 1
  35   20   21 1
  36   21   39 1
  37   21   40 1
  38   21   41 1
  39   23   24 2
  40   23   25 1
  41   25   42 1
  42   25   43 1
  43   25   44 1
  44   26   27 1
  45   26   28 1
  46   26   45 1
  47   27   46 1
  48   27   47 1
  49   27   48 1
  50   28   49 1
  51   28   50 1
  52   28   51 1

#	End of record

