#	Name: ASD01209101
#	Creating user name:	WinNT
#	Creation time:	15. 06. 2019 19:10

#	Modifying user name:	WinNT
#	Modification time:	15. 06. 2019 19:10

#	Program:	/corina/corina34_cracker 3.40 0067  02.08.2006

@<TRIPOS>MOLECULE
ASD01209101
  73   75    0    0    0
SMALL
NO_CHARGES


@<TRIPOS>ATOM
   1 C1             0.2331     1.7935     0.4590 C.ar    
   2 C2             1.3716     2.5561     1.0134 C.2     
   3 N3             1.2871     3.8950     1.1420 N.am    
   4 O4             2.3841     1.9755     1.3532 O.2     
   5 C5             0.3185     0.4073     0.3249 C.ar    
   6 C6            -0.7509    -0.3036    -0.1947 C.ar    
   7 C7            -1.9055     0.3606    -0.5815 C.ar    
   8 C8            -1.9947     1.7394    -0.4503 C.ar    
   9 C9            -0.9323     2.4573     0.0736 C.ar    
  10 C10            2.3568     4.6116     1.6630 C.2     
  11 N11            3.4785     4.0922     2.0540 N.2     
  12 P12            5.8348     8.0242     1.6202 P.3     
  13 O13            6.6311     6.9330     1.0156 O.2     
  14 C14            4.3899     4.9231     2.5240 C.2     
  15 C15            4.0210     6.2055     2.5303 C.2     
  16 S16            2.3889     6.3077     1.8750 S.3     
  17 C17            4.8565     7.3645     3.0098 C.3     
  18 O18           -3.1280     2.3853    -0.8312 O.3     
  19 C19           -3.1178     3.0449    -2.0191 C.ar    
  20 C20           -4.2410     3.7456    -2.4347 C.ar    
  21 C21           -1.9821     3.0238    -2.8161 C.ar    
  22 C22           -1.9742     3.6956    -4.0230 C.ar    
  23 C23           -3.0966     4.3887    -4.4373 C.ar    
  24 C24           -4.2278     4.4158    -3.6426 C.ar    
  25 S25           -3.0829     5.2451    -5.9771 S.o2    
  26 O26           -1.7115     5.5432    -6.2001 O.2     
  27 C27           -3.6723     4.0222    -7.1804 C.3     
  28 O28           -4.0402     6.2818    -5.8101 O.2     
  29 O29           -0.6685    -1.6538    -0.3261 O.3     
  30 C30           -1.8386    -2.3336    -0.7850 C.3     
  31 C31           -1.7995    -3.7895    -0.3162 C.3     
  32 C32           -1.8865    -2.2912    -2.3137 C.3     
  33 O33            6.8235     9.1752     2.1587 O.3     
  34 C34            7.7956     9.8163     1.3305 C.3     
  35 C35            8.5615    10.8544     2.1531 C.3     
  36 O36            4.8440     8.6430     0.5123 O.3     
  37 C37            5.2995     9.1453    -0.7456 C.3     
  38 C38            4.1050     9.6563    -1.5535 C.3     
  39 O39           -0.7031    -4.4613    -0.9395 O.3     
  40 C40           -0.5759    -5.8351    -0.5674 C.3     
  41 H41            0.4791     4.3582     0.8708 H       
  42 H42            1.2173    -0.1106     0.6254 H       
  43 H43           -2.7374    -0.1967    -0.9862 H       
  44 H44           -1.0026     3.5301     0.1757 H       
  45 H45            5.3560     4.5919     2.8752 H       
  46 H46            5.5282     7.0263     3.7988 H       
  47 H47            4.2041     8.1465     3.3984 H       
  48 H48           -5.1250     3.7668    -1.8146 H       
  49 H49           -1.1050     2.4829    -2.4928 H       
  50 H50           -1.0903     3.6797    -4.6435 H       
  51 H51           -5.1034     4.9575    -3.9686 H       
  52 H52           -4.6752     3.6958    -6.9052 H       
  53 H53           -3.6961     4.4715    -8.1731 H       
  54 H54           -2.9998     3.1644    -7.1858 H       
  55 H55           -2.7249    -1.8451    -0.3801 H       
  56 H56           -1.6760    -3.8194     0.7664 H       
  57 H57           -2.7315    -4.2843    -0.5894 H       
  58 H58           -2.7790    -2.8097    -2.6638 H       
  59 H59           -1.9143    -1.2540    -2.6477 H       
  60 H60           -1.0002    -2.7796    -2.7187 H       
  61 H61            8.4925     9.0719     0.9452 H       
  62 H62            7.2946    10.3102     0.4979 H       
  63 H63            9.3030    11.3435     1.5213 H       
  64 H64            7.8647    11.5988     2.5383 H       
  65 H65            9.0625    10.3605     2.9856 H       
  66 H66            6.0011     9.9624    -0.5780 H       
  67 H67            5.7965     8.3471    -1.2971 H       
  68 H68            4.4524    10.0394    -2.5130 H       
  69 H69            3.4034     8.8391    -1.7211 H       
  70 H70            3.6080    10.4544    -1.0020 H       
  71 H71            0.2789    -6.2735    -1.0825 H       
  72 H72           -0.4270    -5.9075     0.5100 H       
  73 H73           -1.4825    -6.3724    -0.8457 H       
@<TRIPOS>BOND
   1    1    5 ar
   2    1    2 1
   3    1    9 ar
   4    2    3 am
   5    2    4 2
   6    3   10 1
   7    3   41 1
   8    5    6 ar
   9    5   42 1
  10    6    7 ar
  11    6   29 1
  12    7    8 ar
  13    7   43 1
  14    8    9 ar
  15    8   18 1
  16    9   44 1
  17   10   11 2
  18   10   16 1
  19   11   14 1
  20   12   13 2
  21   12   33 1
  22   12   36 1
  23   12   17 1
  24   14   15 2
  25   14   45 1
  26   15   16 1
  27   15   17 1
  28   17   46 1
  29   17   47 1
  30   18   19 1
  31   19   20 ar
  32   19   21 ar
  33   20   24 ar
  34   20   48 1
  35   21   22 ar
  36   21   49 1
  37   22   23 ar
  38   22   50 1
  39   23   24 ar
  40   23   25 1
  41   24   51 1
  42   25   26 2
  43   25   27 1
  44   25   28 2
  45   27   52 1
  46   27   53 1
  47   27   54 1
  48   29   30 1
  49   30   31 1
  50   30   32 1
  51   30   55 1
  52   31   39 1
  53   31   56 1
  54   31   57 1
  55   32   58 1
  56   32   59 1
  57   32   60 1
  58   33   34 1
  59   34   35 1
  60   34   61 1
  61   34   62 1
  62   35   63 1
  63   35   64 1
  64   35   65 1
  65   36   37 1
  66   37   38 1
  67   37   66 1
  68   37   67 1
  69   38   68 1
  70   38   69 1
  71   38   70 1
  72   39   40 1
  73   40   71 1
  74   40   72 1
  75   40   73 1

#	End of record

