#	Name: ASD02030411
#	Creating user name:	WinNT
#	Creation time:	15. 06. 2019 20:15

#	Modifying user name:	WinNT
#	Modification time:	15. 06. 2019 20:15

#	Program:	/corina/corina34_cracker 3.40 0067  02.08.2006

@<TRIPOS>MOLECULE
ASD02030411
  17   17    0    0    0
SMALL
NO_CHARGES


@<TRIPOS>ATOM
   1 N1            -0.0168     1.3877     0.0097 N.pl3   
   2 C2             1.1890    -2.0822    -0.0196 C.ar    
   3 C3             1.2099    -0.7027    -0.0133 C.ar    
   4 C4             0.0021    -0.0041     0.0020 C.ar    
   5 C5            -1.1841    -0.7340     0.0099 C.ar    
   6 C6            -1.1225    -2.1180     0.0023 C.ar    
   7 N7             0.0447    -2.7432    -0.0118 N.ar    
   8 O8            -2.2707    -2.8408     0.0099 O.3     
   9 C9            -2.1416    -4.2639     0.0014 C.3     
  10 Cl10           2.6857    -2.9613    -0.0459 Cl      
  11 H11            0.8166     1.8841     0.0044 H       
  12 H12           -0.8633     1.8613     0.0163 H       
  13 H13            2.1494    -0.1702    -0.0193 H       
  14 H14           -2.1383    -0.2283     0.0221 H       
  15 H15           -3.1321    -4.7187     0.0088 H       
  16 H16           -1.6057    -4.5748    -0.8954 H       
  17 H17           -1.5884    -4.5837     0.8845 H       
@<TRIPOS>BOND
   1    1    4 1
   2    1   11 1
   3    1   12 1
   4    2    3 ar
   5    2    7 ar
   6    2   10 1
   7    3    4 ar
   8    3   13 1
   9    4    5 ar
  10    5    6 ar
  11    5   14 1
  12    6    7 ar
  13    6    8 1
  14    8    9 1
  15    9   15 1
  16    9   16 1
  17    9   17 1

#	End of record

