#	Name: ASD09080014
#	Creating user name:	WinNT
#	Creation time:	15. 06. 2019 21:20

#	Modifying user name:	WinNT
#	Modification time:	15. 06. 2019 21:20

#	Program:	/corina/corina34_cracker 3.40 0067  02.08.2006

@<TRIPOS>MOLECULE
ASD09080014
  63   65    0    0    0
SMALL
NO_CHARGES


@<TRIPOS>ATOM
   1 C1            -0.0430     1.1257     1.4926 C.ar    
   2 C2            -0.0254    -0.2512     1.3517 C.ar    
   3 C3            -1.1843    -0.9325     1.0219 C.ar    
   4 C4            -2.3647    -0.2406     0.8319 C.ar    
   5 C5            -2.3877     1.1452     0.9730 C.ar    
   6 C6            -1.2197     1.8260     1.3102 C.ar    
   7 Cl7            1.4145     1.9731     1.9064 Cl      
   8 Cl8           -1.1540    -2.6594     0.8464 Cl      
   9 C9            -3.6529     1.8934     0.7694 C.ar    
  10 C10           -3.6762     3.2794     0.9105 C.ar    
  11 C11           -4.8556     3.9702     0.7195 C.ar    
  12 C12           -6.0133     3.2892     0.3890 C.ar    
  13 C13           -5.9960     1.9133     0.2481 C.ar    
  14 C14           -4.8208     1.2130     0.4307 C.ar    
  15 C15           -7.2982     4.0490     0.1822 C.3     
  16 C16           -7.4202     4.4539    -1.2882 C.3     
  17 C17           -8.6602     5.3307    -1.4745 C.3     
  18 C18           -8.4809     6.6895    -0.7625 C.3     
  19 N19           -7.5428     3.2522    -2.1171 N.am    
  20 O20           -9.7620     6.9751    -0.1728 O.3     
  21 O21           -9.8014     4.7563    -0.7922 O.3     
  22 C22          -10.6446     5.9004    -0.5378 C.3     
  23 C23          -11.6089     5.5982     0.6110 C.3     
  24 C24          -11.4275     6.2681    -1.7999 C.3     
  25 C25           -8.4917     2.3361    -1.8397 C.2     
  26 C26           -8.5517     1.0517    -2.6257 C.3     
  27 O27           -9.2972     2.5454    -0.9575 O.2     
  28 O28           -9.7034     0.3042    -2.2294 O.3     
  29 C29           -9.9172    -0.8833    -2.9951 C.3     
  30 C30           -8.1137     7.7583    -1.7594 C.2     
  31 O31           -8.8924     8.6492    -2.0043 O.2     
  32 O32           -6.9217     7.7205    -2.3754 O.3     
  33 C33           -5.1555     8.6834    -3.7478 C.3     
  34 C34           -6.5887     8.8415    -3.2361 C.3     
  35 H35            0.8956    -0.7956     1.4992 H       
  36 H36           -3.2683    -0.7731     0.5739 H       
  37 H37           -1.2325     2.9002     1.4208 H       
  38 H38           -2.7730     3.8121     1.1692 H       
  39 H39           -4.8748     5.0446     0.8286 H       
  40 H40           -6.9029     1.3864    -0.0097 H       
  41 H41           -4.8083     0.1388     0.3201 H       
  42 H42           -8.1425     3.4163     0.4561 H       
  43 H43           -7.2964     4.9426     0.8062 H       
  44 H44           -6.5326     5.0119    -1.5862 H       
  45 H45           -8.8731     5.4752    -2.5337 H       
  46 H46           -7.7167     6.6136     0.0110 H       
  47 H47           -6.9411     3.1158    -2.8656 H       
  48 H48          -11.0400     5.3661     1.5113 H       
  49 H49          -12.2398     6.4680     0.7941 H       
  50 H50          -12.2338     4.7454     0.3461 H       
  51 H51          -12.0497     5.4250    -2.1000 H       
  52 H52          -12.0599     7.1322    -1.5963 H       
  53 H53          -10.7304     6.5090    -2.6025 H       
  54 H54           -8.6149     1.2796    -3.6897 H       
  55 H55           -7.6536     0.4652    -2.4324 H       
  56 H56           -9.9620    -0.6296    -4.0542 H       
  57 H57           -9.0964    -1.5795    -2.8227 H       
  58 H58          -10.8563    -1.3466    -2.6924 H       
  59 H59           -4.8749     9.5669    -4.3212 H       
  60 H60           -4.4781     8.5693    -2.9015 H       
  61 H61           -5.0924     7.8015    -4.3851 H       
  62 H62           -7.2757     8.8667    -4.0820 H       
  63 H63           -6.6728     9.7703    -2.6720 H       
@<TRIPOS>BOND
   1    1    2 ar
   2    1    7 1
   3    1    6 ar
   4    2    3 ar
   5    2   35 1
   6    3    4 ar
   7    3    8 1
   8    4    5 ar
   9    4   36 1
  10    5    6 ar
  11    5    9 1
  12    6   37 1
  13    9   10 ar
  14    9   14 ar
  15   10   11 ar
  16   10   38 1
  17   11   12 ar
  18   11   39 1
  19   12   13 ar
  20   12   15 1
  21   13   14 ar
  22   13   40 1
  23   14   41 1
  24   15   16 1
  25   15   42 1
  26   15   43 1
  27   16   19 1
  28   16   17 1
  29   16   44 1
  30   17   18 1
  31   17   21 1
  32   17   45 1
  33   18   20 1
  34   18   30 1
  35   18   46 1
  36   19   25 am
  37   19   47 1
  38   20   22 1
  39   21   22 1
  40   22   23 1
  41   22   24 1
  42   23   48 1
  43   23   49 1
  44   23   50 1
  45   24   51 1
  46   24   52 1
  47   24   53 1
  48   25   26 1
  49   25   27 2
  50   26   28 1
  51   26   54 1
  52   26   55 1
  53   28   29 1
  54   29   56 1
  55   29   57 1
  56   29   58 1
  57   30   31 2
  58   30   32 1
  59   32   34 1
  60   33   34 1
  61   33   59 1
  62   33   60 1
  63   33   61 1
  64   34   62 1
  65   34   63 1

#	End of record

