#	Name: ASD01915069
#	Creating user name:	WinNT
#	Creation time:	15. 06. 2019 20:04

#	Modifying user name:	WinNT
#	Modification time:	15. 06. 2019 20:04

#	Program:	/corina/corina34_cracker 3.40 0067  02.08.2006

@<TRIPOS>MOLECULE
ASD01915069
  39   42    0    0    0
SMALL
NO_CHARGES


@<TRIPOS>ATOM
   1 C1            -0.0169     1.3918     0.0097 C.ar    
   2 C2             0.0021    -0.0041     0.0020 C.ar    
   3 N3            -1.1415    -0.6923     0.0099 N.ar    
   4 C4            -2.3143    -0.1035     0.0249 C.ar    
   5 C5            -2.4179     1.2851     0.0335 C.ar    
   6 C6            -1.2647     2.0490     0.0305 C.ar    
   7 C7             1.3289     1.9587    -0.0001 C.2     
   8 C8             2.3069     1.0537    -0.0143 C.2     
   9 S9             1.6661    -0.5773    -0.0169 S.3     
  10 C10            1.5851     3.4166     0.0053 C.ar    
  11 C11            1.2208     4.2062     1.1009 C.ar    
  12 S12            4.0244     1.4467    -0.0280 S.o2    
  13 O13            4.6892     0.3211    -0.5850 O.2     
  14 O14            4.1318     2.7575    -0.5661 O.2     
  15 C15            4.5485     1.5536     1.6508 C.ar    
  16 C16            5.0209     0.4268     2.2989 C.ar    
  17 C17            4.4917     2.7624     2.3137 C.ar    
  18 C18            4.9075     2.8469     3.6438 C.ar    
  19 C19            5.3787     1.7056     4.2956 C.ar    
  20 C20            5.4355     0.5023     3.6192 C.ar    
  21 C21            1.4789     5.5618     1.0640 C.ar    
  22 N22            2.0602     6.1125     0.0137 N.ar    
  23 C23            2.4193     5.4025    -1.0400 C.ar    
  24 C24            2.2041     4.0421    -1.0838 C.ar    
  25 N25           -3.6750     1.9011     0.0495 N.pl3   
  26 F26            5.8911    -0.6037     4.2474 F       
  27 Cl27           1.0331     6.5559     2.4156 Cl      
  28 C28            4.8512     4.0989     4.3365 C.1     
  29 N29            4.8066     5.0921     4.8861 N.1     
  30 H30           -3.2116    -0.7043     0.0304 H       
  31 H31           -1.3188     3.1277     0.0370 H       
  32 H32            0.7446     3.7621     1.9625 H       
  33 H33            5.0666    -0.5159     1.7739 H       
  34 H34            4.1266     3.6419     1.8043 H       
  35 H35            5.7018     1.7642     5.3245 H       
  36 H36            2.8920     5.8941    -1.8774 H       
  37 H37            2.5006     3.4681    -1.9492 H       
  38 H38           -4.4801     1.3601     0.0548 H       
  39 H39           -3.7408     2.8688     0.0554 H       
@<TRIPOS>BOND
   1    1    2 ar
   2    1    7 1
   3    1    6 ar
   4    2    3 ar
   5    2    9 1
   6    3    4 ar
   7    4    5 ar
   8    4   30 1
   9    5    6 ar
  10    5   25 1
  11    6   31 1
  12    7    8 2
  13    7   10 1
  14    8    9 1
  15    8   12 1
  16   10   11 ar
  17   10   24 ar
  18   11   21 ar
  19   11   32 1
  20   12   13 2
  21   12   14 2
  22   12   15 1
  23   15   16 ar
  24   15   17 ar
  25   16   20 ar
  26   16   33 1
  27   17   18 ar
  28   17   34 1
  29   18   19 ar
  30   18   28 1
  31   19   20 ar
  32   19   35 1
  33   20   26 1
  34   21   22 ar
  35   21   27 1
  36   22   23 ar
  37   23   24 ar
  38   23   36 1
  39   24   37 1
  40   25   38 1
  41   25   39 1
  42   28   29 3

#	End of record

