#	Name: ASD01881516
#	Creating user name:	WinNT
#	Creation time:	15. 06. 2019 19:42

#	Modifying user name:	WinNT
#	Modification time:	15. 06. 2019 19:42

#	Program:	/corina/corina34_cracker 3.40 0067  02.08.2006

@<TRIPOS>MOLECULE
ASD01881516
  50   53    0    0    0
SMALL
NO_CHARGES


@<TRIPOS>ATOM
   1 C1            -0.0168     1.3856     0.0097 C.ar    
   2 C2             0.0021    -0.0041     0.0020 C.ar    
   3 C3             1.2157    -0.6846    -0.0128 C.ar    
   4 C4             2.3947     0.0184    -0.0203 C.ar    
   5 C5             2.3848     1.4172    -0.0132 C.ar    
   6 C6             1.1631     2.0958     0.0022 C.ar    
   7 C7             3.8447    -0.3969    -0.0365 C.3     
   8 N8             4.6266     0.8448    -0.0379 N.am    
   9 C9             3.7803     1.8889    -0.0244 C.2     
  10 C10            6.0889     0.9321    -0.0517 C.3     
  11 C11            6.5839     0.9697    -1.4989 C.3     
  12 C12            8.1112     1.0609    -1.5133 C.3     
  13 O13            4.1185     3.0567    -0.0214 O.2     
  14 O14           -1.1642    -0.6979     0.0095 O.3     
  15 C15           -2.3727     0.0646     0.0252 C.3     
  16 C16           -3.5557    -0.8689     0.0315 C.2     
  17 C17           -4.9118    -0.4891     0.0465 C.2     
  18 N18           -5.6397    -1.5857     0.0476 N.2     
  19 N19           -4.7713    -2.6846     0.0334 N.pl3   
  20 C20           -3.5039    -2.2187     0.0179 C.2     
  21 C21           -5.4289     0.9021     0.0597 C.ar    
  22 C22           -6.6042     1.2176    -0.6186 C.ar    
  23 C23           -7.0808     2.5128    -0.6027 C.ar    
  24 C24           -6.3938     3.4968     0.0850 C.ar    
  25 C25           -5.2262     3.1892     0.7598 C.ar    
  26 C26           -4.7437     1.8961     0.7552 C.ar    
  27 C27           -6.9191     4.9092     0.0988 C.3     
  28 F28           -7.7806     5.0758     1.1884 F       
  29 F29           -5.8490     5.8036     0.2094 F       
  30 F30           -7.6152     5.1595    -1.0886 F       
  31 H31           -0.9605     1.9106     0.0170 H       
  32 H32            1.2300    -1.7645    -0.0180 H       
  33 H33            1.1443     3.1757     0.0075 H       
  34 H34            4.0762    -0.9844     0.8519 H       
  35 H35            4.0588    -0.9754    -0.9352 H       
  36 H36            6.4036     1.8395     0.4637 H       
  37 H37            6.5096     0.0628     0.4537 H       
  38 H38            6.2693     0.0623    -2.0142 H       
  39 H39            6.1633     1.8391    -2.0043 H       
  40 H40            8.4638     1.0877    -2.5443 H       
  41 H41            8.4258     1.9684    -0.9979 H       
  42 H42            8.5318     0.1916    -1.0079 H       
  43 H43           -2.3972     0.6883     0.9188 H       
  44 H44           -2.4142     0.6978    -0.8611 H       
  45 H45           -5.0346    -3.6182     0.0309 H       
  46 H46           -2.6066    -2.8196     0.0045 H       
  47 H47           -7.1412     0.4501    -1.1562 H       
  48 H48           -7.9916     2.7585    -1.1285 H       
  49 H49           -4.6935     3.9614     1.2949 H       
  50 H50           -3.8322     1.6569     1.2827 H       
@<TRIPOS>BOND
   1    1    2 ar
   2    1    6 ar
   3    1   31 1
   4    2    3 ar
   5    2   14 1
   6    3    4 ar
   7    3   32 1
   8    4    5 ar
   9    4    7 1
  10    5    6 ar
  11    5    9 1
  12    6   33 1
  13    7    8 1
  14    7   34 1
  15    7   35 1
  16    8    9 am
  17    8   10 1
  18    9   13 2
  19   10   11 1
  20   10   36 1
  21   10   37 1
  22   11   12 1
  23   11   38 1
  24   11   39 1
  25   12   40 1
  26   12   41 1
  27   12   42 1
  28   14   15 1
  29   15   16 1
  30   15   43 1
  31   15   44 1
  32   16   17 1
  33   16   20 2
  34   17   18 2
  35   17   21 1
  36   18   19 1
  37   19   20 1
  38   19   45 1
  39   20   46 1
  40   21   22 ar
  41   21   26 ar
  42   22   23 ar
  43   22   47 1
  44   23   24 ar
  45   23   48 1
  46   24   27 1
  47   24   25 ar
  48   25   26 ar
  49   25   49 1
  50   26   50 1
  51   27   28 1
  52   27   29 1
  53   27   30 1

#	End of record

