#	Name: ASD03320012
#	Creating user name:	WinNT
#	Creation time:	15. 06. 2019 20:35

#	Modifying user name:	WinNT
#	Modification time:	15. 06. 2019 20:35

#	Program:	/corina/corina34_cracker 3.40 0067  02.08.2006

@<TRIPOS>MOLECULE
ASD03320012
  35   37    0    0    0
SMALL
NO_CHARGES


@<TRIPOS>ATOM
   1 C1            -0.0167     1.3778     0.0096 C.ar    
   2 C2             0.0021    -0.0041     0.0020 C.ar    
   3 C3             1.1732     2.0858     0.0021 C.ar    
   4 C4             2.3806     1.4083    -0.0131 C.ar    
   5 C5             2.3969     0.0264    -0.0207 C.ar    
   6 C6             1.2082    -0.6795    -0.0127 C.ar    
   7 F7             1.1561     3.4366     0.0090 F       
   8 C8             1.2273    -2.1863    -0.0209 C.3     
   9 S9             1.2519    -2.8001     1.6859 S.3     
  10 C10            1.2721    -4.5496     1.4777 C.2     
  11 S11            1.3002    -5.7508     2.7704 S.3     
  12 C12            1.3042    -7.0204     1.5446 C.2     
  13 N13            1.2855    -6.4474     0.3790 N.2     
  14 N14            1.2634    -5.1871     0.3436 N.2     
  15 N15            1.3247    -8.3912     1.7841 N.am    
  16 C16            1.3255    -9.2560     0.7503 C.2     
  17 C17            1.3472   -10.7106     1.0044 C.ar    
  18 O18            1.3082    -8.8385    -0.3915 O.2     
  19 C19            1.3480   -11.6090    -0.0650 C.ar    
  20 C20            1.3689   -12.9656     0.1779 C.ar    
  21 C21            1.3936   -12.5514     2.5464 C.ar    
  22 C22            1.3729   -11.1928     2.3150 C.ar    
  23 C23            1.3885   -13.4389     1.4811 C.ar    
  24 F24            1.4080   -14.7696     1.7135 F       
  25 H25           -0.9591     1.9052     0.0170 H       
  26 H26           -0.9259    -0.5565     0.0079 H       
  27 H27            3.3093     1.9595    -0.0194 H       
  28 H28            3.3385    -0.5023    -0.0325 H       
  29 H29            0.3369    -2.5582    -0.5280 H       
  30 H30            2.1167    -2.5355    -0.5455 H       
  31 H31            1.3385    -8.7243     2.6950 H       
  32 H32            1.3320   -11.2414    -1.0804 H       
  33 H33            1.3695   -13.6612    -0.6483 H       
  34 H34            1.4135   -12.9254     3.5594 H       
  35 H35            1.3773   -10.5025     3.1455 H       
@<TRIPOS>BOND
   1    1    2 ar
   2    1    3 ar
   3    1   25 1
   4    2    6 ar
   5    2   26 1
   6    3    4 ar
   7    3    7 1
   8    4    5 ar
   9    4   27 1
  10    5    6 ar
  11    5   28 1
  12    6    8 1
  13    8    9 1
  14    8   29 1
  15    8   30 1
  16    9   10 1
  17   10   11 1
  18   10   14 2
  19   11   12 1
  20   12   13 2
  21   12   15 1
  22   13   14 1
  23   15   16 am
  24   15   31 1
  25   16   17 1
  26   16   18 2
  27   17   19 ar
  28   17   22 ar
  29   19   20 ar
  30   19   32 1
  31   20   23 ar
  32   20   33 1
  33   21   22 ar
  34   21   23 ar
  35   21   34 1
  36   22   35 1
  37   23   24 1

#	End of record

