#	Name: ASD03091663
#	Creating user name:	WinNT
#	Creation time:	15. 06. 2019 20:31

#	Modifying user name:	WinNT
#	Modification time:	15. 06. 2019 20:31

#	Program:	/corina/corina34_cracker 3.40 0067  02.08.2006

@<TRIPOS>MOLECULE
ASD03091663
  22   23    0    0    0
SMALL
NO_CHARGES


@<TRIPOS>ATOM
   1 C1            -0.0169     1.3951     0.0097 C.ar    
   2 C2             0.0021    -0.0041     0.0020 C.ar    
   3 C3             1.2539    -0.6601    -0.0134 C.ar    
   4 C4             2.4006     0.1017    -0.0203 C.ar    
   5 C5             2.3002     1.4849    -0.0119 C.ar    
   6 N6             1.1304     2.0798     0.0024 N.ar    
   7 C7            -1.3348    -0.5735     0.0117 C.2     
   8 C8            -2.3292     0.3501     0.0262 C.2     
   9 S9            -1.6775     1.9767     0.0359 S.3     
  10 C10           -3.7097     0.0403     0.0372 C.2     
  11 O11           -4.0728    -1.1213     0.0341 O.2     
  12 O12           -4.6241     1.0332     0.0513 O.3     
  13 N13           -1.5734    -1.9397     0.0067 N.pl3   
  14 C14           -6.0001     0.6479     0.0619 C.3     
  15 H15            1.3098    -1.7387    -0.0194 H       
  16 H16            3.3702    -0.3738    -0.0317 H       
  17 H17            3.1998     2.0826    -0.0173 H       
  18 H18           -0.8294    -2.5619    -0.0038 H       
  19 H19           -2.4844    -2.2729     0.0136 H       
  20 H20           -6.6270     1.5395     0.0728 H       
  21 H21           -6.2197     0.0601    -0.8294 H       
  22 H22           -6.2032     0.0501     0.9505 H       
@<TRIPOS>BOND
   1    1    2 ar
   2    1    6 ar
   3    1    9 1
   4    2    3 ar
   5    2    7 1
   6    3    4 ar
   7    3   15 1
   8    4    5 ar
   9    4   16 1
  10    5    6 ar
  11    5   17 1
  12    7    8 2
  13    7   13 1
  14    8    9 1
  15    8   10 1
  16   10   11 2
  17   10   12 1
  18   12   14 1
  19   13   18 1
  20   13   19 1
  21   14   20 1
  22   14   21 1
  23   14   22 1

#	End of record

