#	Name: ASD07300973
#	Creating user name:	WinNT
#	Creation time:	15. 06. 2019 21:10

#	Modifying user name:	WinNT
#	Modification time:	15. 06. 2019 21:10

#	Program:	/corina/corina34_cracker 3.40 0067  02.08.2006

@<TRIPOS>MOLECULE
ASD07300973
  29   30    0    0    0
SMALL
NO_CHARGES


@<TRIPOS>ATOM
   1 C1            -0.0169     1.4674     0.0593 C.2     
   2 C2             0.0021    -0.0040     0.0009 C.2     
   3 C3             1.2732    -0.6343    -0.0643 C.2     
   4 C4             2.3723     0.1574    -0.0681 C.2     
   5 N5             2.2575     1.5080    -0.0114 N.pl3   
   6 N6             1.1312     2.1171     0.0483 N.2     
   7 O7            -1.0310    -0.6545     0.0085 O.2     
   8 C8             3.4273     2.2746    -0.0185 C.ar    
   9 C9             3.3523     3.6587    -0.1151 C.ar    
  10 C10            4.5091     4.4124    -0.1218 C.ar    
  11 C11            5.7417     3.7913    -0.0325 C.ar    
  12 C12            5.8200     2.4141     0.0634 C.ar    
  13 C13            4.6666     1.6545     0.0769 C.ar    
  14 C14            4.4286     5.9136    -0.2271 C.3     
  15 F15            4.3530     6.4677     1.0553 F       
  16 F16            5.5689     6.3972    -0.8776 F       
  17 F17            3.2893     6.2695    -0.9568 F       
  18 Br18           1.4262    -2.5174    -0.1426 Br      
  19 C19           -1.2899     2.1978     0.1224 C.2     
  20 O20           -2.3389     1.5889     0.1268 O.2     
  21 C21           -1.2925     3.7036     0.1818 C.3     
  22 H22            3.3530    -0.2925    -0.1166 H       
  23 H23            2.3901     4.1443    -0.1852 H       
  24 H24            6.6450     4.3832    -0.0380 H       
  25 H25            6.7841     1.9322     0.1326 H       
  26 H26            4.7283     0.5792     0.1566 H       
  27 H27           -0.2658     4.0695     0.1684 H       
  28 H28           -1.8307     4.1003    -0.6791 H       
  29 H29           -1.7827     4.0303     1.0988 H       
@<TRIPOS>BOND
   1    1    2 1
   2    1    6 2
   3    1   19 1
   4    2    3 1
   5    2    7 2
   6    3    4 2
   7    3   18 1
   8    4    5 1
   9    4   22 1
  10    5    6 1
  11    5    8 1
  12    8    9 ar
  13    8   13 ar
  14    9   10 ar
  15    9   23 1
  16   10   11 ar
  17   10   14 1
  18   11   12 ar
  19   11   24 1
  20   12   13 ar
  21   12   25 1
  22   13   26 1
  23   14   15 1
  24   14   16 1
  25   14   17 1
  26   19   20 2
  27   19   21 1
  28   21   27 1
  29   21   28 1
  30   21   29 1

#	End of record

