#	Name: ASD05730039
#	Creating user name:	WinNT
#	Creation time:	15. 06. 2019 21:02

#	Modifying user name:	WinNT
#	Modification time:	15. 06. 2019 21:02

#	Program:	/corina/corina34_cracker 3.40 0067  02.08.2006

@<TRIPOS>MOLECULE
ASD05730039
  77   82    0    0    0
SMALL
NO_CHARGES


@<TRIPOS>ATOM
   1 N1             0.9061     1.2511     0.4048 N.3     
   2 C2             0.6619    -0.1230     0.3026 C.ar    
   3 C3             1.5684    -0.9421    -0.3573 C.ar    
   4 C4             1.3273    -2.2981    -0.4581 C.ar    
   5 C5             0.1783    -2.8423     0.0999 C.ar    
   6 C6            -0.7287    -2.0230     0.7595 C.ar    
   7 C7            -0.4845    -0.6684     0.8662 C.ar    
   8 N8            -0.0664    -4.2176    -0.0028 N.pl3   
   9 C9             0.3021    -4.9011    -1.1446 C.ar    
  10 N10            0.1663    -6.2182    -1.1713 N.ar    
  11 C11            0.5095    -6.9105    -2.2518 C.ar    
  12 C12            1.0210    -6.2139    -3.3685 C.ar    
  13 C13            1.1455    -4.8182    -3.2903 C.ar    
  14 N14            0.7749    -4.2125    -2.1780 N.ar    
  15 N15            0.3719    -8.2749    -2.2861 N.am    
  16 C16            0.7208    -8.9763    -3.3814 C.2     
  17 C17            1.2551    -8.2902    -4.5598 C.2     
  18 C18            1.3958    -6.9174    -4.5351 C.2     
  19 C19           -0.1608    -8.9777    -1.1163 C.3     
  20 O20            0.5918   -10.1875    -3.3919 O.2     
  21 C21            1.6393    -9.0604    -5.7643 C.ar    
  22 N22            1.4983   -10.3805    -5.7747 N.ar    
  23 C23            0.8784     1.8907    -0.9180 C.3     
  24 C24           -1.4299    -9.7666    -1.4928 C.3     
  25 O25           -1.1426   -11.1603    -1.2900 O.3     
  26 C26           -0.1152   -11.2361    -0.2784 C.3     
  27 C27            0.8331   -10.0639    -0.6377 C.3     
  28 C28            2.1415    -8.3929    -6.8816 C.ar    
  29 C29            2.4961    -9.1264    -7.9994 C.ar    
  30 C30            2.3375   -10.5054    -7.9652 C.ar    
  31 C31            1.8286   -11.1018    -6.8270 C.ar    
  32 S32            2.7739   -11.4853    -9.3631 S.o2    
  33 C33            4.5168   -11.9091    -9.0926 C.3     
  34 O34            1.9561   -12.6419    -9.2494 O.2     
  35 O35            2.6414   -10.6001   -10.4667 O.2     
  36 C36            5.0534   -12.6632   -10.3109 C.3     
  37 C37            5.3274   -10.6276    -8.8883 C.3     
  38 C38            1.0700     3.4005    -0.7558 C.3     
  39 N39            2.3466     3.6593    -0.0754 N.3     
  40 C40            2.3744     3.0197     1.2473 C.3     
  41 C41            2.1827     1.5099     1.0851 C.3     
  42 C42           -1.4684     0.2205     1.5823 C.3     
  43 F43           -2.5838    -0.5320     1.9652 F       
  44 F44           -0.8620     0.7668     2.7185 F       
  45 F45           -1.8726     1.2519     0.7279 F       
  46 H46            2.4618    -0.5187    -0.7919 H       
  47 H47            2.0324    -2.9352    -0.9714 H       
  48 H48           -1.6226    -2.4463     1.1933 H       
  49 H49           -0.4948    -4.6900     0.7282 H       
  50 H50            1.5329    -4.2516    -4.1240 H       
  51 H51            1.7876    -6.3900    -5.3923 H       
  52 H52           -0.3742    -8.2725    -0.3131 H       
  53 H53            1.6814     1.4864    -1.5343 H       
  54 H54           -0.0813     1.6953    -1.3964 H       
  55 H55           -2.2588    -9.4622    -0.8536 H       
  56 H56           -1.6807    -9.5882    -2.5384 H       
  57 H57           -0.5426   -11.0937     0.7141 H       
  58 H58            0.4121   -12.1883    -0.3374 H       
  59 H59            1.5153   -10.3472    -1.4392 H       
  60 H60            1.3847    -9.7269     0.2399 H       
  61 H61            2.2515    -7.3185    -6.8741 H       
  62 H62            2.8874    -8.6374    -8.8792 H       
  63 H63            1.7046   -12.1743    -6.7977 H       
  64 H64            4.6044   -12.5393    -8.2076 H       
  65 H65            4.9658   -12.0330   -11.1959 H       
  66 H66            6.1007   -12.9178   -10.1483 H       
  67 H67            4.4759   -13.5761   -10.4564 H       
  68 H68            4.9452   -10.0904    -8.0204 H       
  69 H69            6.3747   -10.8822    -8.7258 H       
  70 H70            5.2399    -9.9974    -9.7733 H       
  71 H71            1.0788     3.8735    -1.7377 H       
  72 H72            0.2522     3.8091    -0.1622 H       
  73 H73            3.1255     3.3556    -0.6404 H       
  74 H74            3.3341     3.2152     1.7257 H       
  75 H75            1.5714     3.4240     1.8637 H       
  76 H76            2.1740     1.0369     2.0671 H       
  77 H77            3.0005     1.1013     0.4915 H       
@<TRIPOS>BOND
   1    1    2 1
   2    1   23 1
   3    1   41 1
   4    2    3 ar
   5    2    7 ar
   6    3    4 ar
   7    3   46 1
   8    4    5 ar
   9    4   47 1
  10    5    6 ar
  11    5    8 1
  12    6    7 ar
  13    6   48 1
  14    7   42 1
  15    8    9 1
  16    8   49 1
  17    9   10 ar
  18    9   14 ar
  19   10   11 ar
  20   11   12 ar
  21   11   15 1
  22   12   13 ar
  23   12   18 1
  24   13   14 ar
  25   13   50 1
  26   15   16 am
  27   15   19 1
  28   16   17 1
  29   16   20 2
  30   17   18 2
  31   17   21 1
  32   18   51 1
  33   19   24 1
  34   19   27 1
  35   19   52 1
  36   21   22 ar
  37   21   28 ar
  38   22   31 ar
  39   23   38 1
  40   23   53 1
  41   23   54 1
  42   24   25 1
  43   24   55 1
  44   24   56 1
  45   25   26 1
  46   26   27 1
  47   26   57 1
  48   26   58 1
  49   27   59 1
  50   27   60 1
  51   28   29 ar
  52   28   61 1
  53   29   30 ar
  54   29   62 1
  55   30   31 ar
  56   30   32 1
  57   31   63 1
  58   32   33 1
  59   32   34 2
  60   32   35 2
  61   33   36 1
  62   33   37 1
  63   33   64 1
  64   36   65 1
  65   36   66 1
  66   36   67 1
  67   37   68 1
  68   37   69 1
  69   37   70 1
  70   38   39 1
  71   38   71 1
  72   38   72 1
  73   39   40 1
  74   39   73 1
  75   40   41 1
  76   40   74 1
  77   40   75 1
  78   41   76 1
  79   41   77 1
  80   42   43 1
  81   42   44 1
  82   42   45 1

#	End of record

