#	Name: ASD01670038
#	Creating user name:	WinNT
#	Creation time:	15. 06. 2019 19:22

#	Modifying user name:	WinNT
#	Modification time:	15. 06. 2019 19:22

#	Program:	/corina/corina34_cracker 3.40 0067  02.08.2006

@<TRIPOS>MOLECULE
ASD01670038
  36   39    0    0    0
SMALL
NO_CHARGES


@<TRIPOS>ATOM
   1 O1             0.1658     0.3092    -0.1803 O.2     
   2 C2             0.1649     1.5063    -0.3751 C.2     
   3 C3             1.3812     2.4025    -0.4723 C.3     
   4 C4             2.2695     1.9755    -1.6426 C.3     
   5 C5             2.8420     0.6092    -1.3662 C.ar    
   6 C6             2.2745    -0.5051    -1.9432 C.ar    
   7 C7             2.7949    -1.7648    -1.6941 C.ar    
   8 C8             3.8911    -1.9177    -0.8626 C.ar    
   9 O9             4.5779    -3.0291    -0.4662 O.3     
  10 C10            5.3310    -2.6219     0.6915 C.3     
  11 O11            5.5265    -1.2093     0.4926 O.3     
  12 C12            4.4761    -0.8002    -0.2717 C.ar    
  13 C13            3.9535     0.4730    -0.5282 C.ar    
  14 C14            4.5682     1.6635     0.0864 C.2     
  15 O15            4.2532     1.9977     1.2113 O.2     
  16 O16            5.4794     2.3813    -0.5994 O.3     
  17 C17            0.8052     3.7779    -0.7190 C.ar    
  18 C18           -0.5749     3.6241    -0.7490 C.ar    
  19 N19           -0.9156     2.2856    -0.5508 N.am    
  20 C20           -1.3740     4.7457    -0.9625 C.ar    
  21 C21           -0.7948     5.9849    -1.1408 C.ar    
  22 C22            0.5807     6.1250    -1.1087 C.ar    
  23 C23            1.3808     5.0159    -0.8970 C.ar    
  24 H24            1.9449     2.3839     0.4604 H       
  25 H25            1.6759     1.9427    -2.5562 H       
  26 H26            3.0817     2.6924    -1.7626 H       
  27 H27            1.4188    -0.3965    -2.5932 H       
  28 H28            2.3425    -2.6325    -2.1510 H       
  29 H29            4.7616    -2.8052     1.6028 H       
  30 H30            6.2893    -3.1400     0.7268 H       
  31 H31            5.8548     3.1537    -0.1549 H       
  32 H32           -1.8277     1.9559    -0.5389 H       
  33 H33           -2.4490     4.6445    -0.9889 H       
  34 H34           -1.4190     6.8505    -1.3066 H       
  35 H35            1.0293     7.0973    -1.2494 H       
  36 H36            2.4554     5.1214    -0.8710 H       
@<TRIPOS>BOND
   1    1    2 2
   2    2    3 1
   3    2   19 am
   4    3    4 1
   5    3   17 1
   6    3   24 1
   7    4    5 1
   8    4   25 1
   9    4   26 1
  10    5    6 ar
  11    5   13 ar
  12    6    7 ar
  13    6   27 1
  14    7    8 ar
  15    7   28 1
  16    8    9 1
  17    8   12 ar
  18    9   10 1
  19   10   11 1
  20   10   29 1
  21   10   30 1
  22   11   12 1
  23   12   13 ar
  24   13   14 1
  25   14   15 2
  26   14   16 1
  27   16   31 1
  28   17   18 ar
  29   17   23 ar
  30   18   19 1
  31   18   20 ar
  32   19   32 1
  33   20   21 ar
  34   20   33 1
  35   21   22 ar
  36   21   34 1
  37   22   23 ar
  38   22   35 1
  39   23   36 1

#	End of record

