#	Name: ASD01148147
#	Creating user name:	WinNT
#	Creation time:	15. 06. 2019 19:02

#	Modifying user name:	WinNT
#	Modification time:	15. 06. 2019 19:02

#	Program:	/corina/corina34_cracker 3.40 0067  02.08.2006

@<TRIPOS>MOLECULE
ASD01148147
  16   16    0    0    0
SMALL
NO_CHARGES


@<TRIPOS>ATOM
   1 C1            -0.0179     1.4721     0.0101 C.2     
   2 C2             0.0021    -0.0041     0.0020 C.ar    
   3 C3            -1.1941    -0.7329     0.0095 C.ar    
   4 C4            -1.1204    -2.1142     0.0014 C.ar    
   5 C5             0.1200    -2.7271    -0.0136 C.ar    
   6 N6             1.2315    -2.0166    -0.0200 N.ar    
   7 C7             1.2148    -0.6985    -0.0191 C.ar    
   8 O8             1.0257     2.0938     0.0035 O.2     
   9 O9            -1.1937     2.1298     0.0193 O.3     
  10 N10           -2.3564    -2.9286     0.0094 N.pl3   
  11 O11           -3.4452    -2.3829     0.0231 O.2     
  12 O12           -2.2846    -4.1445     0.0022 O.2     
  13 Cl13           2.7110     0.1817    -0.0366 Cl      
  14 H14           -2.1494    -0.2293     0.0217 H       
  15 H15            0.1792    -3.8055    -0.0200 H       
  16 H16           -1.1562     3.0961     0.0244 H       
@<TRIPOS>BOND
   1    1    2 1
   2    1    8 2
   3    1    9 1
   4    2    3 ar
   5    2    7 ar
   6    3    4 ar
   7    3   14 1
   8    4    5 ar
   9    4   10 1
  10    5    6 ar
  11    5   15 1
  12    6    7 ar
  13    7   13 1
  14    9   16 1
  15   10   11 2
  16   10   12 2

#	End of record

