#	Name: ASD01912810
#	Creating user name:	WinNT
#	Creation time:	15. 06. 2019 20:00

#	Modifying user name:	WinNT
#	Modification time:	15. 06. 2019 20:00

#	Program:	/corina/corina34_cracker 3.40 0067  02.08.2006

@<TRIPOS>MOLECULE
ASD01912810
  43   46    0    0    0
SMALL
NO_CHARGES


@<TRIPOS>ATOM
   1 C1            -0.0165     1.3669     0.0096 C.2     
   2 N2             0.0021    -0.0041     0.0020 N.pl3   
   3 C3            -1.2025    -0.6923     0.0091 C.2     
   4 C4            -2.3629    -0.0504     0.0226 C.2     
   5 N5            -2.4359     1.3311     0.0302 N.am    
   6 C6            -1.3019     2.0670     0.0309 C.2     
   7 C7             1.3014     1.7837    -0.0008 C.2     
   8 C8             2.0550     0.6110    -0.0143 C.2     
   9 N9             1.2244    -0.4045    -0.0118 N.2     
  10 O10           -1.3487     3.2837     0.0379 O.2     
  11 C11           -3.6750     1.9623     0.0438 C.ar    
  12 C12            3.5594     0.5248    -0.0291 C.3     
  13 O13            4.1120     1.8427    -0.0273 O.3     
  14 C14            5.4650     1.9433    -0.0397 C.ar    
  15 C15            6.0614     3.1975    -0.0386 C.ar    
  16 C16            7.4427     3.2864    -0.0514 C.ar    
  17 C17            8.1815     2.1116    -0.0647 C.ar    
  18 C18            7.5216     0.8985    -0.0649 C.ar    
  19 N19            6.2034     0.8458    -0.0472 N.ar    
  20 N20           -4.7748     1.2251     0.0548 N.ar    
  21 N21           -3.7253     3.2851     0.0510 N.ar    
  22 C22           -4.8867     3.9216     0.0644 C.ar    
  23 C23           -6.0586     3.1887     0.0710 C.ar    
  24 C24           -5.9725     1.7968     0.0684 C.ar    
  25 C25           -7.3987     3.8779     0.0868 C.3     
  26 O26           -7.0958     1.0387     0.0747 O.3     
  27 C27           -6.9213    -0.3796     0.0715 C.3     
  28 H28           -1.1950    -1.7723     0.0032 H       
  29 H29           -3.2784    -0.6234     0.0273 H       
  30 H30            1.6684     2.7994     0.0006 H       
  31 H31            3.9013    -0.0137     0.8548 H       
  32 H32            3.8843    -0.0041    -0.9251 H       
  33 H33            5.4556     4.0915    -0.0284 H       
  34 H34            7.9343     4.2480    -0.0512 H       
  35 H35            9.2609     2.1457    -0.0752 H       
  36 H36            8.0918    -0.0186    -0.0756 H       
  37 H37           -4.9178     5.0011     0.0705 H       
  38 H38           -7.7310     4.0496    -0.9370 H       
  39 H39           -8.1242     3.2499     0.6038 H       
  40 H40           -7.3100     4.8328     0.6050 H       
  41 H41           -6.3728    -0.6762    -0.8226 H       
  42 H42           -6.3611    -0.6788     0.9573 H       
  43 H43           -7.8969    -0.8657     0.0771 H       
@<TRIPOS>BOND
   1    1    2 1
   2    1    7 2
   3    1    6 1
   4    2    3 1
   5    2    9 1
   6    3    4 2
   7    3   28 1
   8    4    5 1
   9    4   29 1
  10    5    6 am
  11    5   11 1
  12    6   10 2
  13    7    8 1
  14    7   30 1
  15    8    9 2
  16    8   12 1
  17   11   21 ar
  18   11   20 ar
  19   12   13 1
  20   12   31 1
  21   12   32 1
  22   13   14 1
  23   14   15 ar
  24   14   19 ar
  25   15   16 ar
  26   15   33 1
  27   16   17 ar
  28   16   34 1
  29   17   18 ar
  30   17   35 1
  31   18   19 ar
  32   18   36 1
  33   20   24 ar
  34   21   22 ar
  35   22   23 ar
  36   22   37 1
  37   23   24 ar
  38   23   25 1
  39   24   26 1
  40   25   38 1
  41   25   39 1
  42   25   40 1
  43   26   27 1
  44   27   41 1
  45   27   42 1
  46   27   43 1

#	End of record

