#	Name: ASD02320049
#	Creating user name:	WinNT
#	Creation time:	15. 06. 2019 20:20

#	Modifying user name:	WinNT
#	Modification time:	15. 06. 2019 20:20

#	Program:	/corina/corina34_cracker 3.40 0067  02.08.2006

@<TRIPOS>MOLECULE
ASD02320049
 104  110    0    0    0
SMALL
NO_CHARGES


@<TRIPOS>ATOM
   1 C1             0.0222     1.3693     0.1717 C.ar    
   2 C2             0.0494    -0.0191     0.1558 C.ar    
   3 C3             1.2448    -0.7008     0.1258 C.ar    
   4 C4             2.4478     0.0110     0.1111 C.ar    
   5 C5             2.4157     1.4244     0.1274 C.ar    
   6 C6             1.1943     2.0938     0.1577 C.ar    
   7 N7             3.6388    -0.6195     0.0822 N.2     
   8 C8             4.7673     0.0437     0.0688 C.2     
   9 N9             4.8299     1.4106     0.0829 N.am    
  10 C10            3.6955     2.1481     0.1119 C.2     
  11 O11            3.7333     3.3647     0.1243 O.2     
  12 C12            6.0314    -0.7186     0.0376 C.ar    
  13 C13            7.0072    -0.4969     1.0124 C.ar    
  14 C14            8.1850    -1.2105     0.9801 C.ar    
  15 C15            8.4034    -2.1495    -0.0206 C.ar    
  16 C16            7.4355    -2.3727    -0.9923 C.ar    
  17 C17            6.2524    -1.6677    -0.9634 C.ar    
  18 N18           15.8835     6.2833    -8.6137 N.pl3   
  19 C19           16.2516     7.4282    -9.2338 C.2     
  20 N20           16.0261     5.3107    -9.4447 N.2     
  21 N21           16.4652     5.7502   -10.5711 N.2     
  22 C22           16.6225     7.0760   -10.4869 C.2     
  23 C23           17.1149     7.9964   -11.5738 C.3     
  24 N24           18.5797     8.0202   -11.5671 N.am    
  25 C25           19.2710     7.0711   -12.2404 C.2     
  26 C26           19.2408     9.0051   -10.8848 C.2     
  27 N27           20.5463     9.0876   -10.8366 N.2     
  28 C28           21.3356     8.1938   -11.4651 C.ar    
  29 C29           20.7387     7.1436   -12.1994 C.ar    
  30 C30           22.7297     8.2846   -11.4117 C.ar    
  31 C31           23.4959     7.3592   -12.0622 C.ar    
  32 C32           22.9109     6.3241   -12.7801 C.ar    
  33 C33           21.5397     6.2104   -12.8551 C.ar    
  34 O34           18.6990     6.1906   -12.8563 O.2     
  35 C35           18.4444    10.0223   -10.1701 C.ar    
  36 C36           18.6517    10.2430    -8.8063 C.ar    
  37 C37           17.9066    11.1930    -8.1431 C.ar    
  38 C38           16.9498    11.9313    -8.8288 C.ar    
  39 C39           16.7404    11.7148   -10.1854 C.ar    
  40 C40           17.4854    10.7707   -10.8571 C.ar    
  41 O41            9.5657    -2.8505    -0.0493 O.3     
  42 S42            9.5222    -4.1538     0.7356 S.o2    
  43 O43           10.8542    -4.6476     0.7675 O.2     
  44 O44            8.7622    -3.8914     1.9072 O.2     
  45 O45            8.7148    -5.1481    -0.0867 O.3     
  46 Na46           9.6919    -5.8816    -1.6574 Du      
  47 O47           16.2171    12.8664    -8.1715 O.3     
  48 S48           16.8408    14.2547    -8.1726 S.o2    
  49 O49           16.0609    15.0457    -7.2864 O.2     
  50 O50           18.2407    14.0658    -8.0183 O.2     
  51 O51           16.6368    14.8392    -9.5630 O.3     
  52 Na52          14.7754    15.4451    -9.9212 Du      
  53 C53            6.1331     2.0798     0.0668 C.3     
  54 C54            6.6275     2.1988    -1.3762 C.3     
  55 C55            7.9885     2.8977    -1.3930 C.3     
  56 C56            8.4829     3.0167    -2.8360 C.3     
  57 C57            9.8439     3.7156    -2.8527 C.3     
  58 C58           10.3383     3.8346    -4.2957 C.3     
  59 C59           11.6993     4.5335    -4.3125 C.3     
  60 C60           12.1937     4.6525    -5.7555 C.3     
  61 C61           13.5547     5.3514    -5.7723 C.3     
  62 C62           14.0491     5.4704    -7.2153 C.3     
  63 C63           15.4101     6.1693    -7.2320 C.3     
  64 H64           -0.9261     1.8858     0.1907 H       
  65 H65           -0.8790    -0.5708     0.1674 H       
  66 H66            1.2533    -1.7807     0.1140 H       
  67 H67            1.1663     3.1733     0.1706 H       
  68 H68            6.8386     0.2333     1.7901 H       
  69 H69            8.9399    -1.0396     1.7333 H       
  70 H70            7.6091    -3.1032    -1.7686 H       
  71 H71            5.5004    -1.8421    -1.7188 H       
  72 H72           16.2495     8.4231    -8.8135 H       
  73 H73           16.7618     7.6383   -12.5409 H       
  74 H74           16.7344     9.0026   -11.3980 H       
  75 H75           23.1995     9.0841   -10.8581 H       
  76 H76           24.5724     7.4339   -12.0177 H       
  77 H77           23.5362     5.6042   -13.2872 H       
  78 H78           21.0897     5.4034   -13.4143 H       
  79 H79           19.3950     9.6693    -8.2725 H       
  80 H80           18.0661    11.3640    -7.0887 H       
  81 H81           15.9958    12.2907   -10.7147 H       
  82 H82           17.3224    10.6033   -11.9115 H       
  83 H83            6.0358     3.0749     0.5008 H       
  84 H84            6.8476     1.4977     0.6489 H       
  85 H85            6.7248     1.2036    -1.8102 H       
  86 H86            5.9130     2.7808    -1.9583 H       
  87 H87            7.8912     3.8928    -0.9590 H       
  88 H88            8.7030     2.3157    -0.8109 H       
  89 H89            8.5802     2.0216    -3.2700 H       
  90 H90            7.7684     3.5987    -3.4180 H       
  91 H91            9.7466     4.7107    -2.4187 H       
  92 H92           10.5584     3.1336    -2.2707 H       
  93 H93           10.4355     2.8395    -4.7297 H       
  94 H94            9.6238     4.4166    -4.8778 H       
  95 H95           11.6020     5.5286    -3.8785 H       
  96 H96           12.4138     3.9515    -3.7304 H       
  97 H97           12.2909     3.6574    -6.1895 H       
  98 H98           11.4792     5.2345    -6.3376 H       
  99 H99           13.4574     6.3465    -5.3383 H       
 100 H100          14.2692     4.7694    -5.1902 H       
 101 H101          14.1463     4.4753    -7.6493 H       
 102 H102          13.3346     6.0524    -7.7973 H       
 103 H103          16.1246     5.5873    -6.6500 H       
 104 H104          15.3128     7.1644    -6.7980 H       
@<TRIPOS>BOND
   1    1    2 ar
   2    1    6 ar
   3    1   64 1
   4    2    3 ar
   5    2   65 1
   6    3    4 ar
   7    3   66 1
   8    4    5 ar
   9    4    7 1
  10    5    6 ar
  11    5   10 1
  12    6   67 1
  13    7    8 2
  14    8    9 1
  15    8   12 1
  16    9   10 am
  17    9   53 1
  18   10   11 2
  19   12   13 ar
  20   12   17 ar
  21   13   14 ar
  22   13   68 1
  23   14   15 ar
  24   14   69 1
  25   15   16 ar
  26   15   41 1
  27   16   17 ar
  28   16   70 1
  29   17   71 1
  30   18   19 1
  31   18   20 1
  32   18   63 1
  33   19   22 2
  34   19   72 1
  35   20   21 2
  36   21   22 1
  37   22   23 1
  38   23   24 1
  39   23   73 1
  40   23   74 1
  41   24   25 am
  42   24   26 1
  43   25   34 2
  44   25   29 1
  45   26   27 2
  46   26   35 1
  47   27   28 1
  48   28   29 ar
  49   28   30 ar
  50   29   33 ar
  51   30   31 ar
  52   30   75 1
  53   31   32 ar
  54   31   76 1
  55   32   33 ar
  56   32   77 1
  57   33   78 1
  58   35   36 ar
  59   35   40 ar
  60   36   37 ar
  61   36   79 1
  62   37   38 ar
  63   37   80 1
  64   38   39 ar
  65   38   47 1
  66   39   40 ar
  67   39   81 1
  68   40   82 1
  69   41   42 1
  70   42   43 2
  71   42   44 2
  72   42   45 1
  73   45   46 1
  74   47   48 1
  75   48   49 2
  76   48   50 2
  77   48   51 1
  78   51   52 1
  79   53   54 1
  80   53   83 1
  81   53   84 1
  82   54   55 1
  83   54   85 1
  84   54   86 1
  85   55   56 1
  86   55   87 1
  87   55   88 1
  88   56   57 1
  89   56   89 1
  90   56   90 1
  91   57   58 1
  92   57   91 1
  93   57   92 1
  94   58   59 1
  95   58   93 1
  96   58   94 1
  97   59   60 1
  98   59   95 1
  99   59   96 1
 100   60   61 1
 101   60   97 1
 102   60   98 1
 103   61   62 1
 104   61   99 1
 105   61  100 1
 106   62   63 1
 107   62  101 1
 108   62  102 1
 109   63  103 1
 110   63  104 1

#	End of record

