#	Name: ASD01811670
#	Creating user name:	WinNT
#	Creation time:	15. 06. 2019 19:27

#	Modifying user name:	WinNT
#	Modification time:	15. 06. 2019 19:27

#	Program:	/corina/corina34_cracker 3.40 0067  02.08.2006

@<TRIPOS>MOLECULE
ASD01811670
  59   63    0    0    0
SMALL
NO_CHARGES


@<TRIPOS>ATOM
   1 N1            -0.0158     1.3104     0.0092 N.2     
   2 C2             0.0021    -0.0041     0.0020 C.2     
   3 C3             1.2860    -0.7292    -0.0277 C.2     
   4 C4             2.3840    -0.1542     0.5136 C.2     
   5 C5             1.2806     1.9459     0.0003 C.3     
   6 C6             1.4385     3.3570     0.4694 C.2     
   7 C7             2.1423     1.2085     1.0761 C.3     
   8 N8             3.2524     2.1548     1.1447 N.pl3   
   9 C9             2.6384     3.3988     1.1232 C.2     
  10 C10            0.5341     4.4271     0.2761 C.2     
  11 O11            0.7948     5.5319     0.7169 O.2     
  12 N12           -0.6163     4.2240    -0.3961 N.am    
  13 C13            4.6852     1.8586     1.2198 C.3     
  14 C14            5.2534     1.7696    -0.1732 C.ar    
  15 C15            5.2665     0.5555    -0.8357 C.ar    
  16 C16            5.7548     2.9034    -0.7866 C.ar    
  17 C17            6.2759     2.8277    -2.0624 C.ar    
  18 C18            6.2968     1.6062    -2.7322 C.ar    
  19 C19            5.7857     0.4683    -2.1116 C.ar    
  20 C20            6.8560     1.5186    -4.1042 C.2     
  21 C21            6.9390     0.3543    -4.8924 C.2     
  22 C22            7.5067     0.6917    -6.0709 C.2     
  23 N23            7.7761     2.0146    -6.0402 N.pl3   
  24 N24            7.3567     2.5164    -4.8015 N.2     
  25 C25           -1.5531     5.3324    -0.5963 C.3     
  26 C26            8.3955     2.7910    -7.1171 C.3     
  27 O27           -3.4669     6.6586    -2.2374 O.3     
  28 C28           -3.9235     5.9375    -1.0913 C.3     
  29 C29           -2.9658     4.7780    -0.8048 C.3     
  30 C30           -1.1425     6.1327    -1.8362 C.3     
  31 C31           -2.1706     7.2399    -2.0828 C.3     
  32 O32           -3.3878     4.0904     0.3747 O.3     
  33 H33           -0.9267    -0.5549     0.0182 H       
  34 H34            1.3487    -1.7094    -0.4767 H       
  35 H35            3.3497    -0.6372     0.5370 H       
  36 H36            1.7401     1.8313    -0.9815 H       
  37 H37            1.6144     1.1463     2.0277 H       
  38 H38            3.0567     4.2898     1.5676 H       
  39 H39           -0.8240     3.3440    -0.7472 H       
  40 H40            5.1919     2.6522     1.7689 H       
  41 H41            4.8334     0.9091     1.7340 H       
  42 H42            4.8701    -0.3259    -0.3537 H       
  43 H43            5.7381     3.8498    -0.2665 H       
  44 H44            6.6665     3.7137    -2.5407 H       
  45 H45            5.7955    -0.4802    -2.6280 H       
  46 H46            6.6080    -0.6328    -4.6055 H       
  47 H47            7.7097     0.0213    -6.8929 H       
  48 H48           -1.5406     5.9829     0.2782 H       
  49 H49            7.6199     3.1819    -7.7757 H       
  50 H50            8.9604     3.6193    -6.6893 H       
  51 H51            9.0672     2.1495    -7.6875 H       
  52 H52           -3.9538     6.6051    -0.2302 H       
  53 H53           -4.9222     5.5452    -1.2827 H       
  54 H54           -2.9656     4.0886    -1.6490 H       
  55 H55           -0.1605     6.5770    -1.6742 H       
  56 H56           -1.1055     5.4706    -2.7013 H       
  57 H57           -1.9067     7.7858    -2.9886 H       
  58 H58           -2.1781     7.9245    -1.2347 H       
  59 H59           -4.2777     3.7168     0.3150 H       
@<TRIPOS>BOND
   1    1    2 2
   2    1    5 1
   3    2    3 1
   4    2   33 1
   5    3    4 2
   6    3   34 1
   7    4    7 1
   8    4   35 1
   9    5    7 1
  10    5    6 1
  11    5   36 1
  12    6    9 2
  13    6   10 1
  14    7    8 1
  15    7   37 1
  16    8    9 1
  17    8   13 1
  18    9   38 1
  19   10   11 2
  20   10   12 am
  21   12   25 1
  22   12   39 1
  23   13   14 1
  24   13   40 1
  25   13   41 1
  26   14   16 ar
  27   14   15 ar
  28   15   19 ar
  29   15   42 1
  30   16   17 ar
  31   16   43 1
  32   17   18 ar
  33   17   44 1
  34   18   19 ar
  35   18   20 1
  36   19   45 1
  37   20   21 1
  38   20   24 2
  39   21   22 2
  40   21   46 1
  41   22   23 1
  42   22   47 1
  43   23   24 1
  44   23   26 1
  45   25   30 1
  46   25   29 1
  47   25   48 1
  48   26   49 1
  49   26   50 1
  50   26   51 1
  51   27   28 1
  52   27   31 1
  53   28   29 1
  54   28   52 1
  55   28   53 1
  56   29   32 1
  57   29   54 1
  58   30   31 1
  59   30   55 1
  60   30   56 1
  61   31   57 1
  62   31   58 1
  63   32   59 1

#	End of record

