#	Name: ASD02198455
#	Creating user name:	WinNT
#	Creation time:	15. 06. 2019 20:19

#	Modifying user name:	WinNT
#	Modification time:	15. 06. 2019 20:19

#	Program:	/corina/corina34_cracker 3.40 0067  02.08.2006

@<TRIPOS>MOLECULE
ASD02198455
  30   32    0    0    0
SMALL
NO_CHARGES


@<TRIPOS>ATOM
   1 C1            -0.0167     1.3837     0.0096 C.ar    
   2 S2            -1.5128    -0.9039     0.0110 S.o2    
   3 C3             0.0021    -0.0041     0.0020 C.ar    
   4 C4            -1.1155    -1.9789    -2.4387 C.3     
   5 N5            -1.9487    -1.1457    -1.5682 N.am    
   6 O6            -1.2146    -2.1862     0.5459 O.2     
   7 O7            -2.4910    -0.0373     0.5691 O.2     
   8 C8             1.1887    -0.6716    -0.0129 C.ar    
   9 C9             2.4082     0.0344    -0.0207 C.ar    
  10 C10            2.3982     1.4292    -0.0131 C.ar    
  11 C11            1.1564     2.0942     0.0023 C.ar    
  12 C12           -1.8261    -2.8312    -3.4920 C.3     
  13 C13           -1.0330    -1.5938    -3.9171 C.3     
  14 N14            3.6396     2.0222    -0.0213 N.pl3   
  15 S15            4.8328     0.8285    -0.0387 S.3     
  16 C16            3.7730    -0.5200    -0.0362 C.2     
  17 C17            3.8874     3.4661    -0.0163 C.3     
  18 O18            4.0858    -1.6985    -0.0451 O.2     
  19 H19           -0.9612     1.9075     0.0169 H       
  20 H20           -0.2203    -2.3940    -1.9757 H       
  21 H21           -2.7557    -0.7358    -1.9168 H       
  22 H22            1.1954    -1.7516    -0.0184 H       
  23 H23            1.1278     3.1738     0.0080 H       
  24 H24           -1.3982    -3.8069    -3.7223 H       
  25 H25           -2.9136    -2.7720    -3.5373 H       
  26 H26           -1.5987    -0.7206    -4.2421 H       
  27 H27           -0.0833    -1.7554    -4.4271 H       
  28 H28            3.9581     3.8190     1.0126 H       
  29 H29            4.8213     3.6762    -0.5375 H       
  30 H30            3.0671     3.9773    -0.5202 H       
@<TRIPOS>BOND
   1    1    3 ar
   2    1   11 ar
   3    1   19 1
   4    2    3 1
   5    2    6 2
   6    2    7 2
   7    2    5 am
   8    3    8 ar
   9    4    5 1
  10    4   12 1
  11    4   13 1
  12    4   20 1
  13    5   21 1
  14    8    9 ar
  15    8   22 1
  16    9   10 ar
  17    9   16 1
  18   10   11 ar
  19   10   14 1
  20   11   23 1
  21   12   13 1
  22   12   24 1
  23   12   25 1
  24   13   26 1
  25   13   27 1
  26   14   15 1
  27   14   17 1
  28   15   16 1
  29   16   18 2
  30   17   28 1
  31   17   29 1
  32   17   30 1

#	End of record

