#	Name: ASD01811247
#	Creating user name:	WinNT
#	Creation time:	15. 06. 2019 19:26

#	Modifying user name:	WinNT
#	Modification time:	15. 06. 2019 19:26

#	Program:	/corina/corina34_cracker 3.40 0067  02.08.2006

@<TRIPOS>MOLECULE
ASD01811247
  66   70    0    0    0
SMALL
NO_CHARGES


@<TRIPOS>ATOM
   1 C1            -7.3363     2.1310    -3.9034 C.1     
   2 C2            -6.3588     2.9294    -3.2269 C.ar    
   3 C3            -5.1973     2.3394    -2.7243 C.ar    
   4 C4            -4.2598     3.1144    -2.0737 C.ar    
   5 C5            -4.4685     4.4733    -1.9181 C.ar    
   6 C6            -5.6174     5.0644    -2.4133 C.ar    
   7 C7            -6.5600     4.3024    -3.0719 C.ar    
   8 N8            -8.1118     1.4977    -4.4401 N.1     
   9 N9            -2.4146     7.7426    -0.1822 N.am    
  10 C10           -1.8515     7.2271    -1.4376 C.3     
  11 C11           -2.9215     6.3971    -2.1538 C.3     
  12 C12           -3.4401     5.3134    -1.2057 C.3     
  13 C13           -4.0783     5.9692     0.0209 C.3     
  14 C14           -3.0215     6.7943     0.7618 C.3     
  15 C15           -2.3704     9.0597     0.1005 C.2     
  16 C16           -3.0176     9.5749     1.3260 C.ar    
  17 C17           -3.9733    10.5899     1.2392 C.ar    
  18 C18           -4.5783    11.0720     2.3825 C.ar    
  19 C19           -4.2433    10.5554     3.6188 C.ar    
  20 C20           -3.2897     9.5407     3.7197 C.ar    
  21 C21           -2.6797     9.0453     2.5695 C.ar    
  22 O22           -1.7984     9.8239    -0.6521 O.2     
  23 C23           -4.3444    11.1603    -0.1055 C.3     
  24 C24           -2.9319     8.9890     5.0448 C.2     
  25 N25           -3.5069     9.2947     6.1865 N.2     
  26 C26           -2.9240     8.6041     7.1731 C.2     
  27 C27           -1.9509     7.8384     6.6388 C.2     
  28 N28           -1.9526     8.0714     5.2899 N.pl3   
  29 C29           -1.0382     6.8995     7.3848 C.3     
  30 C30           -3.2918     8.6710     8.6330 C.3     
  31 C31           -4.9083    11.0885     4.8616 C.3     
  32 C32           -4.7681    12.6105     5.0307 C.3     
  33 C33           -6.2264    12.6115     5.5187 C.3     
  34 C34           -6.4191    11.3248     4.6988 C.3     
  35 H35           -5.0335     1.2786    -2.8444 H       
  36 H36           -3.3610     2.6593    -1.6844 H       
  37 H37           -5.7742     6.1256    -2.2881 H       
  38 H38           -7.4541     4.7659    -3.4622 H       
  39 H39           -1.5500     8.0604    -2.0722 H       
  40 H40           -0.9873     6.5996    -1.2198 H       
  41 H41           -3.7459     7.0451    -2.4513 H       
  42 H42           -2.4880     5.9298    -3.0380 H       
  43 H43           -2.6108     4.6809    -0.8889 H       
  44 H44           -4.8918     6.6212    -0.2971 H       
  45 H45           -4.4682     5.1974     0.6846 H       
  46 H46           -2.2526     6.1315     1.1589 H       
  47 H47           -3.4919     7.3421     1.5783 H       
  48 H48           -5.3167    11.8568     2.3100 H       
  49 H49           -1.9449     8.2571     2.6418 H       
  50 H50           -5.1116    10.5373    -0.5652 H       
  51 H51           -4.7270    12.1728     0.0224 H       
  52 H52           -3.4628    11.1832    -0.7462 H       
  53 H53           -1.3672     7.6630     4.6331 H       
  54 H54           -1.4929     5.9098     7.4295 H       
  55 H55           -0.0807     6.8363     6.8679 H       
  56 H56           -0.8810     7.2731     8.3966 H       
  57 H57           -4.0553     7.9241     8.8500 H       
  58 H58           -2.4079     8.4740     9.2397 H       
  59 H59           -3.6780     9.6635     8.8652 H       
  60 H60           -4.6472    10.5239     5.7567 H       
  61 H61           -4.0506    12.9003     5.7983 H       
  62 H62           -4.6219    13.1426     4.0907 H       
  63 H63           -6.3271    12.4633     6.5939 H       
  64 H64           -6.8096    13.4554     5.1503 H       
  65 H65           -6.7242    11.5054     3.6681 H       
  66 H66           -7.0344    10.5767     5.1986 H       
@<TRIPOS>BOND
   1    1    2 1
   2    1    8 3
   3    2    3 ar
   4    2    7 ar
   5    3    4 ar
   6    3   35 1
   7    4    5 ar
   8    4   36 1
   9    5    6 ar
  10    5   12 1
  11    6    7 ar
  12    6   37 1
  13    7   38 1
  14    9   10 1
  15    9   14 1
  16    9   15 am
  17   10   11 1
  18   10   39 1
  19   10   40 1
  20   11   12 1
  21   11   41 1
  22   11   42 1
  23   12   13 1
  24   12   43 1
  25   13   14 1
  26   13   44 1
  27   13   45 1
  28   14   46 1
  29   14   47 1
  30   15   16 1
  31   15   22 2
  32   16   17 ar
  33   16   21 ar
  34   17   18 ar
  35   17   23 1
  36   18   19 ar
  37   18   48 1
  38   19   20 ar
  39   19   31 1
  40   20   21 ar
  41   20   24 1
  42   21   49 1
  43   23   50 1
  44   23   51 1
  45   23   52 1
  46   24   25 2
  47   24   28 1
  48   25   26 1
  49   26   27 2
  50   26   30 1
  51   27   28 1
  52   27   29 1
  53   28   53 1
  54   29   54 1
  55   29   55 1
  56   29   56 1
  57   30   57 1
  58   30   58 1
  59   30   59 1
  60   31   32 1
  61   31   34 1
  62   31   60 1
  63   32   33 1
  64   32   61 1
  65   32   62 1
  66   33   34 1
  67   33   63 1
  68   33   64 1
  69   34   65 1
  70   34   66 1

#	End of record

