#	Name: ASD08780021
#	Creating user name:	WinNT
#	Creation time:	15. 06. 2019 21:19

#	Modifying user name:	WinNT
#	Modification time:	15. 06. 2019 21:19

#	Program:	/corina/corina34_cracker 3.40 0067  02.08.2006

@<TRIPOS>MOLECULE
ASD08780021
  18   18    0    0    0
SMALL
NO_CHARGES


@<TRIPOS>ATOM
   1 C1            -0.0184     1.5028     0.0103 C.2     
   2 C2             0.0021    -0.0041     0.0020 C.3     
   3 Br3           -1.8423    -0.6846     0.0160 Br      
   4 S4             2.8116     1.5323    -0.0172 S.3     
   5 C5             3.4936     3.0994    -0.0148 C.2     
   6 N6             2.5571     4.0066    -0.0005 N.2     
   7 C7             1.3192     3.5905     0.0092 C.2     
   8 C8             1.1909     2.2230     0.0026 C.2     
   9 C9             0.1381     4.5263     0.0266 C.3     
  10 N10            4.8438     3.3668    -0.0261 N.pl3   
  11 O11           -1.0788     2.0960     0.0186 O.2     
  12 H12            0.5123    -0.3556    -0.8948 H       
  13 H13            0.5293    -0.3651     0.8851 H       
  14 H14           -0.1571     4.7578    -0.9968 H       
  15 H15           -0.6942     4.0514     0.5462 H       
  16 H16            0.4112     5.4465     0.5430 H       
  17 H17            5.4826     2.6369    -0.0362 H       
  18 H18            5.1564     4.2850    -0.0239 H       
@<TRIPOS>BOND
   1    1    2 1
   2    1    8 1
   3    1   11 2
   4    2    3 1
   5    2   12 1
   6    2   13 1
   7    4    5 1
   8    4    8 1
   9    5    6 2
  10    5   10 1
  11    6    7 1
  12    7    8 2
  13    7    9 1
  14    9   14 1
  15    9   15 1
  16    9   16 1
  17   10   17 1
  18   10   18 1

#	End of record

