#	Name: ASD01913840
#	Creating user name:	WinNT
#	Creation time:	15. 06. 2019 20:02

#	Modifying user name:	WinNT
#	Modification time:	15. 06. 2019 20:02

#	Program:	/corina/corina34_cracker 3.40 0067  02.08.2006

@<TRIPOS>MOLECULE
ASD01913840
  44   46    0    0    0
SMALL
NO_CHARGES


@<TRIPOS>ATOM
   1 C1            -0.0203     1.4274     0.0503 C.ar    
   2 C2             0.0001    -0.0044     0.0304 C.1     
   3 C3             0.0168    -1.1781     0.0141 C.1     
   4 C4             0.0371    -2.6098    -0.0058 C.ar    
   5 C5            -1.1392    -3.3355    -0.2459 C.ar    
   6 C6             0.1561    -5.3344    -0.0280 C.ar    
   7 N7             1.2508    -4.6214     0.1901 N.ar    
   8 C8             1.2296    -3.3050     0.2079 C.ar    
   9 C9            -1.0688    -4.7142    -0.2551 C.ar    
  10 N10            0.2332    -6.7252    -0.0369 N.am    
  11 C11           -0.8327    -7.5440    -0.0260 C.2     
  12 C12           -0.3803    -8.9874    -0.0508 C.3     
  13 C13            1.0982    -8.9138    -0.4975 C.3     
  14 C14            1.4887    -7.4848    -0.0657 C.3     
  15 O15           -1.9889    -7.1788     0.0002 O.2     
  16 C16            1.1562     2.1425     0.2902 C.ar    
  17 C17            1.1302     3.5209     0.3076 C.ar    
  18 C18           -1.2287     3.4938    -0.1560 C.ar    
  19 C19           -1.2156     2.1153    -0.1759 C.ar    
  20 C20           -0.0596     4.1973     0.0882 C.ar    
  21 C21            1.9432    -9.9602     0.2317 C.3     
  22 C22            1.2206    -9.0742    -2.0141 C.3     
  23 O23           -0.4809    -9.5655     1.2522 O.3     
  24 C24           -1.7316   -10.2076     1.5082 C.3     
  25 F25           -0.0788     5.5481     0.1070 F       
  26 H26           -2.0768    -2.8281    -0.4189 H       
  27 H27            2.1428    -2.7576     0.3890 H       
  28 H28           -1.9546    -5.3049    -0.4363 H       
  29 H29           -0.9679    -9.5591    -0.7692 H       
  30 H30            2.1818    -7.0494    -0.7856 H       
  31 H31            1.9361    -7.5000     0.9281 H       
  32 H32            2.0837     1.6166     0.4620 H       
  33 H33            2.0387     4.0747     0.4929 H       
  34 H34           -2.1517     4.0265    -0.3306 H       
  35 H35           -2.1271     1.5682    -0.3663 H       
  36 H36            1.5598   -10.9560     0.0093 H       
  37 H37            2.9787    -9.8869    -0.1008 H       
  38 H38            1.8932    -9.7832     1.3061 H       
  39 H39            0.6654    -8.2778    -2.5097 H       
  40 H40            2.2705    -9.0186    -2.3018 H       
  41 H41            0.8132   -10.0405    -2.3113 H       
  42 H42           -2.5388    -9.4810     1.4155 H       
  43 H43           -1.8817   -11.0113     0.7873 H       
  44 H44           -1.7284   -10.6203     2.5170 H       
@<TRIPOS>BOND
   1    1    2 1
   2    1   16 ar
   3    1   19 ar
   4    2    3 3
   5    3    4 1
   6    4    5 ar
   7    4    8 ar
   8    5    9 ar
   9    5   26 1
  10    6    7 ar
  11    6   10 1
  12    6    9 ar
  13    7    8 ar
  14    8   27 1
  15    9   28 1
  16   10   11 am
  17   10   14 1
  18   11   12 1
  19   11   15 2
  20   12   13 1
  21   12   23 1
  22   12   29 1
  23   13   14 1
  24   13   21 1
  25   13   22 1
  26   14   30 1
  27   14   31 1
  28   16   17 ar
  29   16   32 1
  30   17   20 ar
  31   17   33 1
  32   18   19 ar
  33   18   20 ar
  34   18   34 1
  35   19   35 1
  36   20   25 1
  37   21   36 1
  38   21   37 1
  39   21   38 1
  40   22   39 1
  41   22   40 1
  42   22   41 1
  43   23   24 1
  44   24   42 1
  45   24   43 1
  46   24   44 1

#	End of record

