#	Name: ASD04591023
#	Creating user name:	WinNT
#	Creation time:	15. 06. 2019 20:51

#	Modifying user name:	WinNT
#	Modification time:	15. 06. 2019 20:51

#	Program:	/corina/corina34_cracker 3.40 0067  02.08.2006

@<TRIPOS>MOLECULE
ASD04591023
  61   66    0    0    0
SMALL
NO_CHARGES


@<TRIPOS>ATOM
   1 N1            -0.0171     1.3232    -0.0119 N.ar    
   2 C2             0.0017    -0.0035    -0.0051 C.ar    
   3 N3             1.1299    -0.6948    -0.0118 N.ar    
   4 C4             2.3051    -0.0727    -0.0262 C.ar    
   5 C5             2.3189     1.3367    -0.0341 C.ar    
   6 C6             1.1072     2.0202    -0.0261 C.ar    
   7 N7             3.6029    -0.5199    -0.0358 N.pl3   
   8 C8             4.4836     0.5510    -0.0499 C.ar    
   9 C9             3.7312     1.7398    -0.0495 C.ar    
  10 C10            5.8678     0.6416    -0.0637 C.ar    
  11 N11            6.4648     1.8172    -0.0761 N.ar    
  12 C12            5.7885     2.9561    -0.0761 C.ar    
  13 C13            4.4035     2.9598    -0.0631 C.ar    
  14 N14           -1.2019    -0.6888     0.0098 N.pl3   
  15 C15           -2.4019     0.0119     0.1303 C.ar    
  16 N16           -2.3784     1.3196     0.3309 N.ar    
  17 C17           -3.4885     2.0229     0.4504 C.ar    
  18 C18           -4.7292     1.4087     0.3694 C.ar    
  19 C19           -4.7935     0.0321     0.1587 C.ar    
  20 C20           -3.6094    -0.6709     0.0326 C.ar    
  21 N21           -5.9024     2.1615     0.4981 N.3     
  22 C22           -5.5954     3.5824     0.7134 C.3     
  23 C23           -6.9001     4.3807     0.7693 C.3     
  24 N24           -7.7454     3.8576     1.8516 N.3     
  25 C25           -8.0524     2.4367     1.6363 C.3     
  26 C26           -6.7477     1.6384     1.5804 C.3     
  27 C27            4.0012    -1.9297    -0.0317 C.3     
  28 C28            3.4601    -2.6267     1.2289 C.3     
  29 C29            2.5268    -3.7546     0.7426 C.3     
  30 C30            3.0193    -4.0625    -0.6932 C.3     
  31 C31            3.3779    -2.6584    -1.2401 C.3     
  32 O32            6.4617     4.1353    -0.0888 O.3     
  33 C33            7.8891     4.0673    -0.1017 C.3     
  34 H34            1.0849     3.1000    -0.0322 H       
  35 H35            6.4625    -0.2599    -0.0639 H       
  36 H36            3.8555     3.8904    -0.0630 H       
  37 H37           -1.2103    -1.6560    -0.0635 H       
  38 H38           -3.4302     3.0889     0.6134 H       
  39 H39           -5.7459    -0.4728     0.0914 H       
  40 H40           -3.6221    -1.7383    -0.1317 H       
  41 H41           -5.0568     3.6997     1.6538 H       
  42 H42           -4.9792     3.9498    -0.1072 H       
  43 H43           -6.6762     5.4307     0.9579 H       
  44 H44           -7.4256     4.2856    -0.1809 H       
  45 H45           -7.3114     4.0015     2.7511 H       
  46 H46           -8.6686     2.0694     2.4569 H       
  47 H47           -8.5910     2.3195     0.6959 H       
  48 H48           -6.9716     0.5885     1.3919 H       
  49 H49           -6.2222     1.7336     2.5306 H       
  50 H50            5.0877    -2.0106    -0.0658 H       
  51 H51            4.2838    -3.0465     1.8062 H       
  52 H52            2.9011    -1.9160     1.8377 H       
  53 H53            2.6287    -4.6345     1.3778 H       
  54 H54            1.4919    -3.4128     0.7259 H       
  55 H55            3.8998    -4.7046    -0.6702 H       
  56 H56            2.2244    -4.5162    -1.2853 H       
  57 H57            2.4804    -2.1396    -1.5770 H       
  58 H58            4.1009    -2.7384    -2.0518 H       
  59 H59            8.3008     5.0765    -0.1111 H       
  60 H60            8.2358     3.5417     0.7880 H       
  61 H61            8.2193     3.5319    -0.9918 H       
@<TRIPOS>BOND
   1    1    2 ar
   2    1    6 ar
   3    2    3 ar
   4    2   14 1
   5    3    4 ar
   6    4    5 ar
   7    4    7 1
   8    5    6 ar
   9    5    9 1
  10    6   34 1
  11    7    8 1
  12    7   27 1
  13    8    9 ar
  14    8   10 ar
  15    9   13 ar
  16   10   11 ar
  17   10   35 1
  18   11   12 ar
  19   12   13 ar
  20   12   32 1
  21   13   36 1
  22   14   15 1
  23   14   37 1
  24   15   16 ar
  25   15   20 ar
  26   16   17 ar
  27   17   18 ar
  28   17   38 1
  29   18   19 ar
  30   18   21 1
  31   19   20 ar
  32   19   39 1
  33   20   40 1
  34   21   22 1
  35   21   26 1
  36   22   23 1
  37   22   41 1
  38   22   42 1
  39   23   24 1
  40   23   43 1
  41   23   44 1
  42   24   25 1
  43   24   45 1
  44   25   26 1
  45   25   46 1
  46   25   47 1
  47   26   48 1
  48   26   49 1
  49   27   28 1
  50   27   31 1
  51   27   50 1
  52   28   29 1
  53   28   51 1
  54   28   52 1
  55   29   30 1
  56   29   53 1
  57   29   54 1
  58   30   31 1
  59   30   55 1
  60   30   56 1
  61   31   57 1
  62   31   58 1
  63   32   33 1
  64   33   59 1
  65   33   60 1
  66   33   61 1

#	End of record

