#	Name: ASD01918024
#	Creating user name:	WinNT
#	Creation time:	15. 06. 2019 20:10

#	Modifying user name:	WinNT
#	Modification time:	15. 06. 2019 20:10

#	Program:	/corina/corina34_cracker 3.40 0067  02.08.2006

@<TRIPOS>MOLECULE
ASD01918024
  44   47    0    0    0
SMALL
NO_CHARGES


@<TRIPOS>ATOM
   1 N1             4.8254    -0.4043    -2.1402 N.ar    
   2 C2             5.2916     0.2918    -3.1578 C.ar    
   3 C3             5.1765     1.6746    -3.1854 C.ar    
   4 C4             4.5603     2.3233    -2.1218 C.ar    
   5 C5             4.0817     1.5535    -1.0671 C.ar    
   6 C6             4.2351     0.1750    -1.1136 C.ar    
   7 O7             3.4725     2.1431    -0.0052 O.3     
   8 C8             3.4500     3.5021     0.0444 C.2     
   9 N9             2.1946     5.5119    -0.0215 N.pl3   
  10 C10            2.2657     4.1562    -0.0650 C.2     
  11 C11            4.6480     4.2065     0.2134 C.2     
  12 C12            4.6169     5.5958     0.2631 C.2     
  13 C13            3.3229     6.2657     0.1357 C.2     
  14 C14            5.8552     6.3728     0.4401 C.2     
  15 N15            5.8053     7.7189     0.4860 N.am    
  16 C16            6.9604     8.4503     0.7589 C.ar    
  17 O17            6.9230     5.7999     0.5449 O.2     
  18 N18            1.1297     6.4205    -0.1083 N.2     
  19 C19            1.6414     7.6245    -0.0100 C.2     
  20 N20            2.9568     7.5377     0.1419 N.2     
  21 O21            5.6602     2.3850    -4.2382 O.3     
  22 N22            8.1222     7.8250     0.8646 N.ar    
  23 C23            6.8813     9.8297     0.9116 C.ar    
  24 C24            8.0350    10.5447     1.1818 C.ar    
  25 C25            9.2343     9.8511     1.2905 C.ar    
  26 C26            9.2392     8.4782     1.1214 C.ar    
  27 C27            6.2800     1.6437    -5.2911 C.3     
  28 F28           10.3836    10.5110     1.5530 F       
  29 C29           10.5365     7.7194     1.2319 C.3     
  30 H30            5.7693    -0.2202    -3.9800 H       
  31 H31            4.4562     3.3983    -2.1143 H       
  32 H32            3.8660    -0.4305    -0.2991 H       
  33 H33            1.3578     3.5848    -0.1901 H       
  34 H34            5.5850     3.6773     0.3043 H       
  35 H35            4.9658     8.1787     0.3291 H       
  36 H36            1.0776     8.5451    -0.0411 H       
  37 H37            5.9322    10.3367     0.8202 H       
  38 H38            8.0040    11.6172     1.3051 H       
  39 H39            6.6210     2.3297    -6.0665 H       
  40 H40            7.1318     1.0916    -4.8941 H       
  41 H41            5.5598     0.9444    -5.7158 H       
  42 H42           11.0080     7.6610     0.2509 H       
  43 H43           11.2014     8.2354     1.9245 H       
  44 H44           10.3384     6.7128     1.6002 H       
@<TRIPOS>BOND
   1    1    2 ar
   2    1    6 ar
   3    2    3 ar
   4    2   30 1
   5    3    4 ar
   6    3   21 1
   7    4    5 ar
   8    4   31 1
   9    5    6 ar
  10    5    7 1
  11    6   32 1
  12    7    8 1
  13    8   11 1
  14    8   10 2
  15    9   10 1
  16    9   18 1
  17    9   13 1
  18   10   33 1
  19   11   12 2
  20   11   34 1
  21   12   13 1
  22   12   14 1
  23   13   20 2
  24   14   15 am
  25   14   17 2
  26   15   16 1
  27   15   35 1
  28   16   23 ar
  29   16   22 ar
  30   18   19 2
  31   19   20 1
  32   19   36 1
  33   21   27 1
  34   22   26 ar
  35   23   24 ar
  36   23   37 1
  37   24   25 ar
  38   24   38 1
  39   25   26 ar
  40   25   28 1
  41   26   29 1
  42   27   39 1
  43   27   40 1
  44   27   41 1
  45   29   42 1
  46   29   43 1
  47   29   44 1

#	End of record

