#	Name: ASD01915888
#	Creating user name:	WinNT
#	Creation time:	15. 06. 2019 20:06

#	Modifying user name:	WinNT
#	Modification time:	15. 06. 2019 20:06

#	Program:	/corina/corina34_cracker 3.40 0067  02.08.2006

@<TRIPOS>MOLECULE
ASD01915888
  41   44    0    0    0
SMALL
NO_CHARGES


@<TRIPOS>ATOM
   1 C1            -0.0167     1.3816     0.0096 C.2     
   2 C2             0.0021    -0.0041     0.0020 C.2     
   3 C3            -1.3134    -0.7687     0.0120 C.3     
   4 C4            -2.3556     0.0579     0.7615 C.3     
   5 N5            -2.3968     1.4465     0.3225 N.am    
   6 C6            -1.2728     2.1395     0.0202 C.2     
   7 O7            -1.3031     3.3316    -0.2234 O.2     
   8 S8             1.6313     1.9715    -0.0029 S.3     
   9 C9             2.2203     0.3104    -0.0185 C.2     
  10 N10            1.2022    -0.5135    -0.0131 N.2     
  11 C11            3.5985    -0.0782    -0.0350 C.1     
  12 C12           -3.6953     2.1137     0.1998 C.3     
  13 C13            4.7284    -0.3968    -0.0484 C.1     
  14 C14            6.1066    -0.7854    -0.0649 C.ar    
  15 C15            6.4547    -2.1395    -0.0762 C.ar    
  16 C16            7.7840    -2.5058    -0.0920 C.ar    
  17 C17            8.7724    -1.5370    -0.0967 C.ar    
  18 C18            8.4357    -0.1947    -0.0855 C.ar    
  19 C19            7.1108     0.1874    -0.0755 C.ar    
  20 C20           -4.0472     2.7724     1.5088 C.ar    
  21 C21           -3.6599     4.0769     1.7523 C.ar    
  22 C22           -3.9826     4.6810     2.9530 C.ar    
  23 C23           -4.6931     3.9809     3.9100 C.ar    
  24 C24           -5.0813     2.6768     3.6662 C.ar    
  25 C25           -4.7622     2.0741     2.4637 C.ar    
  26 H26           -1.6469    -0.9357    -1.0122 H       
  27 H27           -1.1758    -1.7261     0.5146 H       
  28 H28           -3.3373    -0.3894     0.6059 H       
  29 H29           -2.1249     0.0325     1.8265 H       
  30 H30           -3.6431     2.8689    -0.5844 H       
  31 H31           -4.4590     1.3786    -0.0538 H       
  32 H32            5.6845    -2.8966    -0.0723 H       
  33 H33            8.0546    -3.5513    -0.1004 H       
  34 H34            9.8118    -1.8301    -0.1087 H       
  35 H35            9.2127     0.5555    -0.0892 H       
  36 H36            6.8496     1.2353    -0.0672 H       
  37 H37           -3.1047     4.6238     1.0046 H       
  38 H38           -3.6794     5.6999     3.1435 H       
  39 H39           -4.9447     4.4527     4.8484 H       
  40 H40           -5.6361     2.1297     4.4140 H       
  41 H41           -5.0655     1.0552     2.2732 H       
@<TRIPOS>BOND
   1    1    2 2
   2    1    8 1
   3    1    6 1
   4    2    3 1
   5    2   10 1
   6    3    4 1
   7    3   26 1
   8    3   27 1
   9    4    5 1
  10    4   28 1
  11    4   29 1
  12    5    6 am
  13    5   12 1
  14    6    7 2
  15    8    9 1
  16    9   10 2
  17    9   11 1
  18   11   13 3
  19   12   20 1
  20   12   30 1
  21   12   31 1
  22   13   14 1
  23   14   15 ar
  24   14   19 ar
  25   15   16 ar
  26   15   32 1
  27   16   17 ar
  28   16   33 1
  29   17   18 ar
  30   17   34 1
  31   18   19 ar
  32   18   35 1
  33   19   36 1
  34   20   21 ar
  35   20   25 ar
  36   21   22 ar
  37   21   37 1
  38   22   23 ar
  39   22   38 1
  40   23   24 ar
  41   23   39 1
  42   24   25 ar
  43   24   40 1
  44   25   41 1

#	End of record

