#	Name: ASD03330255
#	Creating user name:	WinNT
#	Creation time:	15. 06. 2019 20:36

#	Modifying user name:	WinNT
#	Modification time:	15. 06. 2019 20:36

#	Program:	/corina/corina34_cracker 3.40 0067  02.08.2006

@<TRIPOS>MOLECULE
ASD03330255
  51   53    0    0    0
SMALL
NO_CHARGES


@<TRIPOS>ATOM
   1 C1             0.2792     3.3340    -1.3699 C.3     
   2 N2             0.2840     1.9286    -0.9406 N.3     
   3 C3             0.6502     1.0327    -2.0526 C.3     
   4 C4             1.9089     1.5676    -2.6853 C.2     
   5 N5             2.3838     2.8292    -2.4744 N.pl3   
   6 C6             1.7178     3.8091    -1.6119 C.3     
   7 C7             2.7696     0.9523    -3.5335 C.2     
   8 N8             3.7545     1.8315    -3.8289 N.2     
   9 C9             3.5283     2.9602    -3.1947 C.2     
  10 C10            4.3774     4.1702    -3.2550 C.ar    
  11 C11            5.3427     4.2992    -4.2542 C.ar    
  12 C12            2.6531    -0.4259    -4.0421 C.2     
  13 O13            1.7161    -1.1226    -3.7015 O.2     
  14 C14            3.4690    -2.2845    -5.3901 C.3     
  15 N15            3.5848    -0.9144    -4.8846 N.am    
  16 C16            6.1316     5.4296    -4.3056 C.ar    
  17 C17            5.9669     6.4352    -3.3680 C.ar    
  18 C18            5.0104     6.3127    -2.3741 C.ar    
  19 C19            4.2120     5.1893    -2.3165 C.ar    
  20 C20            4.2084    -2.3999    -6.7246 C.3     
  21 Cl21           6.9636     7.8548    -3.4384 Cl      
  22 C22            4.0851    -3.2546    -4.3801 C.3     
  23 O23            5.4759    -2.9640    -4.2278 O.3     
  24 C24            5.6530    -1.9271    -6.5497 C.3     
  25 C25            4.2016    -3.8584    -7.1869 C.3     
  26 C26            3.5101    -1.5297    -7.7715 C.3     
  27 H27           -0.2937     3.4291    -2.2923 H       
  28 H28           -0.1795     3.9480    -0.5949 H       
  29 H29            0.8973     1.7939    -0.1507 H       
  30 H30            0.8277     0.0268    -1.6723 H       
  31 H31           -0.1528     1.0126    -2.7894 H       
  32 H32            1.7061     4.7827    -2.1021 H       
  33 H33            2.2461     3.8816    -0.6613 H       
  34 H34            5.4722     3.5153    -4.9858 H       
  35 H35            2.4170    -2.5305    -5.5351 H       
  36 H36            4.3321    -0.3587    -5.1562 H       
  37 H37            6.8793     5.5304    -5.0783 H       
  38 H38            4.8863     7.1001    -1.6455 H       
  39 H39            3.4664     5.0947    -1.5409 H       
  40 H40            3.5836    -3.1449    -3.4185 H       
  41 H41            3.9645    -4.2770    -4.7382 H       
  42 H42            5.9320    -3.5417    -3.6007 H       
  43 H43            6.2037    -2.6545    -5.9534 H       
  44 H44            6.1238    -1.8280    -7.5278 H       
  45 H45            5.6606    -0.9618    -6.0434 H       
  46 H46            3.1725    -4.1952    -7.3115 H       
  47 H47            4.7284    -3.9406    -8.1376 H       
  48 H48            4.6991    -4.4783    -6.4411 H       
  49 H49            3.5150    -0.4907    -7.4421 H       
  50 H50            4.0369    -1.6120    -8.7222 H       
  51 H51            2.4810    -1.8666    -7.8961 H       
@<TRIPOS>BOND
   1    1    2 1
   2    1    6 1
   3    1   27 1
   4    1   28 1
   5    2    3 1
   6    2   29 1
   7    3    4 1
   8    3   30 1
   9    3   31 1
  10    4    5 1
  11    4    7 2
  12    5    6 1
  13    5    9 1
  14    6   32 1
  15    6   33 1
  16    7    8 1
  17    7   12 1
  18    8    9 2
  19    9   10 1
  20   10   11 ar
  21   10   19 ar
  22   11   16 ar
  23   11   34 1
  24   12   13 2
  25   12   15 am
  26   14   15 1
  27   14   20 1
  28   14   22 1
  29   14   35 1
  30   15   36 1
  31   16   17 ar
  32   16   37 1
  33   17   18 ar
  34   17   21 1
  35   18   19 ar
  36   18   38 1
  37   19   39 1
  38   20   24 1
  39   20   25 1
  40   20   26 1
  41   22   23 1
  42   22   40 1
  43   22   41 1
  44   23   42 1
  45   24   43 1
  46   24   44 1
  47   24   45 1
  48   25   46 1
  49   25   47 1
  50   25   48 1
  51   26   49 1
  52   26   50 1
  53   26   51 1

#	End of record

