#	Name: ASD08710018
#	Creating user name:	WinNT
#	Creation time:	15. 06. 2019 21:19

#	Modifying user name:	WinNT
#	Modification time:	15. 06. 2019 21:19

#	Program:	/corina/corina34_cracker 3.40 0067  02.08.2006

@<TRIPOS>MOLECULE
ASD08710018
  46   48    0    0    0
SMALL
NO_CHARGES


@<TRIPOS>ATOM
   1 C1             0.2230     1.7193     0.4575 C.ar    
   2 C2             0.1901     0.3408     0.3607 C.ar    
   3 C3             1.4363     2.3811     0.4898 C.ar    
   4 C4             2.6165     1.6643     0.4253 C.ar    
   5 C5             2.5835     0.2857     0.3290 C.ar    
   6 C6             1.3703    -0.3760     0.2962 C.ar    
   7 S7             1.3283    -2.1333     0.1740 S.o2    
   8 O8             0.0634    -2.4667    -0.3810 O.2     
   9 O9             2.5620    -2.5243    -0.4128 O.2     
  10 N10            1.3341    -2.7323     1.7178 N.am    
  11 C11            0.0721    -2.9738     2.4312 C.3     
  12 C12            2.6012    -3.0378     2.3968 C.3     
  13 C13            2.5679    -4.4987     2.8625 C.3     
  14 N14            1.3060    -4.7349     3.5779 N.am    
  15 C15            0.0441    -4.4348     2.8968 C.3     
  16 C16            1.4722     3.8840     0.5949 C.3     
  17 F17            1.4987     4.2567     1.9430 F       
  18 F18            2.6176     4.3690    -0.0456 F       
  19 F19            0.3338     4.4215    -0.0153 F       
  20 C20            1.3107    -5.2233     4.8341 C.2     
  21 O21            2.3577    -5.5591     5.3515 O.2     
  22 C22            0.0393    -5.3508     5.5842 C.ar    
  23 C23           -0.5445    -6.6049     5.7455 C.ar    
  24 C24           -1.7338    -6.7083     6.4502 C.ar    
  25 C25           -2.2975    -5.5534     6.9688 C.ar    
  26 C26           -1.6613    -4.3383     6.7697 C.ar    
  27 N27           -0.5309    -4.2694     6.1015 N.ar    
  28 C28            0.1073    -7.8319     5.1619 C.3     
  29 H29           -0.6991     2.2797     0.5034 H       
  30 H30           -0.7578    -0.1763     0.3359 H       
  31 H31            3.5643     2.1814     0.4499 H       
  32 H32            3.5056    -0.2742     0.2779 H       
  33 H33            0.0084    -2.3130     3.2958 H       
  34 H34           -0.7679    -2.7869     1.7622 H       
  35 H35            3.4310    -2.8932     1.7051 H       
  36 H36            2.7217    -2.3817     3.2589 H       
  37 H37            2.6274    -5.1597     1.9979 H       
  38 H38            3.4081    -4.6891     3.5302 H       
  39 H39           -0.7872    -4.5780     3.5871 H       
  40 H40           -0.0733    -5.0944     2.0370 H       
  41 H41           -2.2104    -7.6671     6.5914 H       
  42 H42           -3.2237    -5.5998     7.5223 H       
  43 H43           -2.0978    -3.4362     7.1725 H       
  44 H44            0.8590    -8.2088     5.8555 H       
  45 H45           -0.6483    -8.5992     4.9930 H       
  46 H46            0.5826    -7.5754     4.2151 H       
@<TRIPOS>BOND
   1    1    2 ar
   2    1    3 ar
   3    1   29 1
   4    2    6 ar
   5    2   30 1
   6    3    4 ar
   7    3   16 1
   8    4    5 ar
   9    4   31 1
  10    5    6 ar
  11    5   32 1
  12    6    7 1
  13    7    8 2
  14    7    9 2
  15    7   10 am
  16   10   11 1
  17   10   12 1
  18   11   15 1
  19   11   33 1
  20   11   34 1
  21   12   13 1
  22   12   35 1
  23   12   36 1
  24   13   14 1
  25   13   37 1
  26   13   38 1
  27   14   15 1
  28   14   20 am
  29   15   39 1
  30   15   40 1
  31   16   17 1
  32   16   18 1
  33   16   19 1
  34   20   21 2
  35   20   22 1
  36   22   23 ar
  37   22   27 ar
  38   23   24 ar
  39   23   28 1
  40   24   25 ar
  41   24   41 1
  42   25   26 ar
  43   25   42 1
  44   26   27 ar
  45   26   43 1
  46   28   44 1
  47   28   45 1
  48   28   46 1

#	End of record

