#	Name: ASD01910493
#	Creating user name:	WinNT
#	Creation time:	15. 06. 2019 19:55

#	Modifying user name:	WinNT
#	Modification time:	15. 06. 2019 19:55

#	Program:	/corina/corina34_cracker 3.40 0067  02.08.2006

@<TRIPOS>MOLECULE
ASD01910493
  47   50    0    0    0
SMALL
NO_CHARGES


@<TRIPOS>ATOM
   1 C1             0.0501     1.4714     0.0681 C.ar    
   2 C2             0.0550    -0.0120     0.0470 C.2     
   3 N3            -1.0305    -0.8185     0.0498 N.2     
   4 C4            -0.5607    -2.0409     0.0264 C.2     
   5 O5             0.7728    -1.9498     0.0102 O.3     
   6 N6             1.1098    -0.7847     0.0166 N.2     
   7 C7            -1.3712    -3.3113     0.0190 C.3     
   8 C8            -1.0542    -4.1121    -1.2461 C.3     
   9 C9            -1.9011    -5.3866    -1.2706 C.3     
  10 C10           -1.5542    -6.2490    -0.0529 C.3     
  11 N11           -1.7177    -5.4392     1.1621 N.am    
  12 C12           -1.0183    -4.1501     1.2513 C.3     
  13 C13           -2.4945    -5.8706     2.1755 C.2     
  14 C14           -3.2652    -7.1228     2.0339 C.ar    
  15 O15           -2.5609    -5.2291     3.2060 O.2     
  16 C16            1.2545     2.1761     0.0623 C.ar    
  17 C17            1.2424     3.5590     0.0821 C.ar    
  18 C18            0.0406     4.2413     0.1079 C.ar    
  19 C19           -1.1561     3.5464     0.1142 C.ar    
  20 C20           -1.1572     2.1669     0.0879 C.ar    
  21 F21            2.4293     1.5093     0.0379 F       
  22 C22           -2.6151    -8.3112     1.6951 C.ar    
  23 C23           -3.3391    -9.4771     1.5648 C.ar    
  24 C24           -4.7103    -9.4710     1.7690 C.ar    
  25 C25           -5.3610    -8.2935     2.1051 C.ar    
  26 C26           -4.6460    -7.1235     2.2441 C.ar    
  27 F27           -5.4151   -10.6162     1.6395 F       
  28 C28           -5.3545    -5.8447     2.6099 C.3     
  29 H29           -2.4330    -3.0655     0.0375 H       
  30 H30           -1.2814    -3.5082    -2.1246 H       
  31 H31            0.0027    -4.3782    -1.2520 H       
  32 H32           -2.9580    -5.1218    -1.2397 H       
  33 H33           -1.6920    -5.9448    -2.1832 H       
  34 H34           -2.2228    -7.1088    -0.0117 H       
  35 H35           -0.5216    -6.5897    -0.1287 H       
  36 H36            0.0580    -4.3197     1.2819 H       
  37 H37           -1.3333    -3.6251     2.1531 H       
  38 H38            2.1734     4.1065     0.0776 H       
  39 H39            0.0354     5.3211     0.1237 H       
  40 H40           -2.0917     4.0855     0.1348 H       
  41 H41           -2.0924     1.6267     0.0925 H       
  42 H42           -1.5470    -8.3169     1.5352 H       
  43 H43           -2.8372   -10.3968     1.3028 H       
  44 H44           -6.4295    -8.2941     2.2624 H       
  45 H45           -5.4595    -5.7846     3.6932 H       
  46 H46           -4.7747    -4.9933     2.2533 H       
  47 H47           -6.3416    -5.8312     2.1478 H       
@<TRIPOS>BOND
   1    1    2 1
   2    1   16 ar
   3    1   20 ar
   4    2    3 1
   5    2    6 2
   6    3    4 2
   7    4    5 1
   8    4    7 1
   9    5    6 1
  10    7    8 1
  11    7   12 1
  12    7   29 1
  13    8    9 1
  14    8   30 1
  15    8   31 1
  16    9   10 1
  17    9   32 1
  18    9   33 1
  19   10   11 1
  20   10   34 1
  21   10   35 1
  22   11   12 1
  23   11   13 am
  24   12   36 1
  25   12   37 1
  26   13   14 1
  27   13   15 2
  28   14   22 ar
  29   14   26 ar
  30   16   17 ar
  31   16   21 1
  32   17   18 ar
  33   17   38 1
  34   18   19 ar
  35   18   39 1
  36   19   20 ar
  37   19   40 1
  38   20   41 1
  39   22   23 ar
  40   22   42 1
  41   23   24 ar
  42   23   43 1
  43   24   25 ar
  44   24   27 1
  45   25   26 ar
  46   25   44 1
  47   26   28 1
  48   28   45 1
  49   28   46 1
  50   28   47 1

#	End of record

