#	Name: ASD01870257
#	Creating user name:	WinNT
#	Creation time:	15. 06. 2019 19:38

#	Modifying user name:	WinNT
#	Modification time:	15. 06. 2019 19:38

#	Program:	/corina/corina34_cracker 3.40 0067  02.08.2006

@<TRIPOS>MOLECULE
ASD01870257
  64   69    0    0    0
SMALL
NO_CHARGES


@<TRIPOS>ATOM
   1 C1            -0.3114     1.8536    -1.5593 C.ar    
   2 C2            -0.4977     0.4818    -1.4073 C.ar    
   3 C3             0.5409    -0.3368    -1.0758 C.ar    
   4 C4             1.8176     0.2081    -0.8848 C.ar    
   5 C5             2.0077     1.6079    -1.0404 C.ar    
   6 C6             0.9158     2.4191    -1.3814 C.ar    
   7 C7             2.9262    -0.5882    -0.5422 C.ar    
   8 N8             4.1043    -0.0478    -0.3712 N.ar    
   9 C9             4.3284     1.2663    -0.5078 C.ar    
  10 C10            3.2948     2.1244    -0.8437 C.ar    
  11 C11            5.5626     2.0683    -0.3620 C.2     
  12 N12            5.3073     3.3665    -0.5969 N.am    
  13 C13            3.8818     3.5101    -0.9148 C.3     
  14 C14            6.2864     4.4550    -0.5436 C.3     
  15 C15            7.6979     3.8778    -0.6674 C.3     
  16 C16            7.8309     3.1369    -1.9994 C.3     
  17 C17            7.5750     4.1100    -3.1520 C.3     
  18 C18            6.1635     4.6872    -3.0282 C.3     
  19 C19            6.0304     5.4281    -1.6962 C.3     
  20 C20            2.7538    -2.0754    -0.3707 C.3     
  21 C21            2.9841    -2.7634    -1.6915 C.ar    
  22 C22            4.2497    -3.1873    -2.0478 C.ar    
  23 N23            4.4597    -3.7903    -3.2020 N.ar    
  24 C24            3.4794    -4.0125    -4.0568 C.ar    
  25 C25            2.1855    -3.6157    -3.7678 C.ar    
  26 C26            1.9267    -2.9840    -2.5619 C.ar    
  27 O27            6.6531     1.6171    -0.0711 O.2     
  28 O28            7.9369     2.9689     0.4091 O.3     
  29 C29            3.2035     4.4221     0.1094 C.3     
  30 Cl30           3.8167    -4.8109    -5.5610 Cl      
  31 C31            3.6987     5.8341    -0.0697 C.ar    
  32 C32            3.2079     6.6132    -1.1008 C.ar    
  33 C33            3.6622     7.9084    -1.2650 C.ar    
  34 C34            4.6069     8.4247    -0.3979 C.ar    
  35 C35            5.0969     7.6460     0.6338 C.ar    
  36 C36            4.6395     6.3522     0.8006 C.ar    
  37 H37           -1.1511     2.4780    -1.8264 H       
  38 H38           -1.4809     0.0597    -1.5540 H       
  39 H39            0.3805    -1.3986    -0.9608 H       
  40 H40            1.0466     3.4842    -1.5030 H       
  41 H41            3.7607     3.9174    -1.9186 H       
  42 H42            6.1916     4.9828     0.4054 H       
  43 H43            8.4264     4.6876    -0.6277 H       
  44 H44            8.8365     2.7257    -2.0876 H       
  45 H45            7.1025     2.3271    -2.0391 H       
  46 H46            8.3035     4.9199    -3.1123 H       
  47 H47            7.6698     3.5822    -4.1010 H       
  48 H48            5.9812     5.3805    -3.8494 H       
  49 H49            5.4350     3.8774    -3.0679 H       
  50 H50            5.0249     5.8393    -1.6080 H       
  51 H51            6.7589     6.2379    -1.6565 H       
  52 H52            3.4738    -2.4427     0.3606 H       
  53 H53            1.7426    -2.2862    -0.0226 H       
  54 H54            5.0771    -3.0228    -1.3734 H       
  55 H55            1.3870    -3.7994    -4.4713 H       
  56 H56            0.9268    -2.6636    -2.3092 H       
  57 H57            8.7851     2.5078     0.3537 H       
  58 H58            2.1239     4.3942    -0.0381 H       
  59 H59            3.4417     4.0784     1.1159 H       
  60 H60            2.4699     6.2098    -1.7783 H       
  61 H61            3.2793     8.5168    -2.0710 H       
  62 H62            4.9623     9.4364    -0.5266 H       
  63 H63            5.8352     8.0492     1.3110 H       
  64 H64            5.0196     5.7450     1.6089 H       
@<TRIPOS>BOND
   1    1    2 ar
   2    1    6 ar
   3    1   37 1
   4    2    3 ar
   5    2   38 1
   6    3    4 ar
   7    3   39 1
   8    4    5 ar
   9    4    7 ar
  10    5    6 ar
  11    5   10 ar
  12    6   40 1
  13    7    8 ar
  14    7   20 1
  15    8    9 ar
  16    9   10 ar
  17    9   11 1
  18   10   13 1
  19   11   12 am
  20   11   27 2
  21   12   13 1
  22   12   14 1
  23   13   29 1
  24   13   41 1
  25   14   15 1
  26   14   19 1
  27   14   42 1
  28   15   16 1
  29   15   28 1
  30   15   43 1
  31   16   17 1
  32   16   44 1
  33   16   45 1
  34   17   18 1
  35   17   46 1
  36   17   47 1
  37   18   19 1
  38   18   48 1
  39   18   49 1
  40   19   50 1
  41   19   51 1
  42   20   21 1
  43   20   52 1
  44   20   53 1
  45   21   22 ar
  46   21   26 ar
  47   22   23 ar
  48   22   54 1
  49   23   24 ar
  50   24   25 ar
  51   24   30 1
  52   25   26 ar
  53   25   55 1
  54   26   56 1
  55   28   57 1
  56   29   31 1
  57   29   58 1
  58   29   59 1
  59   31   32 ar
  60   31   36 ar
  61   32   33 ar
  62   32   60 1
  63   33   34 ar
  64   33   61 1
  65   34   35 ar
  66   34   62 1
  67   35   36 ar
  68   35   63 1
  69   36   64 1

#	End of record

