#	Name: ASD03092432
#	Creating user name:	WinNT
#	Creation time:	15. 06. 2019 20:32

#	Modifying user name:	WinNT
#	Modification time:	15. 06. 2019 20:32

#	Program:	/corina/corina34_cracker 3.40 0067  02.08.2006

@<TRIPOS>MOLECULE
ASD03092432
  57   60    0    0    0
SMALL
NO_CHARGES


@<TRIPOS>ATOM
   1 C1            -0.7460     1.1641    -0.2086 C.ar    
   2 C2            -0.9090    -0.2204    -0.2416 C.ar    
   3 N3             0.4750     1.6877    -0.2707 N.ar    
   4 N4             0.1492    -1.0053    -0.3344 N.ar    
   5 C5             1.3601    -0.4799    -0.3958 C.ar    
   6 C6             1.5255     0.8971    -0.3631 C.ar    
   7 C7            -1.9299     2.0493    -0.1108 C.2     
   8 O8            -3.0450     1.5692    -0.0592 O.2     
   9 N9            -1.7701     3.3872    -0.0790 N.am    
  10 C10           -2.9408     4.2626     0.0178 C.3     
  11 S11           -1.7893     8.0235     0.7444 S.3     
  12 C12           -1.8642     7.6184    -0.9146 C.2     
  13 N13           -2.2448     6.3848    -1.0607 N.2     
  14 C14           -2.4923     5.7012     0.0355 C.2     
  15 C15           -2.3105     6.3972     1.1773 C.2     
  16 C16           -3.4135     6.1018     4.7550 C.ar    
  17 C17           -3.2494     6.6176     3.4877 C.ar    
  18 C18           -2.5122     5.8859     2.5470 C.ar    
  19 C19           -1.9722     4.6551     2.9433 C.ar    
  20 C20           -2.1857     4.2161     4.2320 C.ar    
  21 N21           -2.8873     4.9373     5.0867 N.ar    
  22 C22           -1.6108     2.8942     4.6716 C.3     
  23 C23           -4.1987     6.8810     5.7784 C.3     
  24 N24           -1.5631     8.4808    -1.9531 N.3     
  25 C25           -1.1665     9.8014    -1.4431 C.3     
  26 C26           -0.9007    10.7395    -2.6235 C.3     
  27 O27            0.0987    10.1629    -3.4685 O.3     
  28 C28           -0.2549     8.8764    -3.9834 C.3     
  29 C29           -0.5142     7.9194    -2.8168 C.3     
  30 C30            0.8910     8.3370    -4.8417 C.3     
  31 C31           -0.4103    12.0914    -2.1012 C.3     
  32 H32           -1.8985    -0.6501    -0.1911 H       
  33 H33            2.2234    -1.1243    -0.4716 H       
  34 H34            2.5171     1.3222    -0.4139 H       
  35 H35           -0.8800     3.7705    -0.1201 H       
  36 H36           -3.5914     4.0955    -0.8406 H       
  37 H37           -3.4857     4.0406     0.9353 H       
  38 H38           -3.6830     7.5707     3.2233 H       
  39 H39           -1.3978     4.0594     2.2493 H       
  40 H40           -0.6130     3.0504     5.0817 H       
  41 H41           -2.2527     2.4547     5.4351 H       
  42 H42           -1.5508     2.2216     3.8161 H       
  43 H43           -5.2499     6.5983     5.7221 H       
  44 H44           -3.8161     6.6604     6.7749 H       
  45 H45           -4.0982     7.9477     5.5785 H       
  46 H46           -1.9680    10.2094    -0.8272 H       
  47 H47           -0.2607     9.7035    -0.8448 H       
  48 H48           -1.8205    10.8798    -3.1912 H       
  49 H49           -1.1560     8.9626    -4.5906 H       
  50 H50            0.4020     7.7914    -2.2405 H       
  51 H51           -0.8395     6.9537    -3.2037 H       
  52 H52            1.7909     8.2494    -4.2329 H       
  53 H53            0.6208     7.3565    -5.2339 H       
  54 H54            1.0777     9.0207    -5.6698 H       
  55 H55            0.5105    11.9499    -1.5353 H       
  56 H56           -0.2212    12.7588    -2.9420 H       
  57 H57           -1.1708    12.5285    -1.4542 H       
@<TRIPOS>BOND
   1    1    2 ar
   2    1    3 ar
   3    1    7 1
   4    2    4 ar
   5    2   32 1
   6    3    6 ar
   7    4    5 ar
   8    5    6 ar
   9    5   33 1
  10    6   34 1
  11    7    8 2
  12    7    9 am
  13    9   10 1
  14    9   35 1
  15   10   14 1
  16   10   36 1
  17   10   37 1
  18   11   12 1
  19   11   15 1
  20   12   13 2
  21   12   24 1
  22   13   14 1
  23   14   15 2
  24   15   18 1
  25   16   17 ar
  26   16   21 ar
  27   16   23 1
  28   17   18 ar
  29   17   38 1
  30   18   19 ar
  31   19   20 ar
  32   19   39 1
  33   20   21 ar
  34   20   22 1
  35   22   40 1
  36   22   41 1
  37   22   42 1
  38   23   43 1
  39   23   44 1
  40   23   45 1
  41   24   25 1
  42   24   29 1
  43   25   26 1
  44   25   46 1
  45   25   47 1
  46   26   27 1
  47   26   31 1
  48   26   48 1
  49   27   28 1
  50   28   29 1
  51   28   30 1
  52   28   49 1
  53   29   50 1
  54   29   51 1
  55   30   52 1
  56   30   53 1
  57   30   54 1
  58   31   55 1
  59   31   56 1
  60   31   57 1

#	End of record

