#	Name: ASD05740150
#	Creating user name:	WinNT
#	Creation time:	15. 06. 2019 21:02

#	Modifying user name:	WinNT
#	Modification time:	15. 06. 2019 21:02

#	Program:	/corina/corina34_cracker 3.40 0067  02.08.2006

@<TRIPOS>MOLECULE
ASD05740150
  62   67    0    0    0
SMALL
NO_CHARGES


@<TRIPOS>ATOM
   1 N1             0.2861    -0.1245    -3.3993 N.3     
   2 C2            -0.3265     0.7650    -2.4028 C.3     
   3 C3            -1.8171     0.4398    -2.2804 C.3     
   4 N4            -1.9784    -0.9690    -1.8945 N.3     
   5 C5            -1.3658    -1.8585    -2.8910 C.3     
   6 C6             0.1248    -1.5333    -3.0134 C.3     
   7 C7            -3.3280    -1.2850    -1.7025 C.ar    
   8 C8            -3.6939    -2.5726    -1.3323 C.ar    
   9 C9            -5.0255    -2.8843    -1.1430 C.ar    
  10 C10           -5.9991    -1.9106    -1.3232 C.ar    
  11 C11           -5.6333    -0.6232    -1.6938 C.ar    
  12 C12           -4.3012    -0.3097    -1.8767 C.ar    
  13 N13           -7.3501    -2.2271    -1.1315 N.pl3   
  14 C14           -7.7140    -3.1460    -0.1667 C.ar    
  15 N15           -6.7764    -3.6303     0.6405 N.ar    
  16 N16           -8.9857    -3.5070    -0.0778 N.ar    
  17 C17           -9.3708    -4.3873     0.8370 C.ar    
  18 C18           -8.4004    -4.9279     1.7093 C.ar    
  19 C19           -7.0708    -4.5112     1.5799 C.ar    
  20 N20          -10.6791    -4.7802     0.9539 N.am    
  21 C21          -11.0522    -5.6734     1.8875 C.2     
  22 C22          -10.1249    -6.2434     2.7831 C.2     
  23 C23           -8.8124    -5.8973     2.7198 C.2     
  24 C24          -11.6852    -4.2186     0.0491 C.3     
  25 O25          -12.2244    -5.9988     1.9615 O.2     
  26 C26            1.7029     0.2073    -3.6008 C.3     
  27 C27          -12.2234    -5.3118    -0.8982 C.3     
  28 C28          -13.4600    -5.8320    -0.1350 C.3     
  29 C29          -13.9103    -4.6721     0.7271 C.ar    
  30 C30          -12.8906    -3.7451     0.8329 C.ar    
  31 C31          -15.1170    -4.4456     1.3679 C.ar    
  32 C32          -15.3042    -3.2971     2.1116 C.ar    
  33 C33          -14.2841    -2.3699     2.2175 C.ar    
  34 C34          -13.0798    -2.5945     1.5801 C.ar    
  35 H35            0.1581     0.6182    -1.4375 H       
  36 H36           -0.2051     1.8016    -2.7171 H       
  37 H37           -2.2675     1.0788    -1.5209 H       
  38 H38           -2.3069     0.6127    -3.2387 H       
  39 H39           -1.4872    -2.8951    -2.5767 H       
  40 H40           -1.8504    -1.7117    -3.8562 H       
  41 H41            0.5753    -2.1723    -3.7729 H       
  42 H42            0.6146    -1.7062    -2.0551 H       
  43 H43           -2.9368    -3.3301    -1.1928 H       
  44 H44           -5.3100    -3.8856    -0.8550 H       
  45 H45           -6.3906     0.1338    -1.8347 H       
  46 H46           -4.0167     0.6915    -2.1650 H       
  47 H47           -8.0300    -1.8009    -1.6764 H       
  48 H48           -6.3027    -4.9040     2.2296 H       
  49 H49          -10.4585    -6.9575     3.5215 H       
  50 H50           -8.0928    -6.3276     3.4005 H       
  51 H51          -11.2592    -3.3963    -0.5257 H       
  52 H52            2.2392     0.0980    -2.6582 H       
  53 H53            2.1317    -0.4661    -4.3430 H       
  54 H54            1.7889     1.2360    -3.9507 H       
  55 H55          -12.5122    -4.8846    -1.8585 H       
  56 H56          -11.4882    -6.1054    -1.0314 H       
  57 H57          -14.2473    -6.1105    -0.8356 H       
  58 H58          -13.1889    -6.6838     0.4886 H       
  59 H59          -15.9144    -5.1693     1.2853 H       
  60 H60          -16.2465    -3.1233     2.6098 H       
  61 H61          -14.4287    -1.4712     2.7989 H       
  62 H62          -12.2834    -1.8697     1.6633 H       
@<TRIPOS>BOND
   1    1    2 1
   2    1   26 1
   3    1    6 1
   4    2    3 1
   5    2   35 1
   6    2   36 1
   7    3    4 1
   8    3   37 1
   9    3   38 1
  10    4    5 1
  11    4    7 1
  12    5    6 1
  13    5   39 1
  14    5   40 1
  15    6   41 1
  16    6   42 1
  17    7    8 ar
  18    7   12 ar
  19    8    9 ar
  20    8   43 1
  21    9   10 ar
  22    9   44 1
  23   10   11 ar
  24   10   13 1
  25   11   12 ar
  26   11   45 1
  27   12   46 1
  28   13   14 1
  29   13   47 1
  30   14   15 ar
  31   14   16 ar
  32   15   19 ar
  33   16   17 ar
  34   17   18 ar
  35   17   20 1
  36   18   19 ar
  37   18   23 1
  38   19   48 1
  39   20   21 am
  40   20   24 1
  41   21   22 1
  42   21   25 2
  43   22   23 2
  44   22   49 1
  45   23   50 1
  46   24   27 1
  47   24   30 1
  48   24   51 1
  49   26   52 1
  50   26   53 1
  51   26   54 1
  52   27   28 1
  53   27   55 1
  54   27   56 1
  55   28   29 1
  56   28   57 1
  57   28   58 1
  58   29   30 ar
  59   29   31 ar
  60   30   34 ar
  61   31   32 ar
  62   31   59 1
  63   32   33 ar
  64   32   60 1
  65   33   34 ar
  66   33   61 1
  67   34   62 1

#	End of record

