#	Name: ASD02562053
#	Creating user name:	WinNT
#	Creation time:	15. 06. 2019 20:25

#	Modifying user name:	WinNT
#	Modification time:	15. 06. 2019 20:25

#	Program:	/corina/corina34_cracker 3.40 0067  02.08.2006

@<TRIPOS>MOLECULE
ASD02562053
  44   47    0    0    0
SMALL
NO_CHARGES


@<TRIPOS>ATOM
   1 C1             0.1363     1.3890     1.1082 C.2     
   2 C2             0.1575    -0.0173     1.0961 C.2     
   3 C3             1.2855    -0.6788     0.7697 C.2     
   4 N4             2.4261     0.0060     0.4456 N.pl3   
   5 C5             2.4357     1.3823     0.4483 C.2     
   6 C6             1.2594     2.0845     0.7887 C.2     
   7 C7             3.6775    -0.4095     0.0848 C.2     
   8 C8             4.4305     0.7291    -0.1267 C.2     
   9 N9             3.6432     1.7969     0.1035 N.2     
  10 N10            4.1100    -1.7270    -0.0441 N.3     
  11 C11            5.8518     0.7683    -0.5336 C.ar    
  12 C12            2.9863    -2.6647     0.0816 C.3     
  13 C13            3.3262    -3.9682    -0.6438 C.3     
  14 C14            2.1557    -4.9448    -0.5128 C.3     
  15 C15            1.8982    -5.2368     0.9668 C.3     
  16 C16            1.5583    -3.9332     1.6922 C.3     
  17 C17            2.7287    -2.9566     1.5612 C.3     
  18 C18            6.3074     1.7804    -1.3825 C.ar    
  19 C19            7.6196     1.8171    -1.7591 C.ar    
  20 C20            8.5078     0.8415    -1.2944 C.ar    
  21 C21            8.0510    -0.1710    -0.4442 C.ar    
  22 C22            6.7396    -0.2033    -0.0644 C.ar    
  23 C23            9.8838     0.8790    -1.6891 C.1     
  24 N24           10.9754     0.9087    -2.0022 N.1     
  25 H25           -0.7711     1.9148     1.3665 H       
  26 H26           -0.7349    -0.5701     1.3499 H       
  27 H27            1.2899    -1.7588     0.7641 H       
  28 H28            1.2521     3.1645     0.7955 H       
  29 H29            4.5989    -1.8633    -0.9162 H       
  30 H30            2.0938    -2.2238    -0.3625 H       
  31 H31            3.5096    -3.7602    -1.6979 H       
  32 H32            4.2186    -4.4091    -0.1997 H       
  33 H33            1.2632    -4.5040    -0.9569 H       
  34 H34            2.3979    -5.8735    -1.0296 H       
  35 H35            1.0643    -5.9326     1.0601 H       
  36 H36            2.7907    -5.6776     1.4109 H       
  37 H37            0.6658    -3.4924     1.2481 H       
  38 H38            1.3748    -4.1412     2.7463 H       
  39 H39            3.6212    -3.3974     2.0053 H       
  40 H40            2.4866    -2.0279     2.0780 H       
  41 H41            5.6215     2.5336    -1.7412 H       
  42 H42            7.9715     2.5990    -2.4158 H       
  43 H43            8.7361    -0.9247    -0.0849 H       
  44 H44            6.3867    -0.9850     0.5920 H       
@<TRIPOS>BOND
   1    1    2 1
   2    1    6 2
   3    1   25 1
   4    2    3 2
   5    2   26 1
   6    3    4 1
   7    3   27 1
   8    4    5 1
   9    4    7 1
  10    5    6 1
  11    5    9 2
  12    6   28 1
  13    7    8 2
  14    7   10 1
  15    8    9 1
  16    8   11 1
  17   10   12 1
  18   10   29 1
  19   11   18 ar
  20   11   22 ar
  21   12   13 1
  22   12   17 1
  23   12   30 1
  24   13   14 1
  25   13   31 1
  26   13   32 1
  27   14   15 1
  28   14   33 1
  29   14   34 1
  30   15   16 1
  31   15   35 1
  32   15   36 1
  33   16   17 1
  34   16   37 1
  35   16   38 1
  36   17   39 1
  37   17   40 1
  38   18   19 ar
  39   18   41 1
  40   19   20 ar
  41   19   42 1
  42   20   21 ar
  43   20   23 1
  44   21   22 ar
  45   21   43 1
  46   22   44 1
  47   23   24 3

#	End of record

