#	Name: ASD01820075
#	Creating user name:	WinNT
#	Creation time:	15. 06. 2019 19:36

#	Modifying user name:	WinNT
#	Modification time:	15. 06. 2019 19:36

#	Program:	/corina/corina34_cracker 3.40 0067  02.08.2006

@<TRIPOS>MOLECULE
ASD01820075
  78   80    0    0    0
SMALL
NO_CHARGES


@<TRIPOS>ATOM
   1 C1            -0.0184     1.5023     0.0103 C.ar    
   2 C2             0.0021    -0.0041     0.0020 C.3     
   3 C3             1.1967    -0.4945    -0.8168 C.3     
   4 C4             2.4437     0.2314    -0.3891 C.2     
   5 N5             2.3941     1.5225    -0.0132 N.am    
   6 C6             1.1765     2.2096     0.0027 C.ar    
   7 C7             4.2643     2.8594    -0.8476 C.3     
   8 C8             3.6242     2.2128     0.3824 C.3     
   9 O9             3.5058    -0.3543    -0.3827 O.2     
  10 C10            5.5490     3.5804    -0.4344 C.3     
  11 N11            6.1636     4.2012    -1.6154 N.3     
  12 C12            7.2620     5.0956    -1.2282 C.3     
  13 C13            1.1582     3.5981     0.0114 C.ar    
  14 C14           -0.0480     4.2706     0.0268 C.ar    
  15 C15           -1.2363     3.5630     0.0341 C.ar    
  16 C16           -1.2214     2.1803     0.0197 C.ar    
  17 C17            5.1601     4.9100    -2.4197 C.3     
  18 C18            5.8054     5.4182    -3.7109 C.3     
  19 C19            6.9632     6.3576    -3.3617 C.3     
  20 C20            7.9701     5.6094    -2.4838 C.3     
  21 O21           17.4693    15.2742    -9.0518 O.3     
  22 C22            7.6510     6.8212    -4.6474 C.3     
  23 C23            8.7260     7.8550    -4.3063 C.3     
  24 C24            9.4138     8.3186    -5.5920 C.3     
  25 C25           10.4889     9.3525    -5.2509 C.3     
  26 C26           11.1767     9.8161    -6.5366 C.3     
  27 C27           12.2517    10.8500    -6.1955 C.3     
  28 C28           12.9396    11.3136    -7.4812 C.3     
  29 C29           14.0146    12.3475    -7.1401 C.3     
  30 C30           14.7024    12.8111    -8.4258 C.3     
  31 C31           15.7774    13.8450    -8.0847 C.3     
  32 C32           16.4653    14.3086    -9.3704 C.3     
  33 H33            0.0872    -0.3717     1.0246 H       
  34 H34           -0.9206    -0.3773    -0.4423 H       
  35 H35            1.3287    -1.5649    -0.6591 H       
  36 H36            1.0126    -0.3057    -1.8744 H       
  37 H37            4.5001     2.0891    -1.5818 H       
  38 H38            3.5694     3.5768    -1.2841 H       
  39 H39            3.3884     2.9832     1.1166 H       
  40 H40            4.3191     1.4954     0.8189 H       
  41 H41            5.3132     4.3507     0.2998 H       
  42 H42            6.2439     2.8630     0.0021 H       
  43 H43            6.8622     5.9394    -0.6658 H       
  44 H44            7.9730     4.5501    -0.6077 H       
  45 H45            2.0858     4.1513     0.0065 H       
  46 H46           -0.0633     5.3504     0.0335 H       
  47 H47           -2.1780     4.0915     0.0465 H       
  48 H48           -2.1508     1.6304     0.0253 H       
  49 H49            4.3444     4.2297    -2.6646 H       
  50 H50            4.7701     5.7547    -1.8517 H       
  51 H51            6.1834     4.5729    -4.2860 H       
  52 H52            5.0641     5.9578    -4.3004 H       
  53 H53            6.5797     7.2230    -2.8213 H       
  54 H54            8.7754     6.2855    -2.1966 H       
  55 H55            8.3822     4.7671    -3.0396 H       
  56 H56           17.9475    15.6129    -9.8211 H       
  57 H57            8.1128     5.9661    -5.1410 H       
  58 H58            6.9133     7.2699    -5.3126 H       
  59 H59            8.2642     8.7101    -3.8127 H       
  60 H60            9.4637     7.4063    -3.6411 H       
  61 H61            9.8757     7.4636    -6.0856 H       
  62 H62            8.6762     8.7674    -6.2572 H       
  63 H63           10.0270    10.2076    -4.7573 H       
  64 H64           11.2265     8.9038    -4.5857 H       
  65 H65           11.6385     8.9611    -7.0302 H       
  66 H66           10.4390    10.2649    -7.2018 H       
  67 H67           11.7899    11.7051    -5.7019 H       
  68 H68           12.9894    10.4013    -5.5303 H       
  69 H69           13.4014    10.4586    -7.9748 H       
  70 H70           12.2019    11.7624    -8.1464 H       
  71 H71           13.5527    13.2026    -6.6465 H       
  72 H72           14.7522    11.8987    -6.4749 H       
  73 H73           15.1642    11.9561    -8.9194 H       
  74 H74           13.9647    13.2599    -9.0910 H       
  75 H75           15.3156    14.7001    -7.5911 H       
  76 H76           16.5151    13.3962    -7.4195 H       
  77 H77           15.7276    14.7574   -10.0356 H       
  78 H78           16.9271    13.4535    -9.8640 H       
@<TRIPOS>BOND
   1    1    2 1
   2    1    6 ar
   3    1   16 ar
   4    2    3 1
   5    2   33 1
   6    2   34 1
   7    3    4 1
   8    3   35 1
   9    3   36 1
  10    4    5 am
  11    4    9 2
  12    5    6 1
  13    5    8 1
  14    6   13 ar
  15    7    8 1
  16    7   10 1
  17    7   37 1
  18    7   38 1
  19    8   39 1
  20    8   40 1
  21   10   11 1
  22   10   41 1
  23   10   42 1
  24   11   12 1
  25   11   17 1
  26   12   20 1
  27   12   43 1
  28   12   44 1
  29   13   14 ar
  30   13   45 1
  31   14   15 ar
  32   14   46 1
  33   15   16 ar
  34   15   47 1
  35   16   48 1
  36   17   18 1
  37   17   49 1
  38   17   50 1
  39   18   19 1
  40   18   51 1
  41   18   52 1
  42   19   22 1
  43   19   20 1
  44   19   53 1
  45   20   54 1
  46   20   55 1
  47   21   32 1
  48   21   56 1
  49   22   23 1
  50   22   57 1
  51   22   58 1
  52   23   24 1
  53   23   59 1
  54   23   60 1
  55   24   25 1
  56   24   61 1
  57   24   62 1
  58   25   26 1
  59   25   63 1
  60   25   64 1
  61   26   27 1
  62   26   65 1
  63   26   66 1
  64   27   28 1
  65   27   67 1
  66   27   68 1
  67   28   29 1
  68   28   69 1
  69   28   70 1
  70   29   30 1
  71   29   71 1
  72   29   72 1
  73   30   31 1
  74   30   73 1
  75   30   74 1
  76   31   32 1
  77   31   75 1
  78   31   76 1
  79   32   77 1
  80   32   78 1

#	End of record

