#	Name: ASD01813830
#	Creating user name:	WinNT
#	Creation time:	15. 06. 2019 19:31

#	Modifying user name:	WinNT
#	Modification time:	15. 06. 2019 19:31

#	Program:	/corina/corina34_cracker 3.40 0067  02.08.2006

@<TRIPOS>MOLECULE
ASD01813830
  48   51    0    0    0
SMALL
NO_CHARGES


@<TRIPOS>ATOM
   1 C1             0.1100     1.5500    -0.0323 C.2     
   2 C2             0.0841     0.1489    -0.0439 C.2     
   3 C3             1.2591    -0.5443    -0.0475 C.2     
   4 C4             2.4755     0.1584    -0.0396 C.2     
   5 N5             2.4712     1.5269    -0.0279 N.am    
   6 C6             1.2907     2.2090    -0.0247 C.2     
   7 C7             3.6844    -0.5516    -0.0432 C.2     
   8 C8             4.8716     0.1213    -0.0351 C.2     
   9 C9             4.8634     1.5285    -0.0237 C.2     
  10 C10            3.6313     2.2139    -0.0199 C.2     
  11 O11            3.6148     3.4332    -0.0104 O.2     
  12 C12            6.1237     2.2745    -0.0143 C.2     
  13 O13            6.1090     3.6233    -0.0034 O.3     
  14 O14            7.1836     1.6777    -0.0165 O.2     
  15 C15            3.6728    -2.0585    -0.0555 C.3     
  16 N16            3.7922    -2.5378    -1.4390 N.3     
  17 C17            4.0224    -3.9888    -1.4757 C.3     
  18 C18            4.0615    -4.4598    -2.9314 C.3     
  19 N19            5.1256    -3.7424    -3.6473 N.3     
  20 C20            4.8954    -2.2914    -3.6106 C.3     
  21 C21            4.8563    -1.8204    -2.1549 C.3     
  22 C22            5.2392    -4.1983    -4.9634 C.ar    
  23 C23            5.6733    -5.4942    -5.2166 C.ar    
  24 C24            5.7844    -5.9414    -6.5197 C.ar    
  25 C25            5.4642    -5.1011    -7.5700 C.ar    
  26 C26            5.0320    -3.8113    -7.3210 C.ar    
  27 C27            4.9132    -3.3595    -6.0212 C.ar    
  28 Cl28           6.0760    -6.5492    -3.8982 Cl      
  29 H29           -0.8163     2.1054    -0.0338 H       
  30 H30           -0.8586    -0.3780    -0.0496 H       
  31 H31            1.2542    -1.6243    -0.0561 H       
  32 H32            1.2988     3.2889    -0.0155 H       
  33 H33            5.8063    -0.4196    -0.0371 H       
  34 H34            6.9658     4.0716     0.0025 H       
  35 H35            4.5107    -2.4332     0.5324 H       
  36 H36            2.7378    -2.4182     0.3742 H       
  37 H37            4.9726    -4.2185    -0.9935 H       
  38 H38            3.2149    -4.4985    -0.9501 H       
  39 H39            4.2610    -5.5310    -2.9618 H       
  40 H40            3.1018    -4.2547    -3.4058 H       
  41 H41            5.7028    -1.7817    -4.1362 H       
  42 H42            3.9452    -2.0617    -4.0928 H       
  43 H43            4.6568    -0.7492    -2.1245 H       
  44 H44            5.8160    -2.0255    -1.6805 H       
  45 H45            6.1220    -6.9480    -6.7176 H       
  46 H46            5.5522    -5.4528    -8.5874 H       
  47 H47            4.7828    -3.1578    -8.1439 H       
  48 H48            4.5755    -2.3521    -5.8279 H       
@<TRIPOS>BOND
   1    1    2 1
   2    1    6 2
   3    1   29 1
   4    2    3 2
   5    2   30 1
   6    3    4 1
   7    3   31 1
   8    4    5 1
   9    4    7 2
  10    5    6 1
  11    5   10 am
  12    6   32 1
  13    7    8 1
  14    7   15 1
  15    8    9 2
  16    8   33 1
  17    9   10 1
  18    9   12 1
  19   10   11 2
  20   12   13 1
  21   12   14 2
  22   13   34 1
  23   15   16 1
  24   15   35 1
  25   15   36 1
  26   16   17 1
  27   16   21 1
  28   17   18 1
  29   17   37 1
  30   17   38 1
  31   18   19 1
  32   18   39 1
  33   18   40 1
  34   19   20 1
  35   19   22 1
  36   20   21 1
  37   20   41 1
  38   20   42 1
  39   21   43 1
  40   21   44 1
  41   22   23 ar
  42   22   27 ar
  43   23   24 ar
  44   23   28 1
  45   24   25 ar
  46   24   45 1
  47   25   26 ar
  48   25   46 1
  49   26   27 ar
  50   26   47 1
  51   27   48 1

#	End of record

