#	Name: ASD03091775
#	Creating user name:	WinNT
#	Creation time:	15. 06. 2019 20:31

#	Modifying user name:	WinNT
#	Modification time:	15. 06. 2019 20:31

#	Program:	/corina/corina34_cracker 3.40 0067  02.08.2006

@<TRIPOS>MOLECULE
ASD03091775
  37   39    0    0    0
SMALL
NO_CHARGES


@<TRIPOS>ATOM
   1 C1            -0.0111     1.4664    -0.0343 C.3     
   2 C2             0.0619    -0.0603    -0.1046 C.3     
   3 N3             0.7598    -0.5735     1.0811 N.3     
   4 C4             0.0356    -0.2314     2.3120 C.3     
   5 C5            -0.0388     1.2900     2.4563 C.3     
   6 C6             1.3809     1.8623     2.5289 C.3     
   7 N7             2.0588     1.6070     1.2506 N.am    
   8 C8             1.4092     2.0406     0.0061 C.3     
   9 C9             3.2546     0.9861     1.2201 C.2     
  10 O10            3.7518     0.6754     0.1537 O.2     
  11 C11            3.9566     0.6849     2.4720 C.2     
  12 C12            5.0961    -0.0574     2.5944 C.2     
  13 C13           -0.7561     1.8801     1.2384 C.3     
  14 O14            3.5929     1.0976     3.7039 O.3     
  15 C15            4.4682     0.6329     4.6048 C.2     
  16 C16            5.4139    -0.0865     3.9613 C.2     
  17 S17            6.7872    -0.9074     4.6993 S.o2    
  18 O18            7.7687    -1.0425     3.6806 O.2     
  19 O19            7.0336    -0.2472     5.9333 O.2     
  20 N20            6.2944    -2.4418     5.0802 N.am    
  21 H21           -0.5344     1.8479    -0.9111 H       
  22 H22           -0.9472    -0.4710    -0.1382 H       
  23 H23            0.6046    -0.3570    -1.0022 H       
  24 H24            0.9054    -1.5695     1.0122 H       
  25 H25           -0.9732    -0.6415     2.2656 H       
  26 H26            0.5593    -0.6524     3.1703 H       
  27 H27           -0.5822     1.5444     3.3663 H       
  28 H28            1.3333     2.9362     2.7093 H       
  29 H29            1.9295     1.3777     3.3366 H       
  30 H30            1.9763     1.6734    -0.8493 H       
  31 H31            1.3642     3.1293    -0.0226 H       
  32 H32            5.6463    -0.5305     1.7944 H       
  33 H33           -0.7697     2.9673     1.3153 H       
  34 H34           -1.7784     1.5041     1.2004 H       
  35 H35            4.4267     0.8069     5.6699 H       
  36 H36            6.9343    -3.1708     5.0803 H       
  37 H37            5.3657    -2.6116     5.3031 H       
@<TRIPOS>BOND
   1    1    2 1
   2    1    8 1
   3    1   13 1
   4    1   21 1
   5    2    3 1
   6    2   22 1
   7    2   23 1
   8    3    4 1
   9    3   24 1
  10    4    5 1
  11    4   25 1
  12    4   26 1
  13    5    6 1
  14    5   13 1
  15    5   27 1
  16    6    7 1
  17    6   28 1
  18    6   29 1
  19    7    8 1
  20    7    9 am
  21    8   30 1
  22    8   31 1
  23    9   10 2
  24    9   11 1
  25   11   12 2
  26   11   14 1
  27   12   16 1
  28   12   32 1
  29   13   33 1
  30   13   34 1
  31   14   15 1
  32   15   16 2
  33   15   35 1
  34   16   17 1
  35   17   18 2
  36   17   19 2
  37   17   20 am
  38   20   36 1
  39   20   37 1

#	End of record

