#	Name: ASD03091512
#	Creating user name:	WinNT
#	Creation time:	15. 06. 2019 20:30

#	Modifying user name:	WinNT
#	Modification time:	15. 06. 2019 20:30

#	Program:	/corina/corina34_cracker 3.40 0067  02.08.2006

@<TRIPOS>MOLECULE
ASD03091512
  40   42    0    0    0
SMALL
NO_CHARGES


@<TRIPOS>ATOM
   1 Cl1            0.0000     0.0000     0.0000 Cl      
   2 H2             0.0000     1.3700     0.0000 H       
   3 C3            13.7116    12.0185     7.3612 C.ar    
   4 C4            13.7306    10.6113     7.3535 C.ar    
   5 C5            14.9538     9.9506     7.3387 C.ar    
   6 C6            16.1253    10.6760     7.3318 C.ar    
   7 C7            16.1006    12.0641     7.3395 C.ar    
   8 C8            14.9107    12.7352     7.3536 C.ar    
   9 O9            12.4522    10.1866     7.3634 O.3     
  10 C10           11.5987    11.2318     7.3771 C.2     
  11 C11           12.2987    12.3955     7.3826 C.2     
  12 C12           10.1327    11.1265     7.3898 C.2     
  13 O13            9.4506    12.1337     7.4013 O.2     
  14 N14            9.5442     9.9140     7.3886 N.am    
  15 N15            6.8205     8.6739     5.6368 N.3     
  16 C16            7.5492     9.9054     5.9690 C.3     
  17 C17            8.0830     9.8090     7.4012 C.3     
  18 C18            7.6700     8.4557     7.9933 C.3     
  19 C19            8.2474     7.3400     7.1132 C.3     
  20 C20            7.7086     7.5044     5.6893 C.3     
  21 C21            5.6597     8.4928     6.5194 C.3     
  22 C22            6.1395     8.3569     7.9672 C.3     
  23 H23           14.9857     8.8711     7.3329 H       
  24 H24           17.0734    10.1589     7.3207 H       
  25 H25           17.0283    12.6171     7.3339 H       
  26 H26           14.8971    13.8151     7.3599 H       
  27 H27           11.8939    13.3968     7.3934 H       
  28 H28           10.0881     9.1109     7.3794 H       
  29 H29            8.3826    10.0324     5.2781 H       
  30 H30            6.8763    10.7591     5.8884 H       
  31 H31            7.6622    10.6147     8.0028 H       
  32 H32            8.0459     8.3619     9.0121 H       
  33 H33            9.3351     7.4093     7.1024 H       
  34 H34            7.9454     6.3700     7.5083 H       
  35 H35            7.1513     6.6115     5.4060 H       
  36 H36            8.5406     7.6482     5.0000 H       
  37 H37            5.0000     9.3563     6.4345 H       
  38 H38            5.1192     7.5918     6.2293 H       
  39 H39            5.8290     7.3910     8.3657 H       
  40 H40            5.7115     9.1576     8.5705 H       
@<TRIPOS>BOND
   1    1    2 1
   2    3    4 ar
   3    3    8 ar
   4    3   11 1
   5    4    5 ar
   6    4    9 1
   7    5    6 ar
   8    5   23 1
   9    6    7 ar
  10    6   24 1
  11    7    8 ar
  12    7   25 1
  13    8   26 1
  14    9   10 1
  15   10   11 2
  16   10   12 1
  17   11   27 1
  18   12   13 2
  19   12   14 am
  20   14   17 1
  21   14   28 1
  22   15   16 1
  23   15   20 1
  24   15   21 1
  25   16   17 1
  26   16   29 1
  27   16   30 1
  28   17   18 1
  29   17   31 1
  30   18   19 1
  31   18   22 1
  32   18   32 1
  33   19   20 1
  34   19   33 1
  35   19   34 1
  36   20   35 1
  37   20   36 1
  38   21   22 1
  39   21   37 1
  40   21   38 1
  41   22   39 1
  42   22   40 1

#	End of record

