#	Name: ASD01001222
#	Creating user name:	WinNT
#	Creation time:	15. 06. 2019 18:55

#	Modifying user name:	WinNT
#	Modification time:	15. 06. 2019 18:55

#	Program:	/corina/corina34_cracker 3.40 0067  02.08.2006

@<TRIPOS>MOLECULE
ASD01001222
  52   55    0    0    0
SMALL
NO_CHARGES


@<TRIPOS>ATOM
   1 C1            -0.0433     1.9048    -0.1099 C.3     
   2 C2            -0.1199     0.3964     0.1485 C.3     
   3 C3             0.6735    -0.3244    -0.9436 C.3     
   4 C4             2.1017     0.1618    -0.9363 C.2     
   5 C5             2.4047     1.4234    -0.5636 C.2     
   6 C6             1.4017     2.3207    -0.1576 C.2     
   7 O7             1.7072     3.4530     0.1602 O.2     
   8 C8             3.8325     1.9087    -0.5779 C.3     
   9 C9             4.7924     0.7558    -0.6095 C.2     
  10 C10            4.3928    -0.4744    -0.9711 C.2     
  11 N11            3.0894    -0.7070    -1.3149 N.pl3   
  12 C12            4.0510     2.7679    -1.7965 C.ar    
  13 C13            4.4414     4.0861    -1.6517 C.ar    
  14 C14            4.6417     4.8743    -2.7695 C.ar    
  15 C15            4.4521     4.3443    -4.0320 C.ar    
  16 C16            4.0626     3.0259    -4.1768 C.ar    
  17 C17            3.8665     2.2364    -3.0591 C.ar    
  18 C18            0.4842     0.0782     1.5177 C.3     
  19 C19           -1.5801    -0.0585     0.1082 C.3     
  20 C20            6.1463     0.9691    -0.2514 C.2     
  21 N21            6.5613     2.1984     0.1131 N.am    
  22 O22            6.9351     0.0417    -0.2730 O.2     
  23 C23            7.8732     2.3901     0.5595 C.ar    
  24 C24            8.9125     1.6590    -0.0010 C.ar    
  25 C25           10.2067     1.8505     0.4412 C.ar    
  26 C26           10.4685     2.7698     1.4419 C.ar    
  27 C27            9.4346     3.4993     2.0025 C.ar    
  28 C28            8.1393     3.3159     1.5600 C.ar    
  29 Cl29          12.0965     3.0080     1.9955 Cl      
  30 H30           -0.5212     2.1365    -1.0618 H       
  31 H31           -0.5502     2.4388     0.6939 H       
  32 H32            0.6548    -1.3982    -0.7570 H       
  33 H33            0.2246    -0.1173    -1.9150 H       
  34 H34            4.0173     2.5038     0.3164 H       
  35 H35            5.1054    -1.2857    -0.9902 H       
  36 H36            2.8629    -1.4954    -1.8327 H       
  37 H37            4.5895     4.5002    -0.6653 H       
  38 H38            4.9460     5.9044    -2.6564 H       
  39 H39            4.6079     4.9603    -4.9053 H       
  40 H40            3.9142     2.6118    -5.1632 H       
  41 H41            3.5622     1.2063    -3.1722 H       
  42 H42           -0.0720     0.6067     2.2920 H       
  43 H43            0.4284    -0.9952     1.6989 H       
  44 H44            1.5265     0.3963     1.5378 H       
  45 H45           -2.0026     0.1627    -0.8720 H       
  46 H46           -1.6316    -1.1316     0.2923 H       
  47 H47           -2.1465     0.4694     0.8755 H       
  48 H48            5.9503     2.9504     0.0659 H       
  49 H49            8.7087     0.9411    -0.7817 H       
  50 H50           11.0153     1.2820     0.0060 H       
  51 H51            9.6416     4.2159     2.7835 H       
  52 H52            7.3329     3.8857     1.9975 H       
@<TRIPOS>BOND
   1    1    2 1
   2    1    6 1
   3    1   30 1
   4    1   31 1
   5    2    3 1
   6    2   18 1
   7    2   19 1
   8    3    4 1
   9    3   32 1
  10    3   33 1
  11    4   11 1
  12    4    5 2
  13    5    6 1
  14    5    8 1
  15    6    7 2
  16    8    9 1
  17    8   12 1
  18    8   34 1
  19    9   10 2
  20    9   20 1
  21   10   11 1
  22   10   35 1
  23   11   36 1
  24   12   13 ar
  25   12   17 ar
  26   13   14 ar
  27   13   37 1
  28   14   15 ar
  29   14   38 1
  30   15   16 ar
  31   15   39 1
  32   16   17 ar
  33   16   40 1
  34   17   41 1
  35   18   42 1
  36   18   43 1
  37   18   44 1
  38   19   45 1
  39   19   46 1
  40   19   47 1
  41   20   21 am
  42   20   22 2
  43   21   23 1
  44   21   48 1
  45   23   24 ar
  46   23   28 ar
  47   24   25 ar
  48   24   49 1
  49   25   26 ar
  50   25   50 1
  51   26   27 ar
  52   26   29 1
  53   27   28 ar
  54   27   51 1
  55   28   52 1

#	End of record

