#	Name: ASD01912444
#	Creating user name:	WinNT
#	Creation time:	15. 06. 2019 19:59

#	Modifying user name:	WinNT
#	Modification time:	15. 06. 2019 19:59

#	Program:	/corina/corina34_cracker 3.40 0067  02.08.2006

@<TRIPOS>MOLECULE
ASD01912444
  38   41    0    0    0
SMALL
NO_CHARGES


@<TRIPOS>ATOM
   1 C1            -0.0438     1.4519    -0.0208 C.2     
   2 O2            -0.0578     0.1161    -0.0669 O.3     
   3 N3            -1.2016    -0.2874    -0.0690 N.2     
   4 C4            -2.0337     0.7203    -0.0254 C.2     
   5 N5            -1.2913     1.8498     0.0110 N.2     
   6 C6            -3.5157     0.6393    -0.0129 C.ar    
   7 C7            -4.1479    -0.6012    -0.0488 C.ar    
   8 C8            -5.5288    -0.6706    -0.0369 C.ar    
   9 C9            -6.2817     0.4912     0.0106 C.ar    
  10 C10           -5.6568     1.7245     0.0464 C.ar    
  11 C11           -4.2790     1.8039     0.0407 C.ar    
  12 F12           -6.1444    -1.8726    -0.0722 F       
  13 C13            1.1778     2.3342    -0.0021 C.3     
  14 C14            2.1050     2.0836     1.2010 C.3     
  15 N15            3.2185     2.2029     0.2399 N.am    
  16 C16            2.3336     1.8110    -0.8742 C.3     
  17 C17            4.5207     2.5360     0.3396 C.2     
  18 C18            5.4019     2.4333    -0.8417 C.ar    
  19 O19            4.9701     2.9210     1.4015 O.2     
  20 C20            4.9262     1.8595    -2.0229 C.ar    
  21 C21            6.7111     2.9146    -0.7827 C.ar    
  22 C22            7.5304     2.8167    -1.8875 C.ar    
  23 C23            7.0570     2.2421    -3.0562 C.ar    
  24 C24            5.7541     1.7661    -3.1232 C.ar    
  25 F25            7.8641     2.1493    -4.1357 F       
  26 F26            5.2979     1.2069    -4.2653 F       
  27 H27           -3.5608    -1.5069    -0.0862 H       
  28 H28           -7.3601     0.4337     0.0194 H       
  29 H29           -6.2484     2.6274     0.0834 H       
  30 H30           -3.7930     2.7679     0.0690 H       
  31 H31            0.9446     3.3864    -0.1647 H       
  32 H32            2.0814     2.8781     1.9469 H       
  33 H33            2.0033     1.0886     1.6343 H       
  34 H34            2.2990     0.7359    -1.0505 H       
  35 H35            2.4924     2.3879    -1.7853 H       
  36 H36            3.9130     1.4894    -2.0750 H       
  37 H37            7.0816     3.3634     0.1270 H       
  38 H38            8.5431     3.1890    -1.8419 H       
@<TRIPOS>BOND
   1    1    2 1
   2    1   13 1
   3    1    5 2
   4    2    3 1
   5    3    4 2
   6    4    5 1
   7    4    6 1
   8    6    7 ar
   9    6   11 ar
  10    7    8 ar
  11    7   27 1
  12    8    9 ar
  13    8   12 1
  14    9   10 ar
  15    9   28 1
  16   10   11 ar
  17   10   29 1
  18   11   30 1
  19   13   14 1
  20   13   16 1
  21   13   31 1
  22   14   15 1
  23   14   32 1
  24   14   33 1
  25   15   16 1
  26   15   17 am
  27   16   34 1
  28   16   35 1
  29   17   18 1
  30   17   19 2
  31   18   20 ar
  32   18   21 ar
  33   20   24 ar
  34   20   36 1
  35   21   22 ar
  36   21   37 1
  37   22   23 ar
  38   22   38 1
  39   23   24 ar
  40   23   25 1
  41   24   26 1

#	End of record

