#	Name: ASD01150997
#	Creating user name:	WinNT
#	Creation time:	15. 06. 2019 19:05

#	Modifying user name:	WinNT
#	Modification time:	15. 06. 2019 19:05

#	Program:	/corina/corina34_cracker 3.40 0067  02.08.2006

@<TRIPOS>MOLECULE
ASD01150997
  47   48    0    0    0
SMALL
NO_CHARGES


@<TRIPOS>ATOM
   1 C1            -0.0184     1.5028     0.0103 C.3     
   2 C2            -0.1278    -0.0001    -0.0075 C.2     
   3 N3            -1.2176    -0.5902    -0.5371 N.am    
   4 O4             0.7648    -0.6786     0.4549 O.2     
   5 C5            -1.3183    -1.9722    -0.5535 C.2     
   6 C6            -2.3718    -2.6901    -1.0619 C.2     
   7 N7            -2.2347    -4.0164    -0.9617 N.2     
   8 C8            -1.1496    -4.4321    -0.4104 C.2     
   9 S9            -0.1469    -3.0621     0.0498 S.3     
  10 C10           -3.5478    -2.0567    -1.6628 C.2     
  11 O11           -3.6194    -0.8441    -1.7268 O.2     
  12 O12           -4.5513    -2.8180    -2.1453 O.3     
  13 C13           -5.6855    -2.1224    -2.7269 C.3     
  14 C14           -6.7142    -3.1439    -3.2159 C.3     
  15 C15           -0.7882    -5.8793    -0.1955 C.3     
  16 C16           -0.0216    -6.3998    -1.4130 C.3     
  17 C17            1.4350     1.9009    -0.0105 C.ar    
  18 O18           -0.6764     2.0419    -1.1379 O.3     
  19 C19            2.3666     1.0841    -0.6235 C.ar    
  20 C20            3.6997     1.4493    -0.6426 C.ar    
  21 C21            4.1011     2.6314    -0.0491 C.ar    
  22 C22            3.1693     3.4486     0.5631 C.ar    
  23 C23            1.8356     3.0856     0.5784 C.ar    
  24 C24           -0.1344     1.5943    -2.3821 C.3     
  25 C25           -0.6781     2.0472     1.2788 C.3     
  26 F26            0.0700     1.6611     2.3961 F       
  27 F27           -0.7323     3.4437     1.2138 F       
  28 F28           -1.9754     1.5347     1.3865 F       
  29 H29           -1.9315    -0.0476    -0.9069 H       
  30 H30           -6.1416    -1.4789    -1.9747 H       
  31 H31           -5.3477    -1.5160    -3.5673 H       
  32 H32           -7.5656    -2.6217    -3.6524 H       
  33 H33           -6.2580    -3.7875    -3.9681 H       
  34 H34           -7.0519    -3.7503    -2.3754 H       
  35 H35           -0.1635    -5.9696     0.6931 H       
  36 H36           -1.6978    -6.4648    -0.0612 H       
  37 H37           -0.6464    -6.3094    -2.3016 H       
  38 H38            0.8879    -5.8142    -1.5472 H       
  39 H39            0.2398    -7.4465    -1.2575 H       
  40 H40            2.0530     0.1605    -1.0872 H       
  41 H41            4.4277     0.8108    -1.1209 H       
  42 H42            5.1427     2.9164    -0.0634 H       
  43 H43            3.4830     4.3721     1.0271 H       
  44 H44            1.1076     3.7241     1.0567 H       
  45 H45            0.9143     1.8842    -2.4468 H       
  46 H46           -0.2160     0.5092    -2.4445 H       
  47 H47           -0.6882     2.0482    -3.2039 H       
@<TRIPOS>BOND
   1    1    2 1
   2    1   17 1
   3    1   18 1
   4    1   25 1
   5    2    3 am
   6    2    4 2
   7    3    5 1
   8    3   29 1
   9    5    6 2
  10    5    9 1
  11    6    7 1
  12    6   10 1
  13    7    8 2
  14    8    9 1
  15    8   15 1
  16   10   11 2
  17   10   12 1
  18   12   13 1
  19   13   14 1
  20   13   30 1
  21   13   31 1
  22   14   32 1
  23   14   33 1
  24   14   34 1
  25   15   16 1
  26   15   35 1
  27   15   36 1
  28   16   37 1
  29   16   38 1
  30   16   39 1
  31   17   19 ar
  32   17   23 ar
  33   18   24 1
  34   19   20 ar
  35   19   40 1
  36   20   21 ar
  37   20   41 1
  38   21   22 ar
  39   21   42 1
  40   22   23 ar
  41   22   43 1
  42   23   44 1
  43   24   45 1
  44   24   46 1
  45   24   47 1
  46   25   26 1
  47   25   27 1
  48   25   28 1

#	End of record

