#	Name: ASD00180044
#	Creating user name:	WinNT
#	Creation time:	15. 06. 2019 18:33

#	Modifying user name:	WinNT
#	Modification time:	15. 06. 2019 18:33

#	Program:	/corina/corina34_cracker 3.40 0067  02.08.2006

@<TRIPOS>MOLECULE
ASD00180044
  21   22    0    0    0
SMALL
NO_CHARGES


@<TRIPOS>ATOM
   1 C1            -0.0166     1.3761     0.0096 C.ar    
   2 C2             0.0021    -0.0041     0.0020 C.ar    
   3 C3             1.2088    -0.6874    -0.0130 C.ar    
   4 C4             2.4074     0.0011    -0.0089 C.ar    
   5 C5             2.4081     1.3847     0.0099 C.ar    
   6 C6             1.1867     2.0807     0.0019 C.ar    
   7 C7             1.2169     3.5503    -0.0008 C.2     
   8 O8             3.5683     2.0848     0.0583 O.3     
   9 C9             3.6089     3.3434    -0.6132 C.3     
  10 C10            2.3936     4.1658    -0.2720 C.2     
  11 C11            2.4805     5.5803    -0.2350 C.2     
  12 O12            1.4982     6.2430     0.0404 O.2     
  13 O13            3.6527     6.1915    -0.5052 O.3     
  14 Cl14          -1.4917    -0.8885     0.0119 Cl      
  15 H15           -0.9572     1.9069     0.0170 H       
  16 H16            1.2120    -1.7673    -0.0276 H       
  17 H17            3.3420    -0.5401    -0.0200 H       
  18 H18            0.3257     4.1239     0.2073 H       
  19 H19            4.5054     3.8840    -0.3097 H       
  20 H20            3.6385     3.1755    -1.6898 H       
  21 H21            3.6138     7.1564    -0.4552 H       
@<TRIPOS>BOND
   1    1    2 ar
   2    1    6 ar
   3    1   15 1
   4    2    3 ar
   5    2   14 1
   6    3    4 ar
   7    3   16 1
   8    4    5 ar
   9    4   17 1
  10    5    6 ar
  11    5    8 1
  12    6    7 1
  13    7   10 2
  14    7   18 1
  15    8    9 1
  16    9   10 1
  17    9   19 1
  18    9   20 1
  19   10   11 1
  20   11   12 2
  21   11   13 1
  22   13   21 1

#	End of record

