#	Name: ASD03092653
#	Creating user name:	WinNT
#	Creation time:	15. 06. 2019 20:32

#	Modifying user name:	WinNT
#	Modification time:	15. 06. 2019 20:32

#	Program:	/corina/corina34_cracker 3.40 0067  02.08.2006

@<TRIPOS>MOLECULE
ASD03092653
  50   53    0    0    0
SMALL
NO_CHARGES


@<TRIPOS>ATOM
   1 C1            -0.4704     1.3516    -1.0622 C.ar    
   2 C2            -0.4699    -0.0579    -1.0873 C.ar    
   3 C3             0.6390    -0.7508    -0.5531 C.ar    
   4 C4             1.6843     0.0043    -0.0242 C.ar    
   5 C5             1.5996     1.3879    -0.0411 C.ar    
   6 N6             0.5563     2.0097    -0.5450 N.ar    
   7 N7            -2.3674     0.5989    -1.9998 N.2     
   8 N8            -1.6557     1.7471    -1.6325 N.pl3   
   9 C9            -1.6798    -0.4636    -1.6902 C.2     
  10 C10            0.6890    -2.2282    -0.5544 C.2     
  11 O11           -0.3275    -2.8709    -0.3767 O.2     
  12 N12            1.8614    -2.8626    -0.7527 N.am    
  13 C13            1.1272    -4.9606     0.2228 C.ar    
  14 C14            1.9214    -4.2599    -0.6861 C.ar    
  15 C15            2.7721    -4.9702    -1.5241 C.ar    
  16 C16            2.7965    -6.3539    -1.4216 C.ar    
  17 C17            1.9822    -6.9785    -0.4984 C.ar    
  18 N18            1.1829    -6.2791     0.2859 N.ar    
  19 C19            3.6472    -4.2550    -2.5210 C.3     
  20 O20            0.2948    -4.2816     1.0526 O.3     
  21 C21           -0.4915    -5.0569     1.9595 C.3     
  22 C22           -2.0791     3.0696    -1.8145 C.ar    
  23 C23           -2.8211     3.4145    -2.9366 C.ar    
  24 C24           -3.2370     4.7196    -3.1132 C.ar    
  25 C25           -2.9154     5.6824    -2.1741 C.ar    
  26 C26           -2.1767     5.3422    -1.0557 C.ar    
  27 C27           -1.7626     4.0377    -0.8704 C.ar    
  28 C28            2.7324     2.2000     0.5319 C.3     
  29 C29           -2.1092    -1.8886    -1.9272 C.3     
  30 H30            2.5517    -0.4839     0.3950 H       
  31 H31            2.6637    -2.3512    -0.9416 H       
  32 H32            3.4460    -6.9365    -2.0582 H       
  33 H33            1.9989    -8.0553    -0.4168 H       
  34 H34            4.6051    -4.0171    -2.0586 H       
  35 H35            3.8111    -4.8967    -3.3868 H       
  36 H36            3.1583    -3.3341    -2.8387 H       
  37 H37            0.1666    -5.6318     2.6111 H       
  38 H38           -1.1106    -4.3930     2.5629 H       
  39 H39           -1.1303    -5.7374     1.3965 H       
  40 H40           -3.0722     2.6631    -3.6705 H       
  41 H41           -3.8138     4.9886    -3.9857 H       
  42 H42           -3.2416     6.7024    -2.3146 H       
  43 H43           -1.9268     6.0965    -0.3243 H       
  44 H44           -1.1899     3.7716     0.0057 H       
  45 H45            3.4599     2.4124    -0.2515 H       
  46 H46            2.3428     3.1371     0.9297 H       
  47 H47            3.2139     1.6380     1.3322 H       
  48 H48           -2.5661    -2.2859    -1.0209 H       
  49 H49           -2.8325    -1.9193    -2.7422 H       
  50 H50           -1.2398    -2.4911    -2.1901 H       
@<TRIPOS>BOND
   1    1    2 ar
   2    1    6 ar
   3    1    8 1
   4    2    3 ar
   5    2    9 1
   6    3    4 ar
   7    3   10 1
   8    4    5 ar
   9    4   30 1
  10    5    6 ar
  11    5   28 1
  12    7    8 1
  13    7    9 2
  14    8   22 1
  15    9   29 1
  16   10   11 2
  17   10   12 am
  18   12   14 1
  19   12   31 1
  20   13   14 ar
  21   13   18 ar
  22   13   20 1
  23   14   15 ar
  24   15   16 ar
  25   15   19 1
  26   16   17 ar
  27   16   32 1
  28   17   18 ar
  29   17   33 1
  30   19   34 1
  31   19   35 1
  32   19   36 1
  33   20   21 1
  34   21   37 1
  35   21   38 1
  36   21   39 1
  37   22   23 ar
  38   22   27 ar
  39   23   24 ar
  40   23   40 1
  41   24   25 ar
  42   24   41 1
  43   25   26 ar
  44   25   42 1
  45   26   27 ar
  46   26   43 1
  47   27   44 1
  48   28   45 1
  49   28   46 1
  50   28   47 1
  51   29   48 1
  52   29   49 1
  53   29   50 1

#	End of record

