#	Name: ASD07030020
#	Creating user name:	WinNT
#	Creation time:	15. 06. 2019 21:08

#	Modifying user name:	WinNT
#	Modification time:	15. 06. 2019 21:08

#	Program:	/corina/corina34_cracker 3.40 0067  02.08.2006

@<TRIPOS>MOLECULE
ASD07030020
  53   56    0    0    0
SMALL
NO_CHARGES


@<TRIPOS>ATOM
   1 N1            -0.0179     1.4702     0.0101 N.3     
   2 C2             0.0021    -0.0041     0.0020 C.3     
   3 C3             1.4820    -0.4413     0.0110 C.3     
   4 C4             2.2089     0.7978     0.5967 C.3     
   5 C5             1.3770     1.9600    -0.0006 C.3     
   6 N6             1.6723    -1.6126     0.8769 N.3     
   7 C7            -0.7682     1.9929    -1.1396 C.3     
   8 C8            -0.9813     3.4982    -0.9679 C.3     
   9 N9            -1.7316     4.0208    -2.1176 N.3     
  10 C10           -1.9554     5.4668    -1.9869 C.3     
  11 C11           -2.1713     6.2673    -3.2727 C.3     
  12 C12           -3.3474     6.0001    -2.3313 C.3     
  13 C13           -2.0525     8.6188    -2.4101 C.ar    
  14 C14           -1.6222     7.6700    -3.3196 C.ar    
  15 C15           -0.6799     8.0217    -4.2752 C.ar    
  16 C16           -0.2005     9.3204    -4.2839 C.ar    
  17 C17           -0.6781    10.2245    -3.3380 C.ar    
  18 N18           -1.5799     9.8480    -2.4405 N.ar    
  19 C19           -0.1740    11.6197    -3.3337 C.ar    
  20 C20           -0.6463    12.5312    -2.3910 C.ar    
  21 C21           -0.1735    13.8276    -2.3914 C.ar    
  22 C22            0.7675    14.2232    -3.3252 C.ar    
  23 C23            1.2396    13.3229    -4.2630 C.ar    
  24 C24            0.7776    12.0222    -4.2685 C.ar    
  25 C25           -0.6835    14.8144    -1.3730 C.3     
  26 F26            0.1253    14.7675    -0.2324 F       
  27 F27           -0.6503    16.1035    -1.9155 F       
  28 F28           -1.9989    14.4883    -1.0256 F       
  29 H29           -0.5030    -0.3866     0.8889 H       
  30 H30           -0.4892    -0.3766    -0.8968 H       
  31 H31            1.8287    -0.6487    -1.0014 H       
  32 H32            2.1590     0.8012     1.6856 H       
  33 H33            3.2429     0.8417     0.2547 H       
  34 H34            1.6974     2.1707    -1.0209 H       
  35 H35            1.4709     2.8516     0.6194 H       
  36 H36            2.6388    -1.9023     0.8860 H       
  37 H37            1.3411    -1.4285     1.8121 H       
  38 H38           -0.2061     1.8076    -2.0549 H       
  39 H39           -1.7352     1.4935    -1.1997 H       
  40 H40           -1.5434     3.6835    -0.0526 H       
  41 H41           -0.0143     3.9975    -0.9077 H       
  42 H42           -1.2623     3.8045    -2.9842 H       
  43 H43           -1.4163     5.9546    -1.1748 H       
  44 H44           -2.1472     5.7211    -4.2157 H       
  45 H45           -4.0972     5.2781    -2.6550 H       
  46 H46           -3.7241     6.8389    -1.7459 H       
  47 H47           -2.7893     8.3496    -1.6678 H       
  48 H48           -0.3280     7.2984    -4.9959 H       
  49 H49            0.5338     9.6281    -5.0136 H       
  50 H50           -1.3811    12.2235    -1.6618 H       
  51 H51            1.1345    15.2389    -3.3221 H       
  52 H52            1.9740    13.6372    -4.9899 H       
  53 H53            1.1501    11.3189    -4.9987 H       
@<TRIPOS>BOND
   1    1    2 1
   2    1    5 1
   3    1    7 1
   4    2    3 1
   5    2   29 1
   6    2   30 1
   7    3    4 1
   8    3    6 1
   9    3   31 1
  10    4    5 1
  11    4   32 1
  12    4   33 1
  13    5   34 1
  14    5   35 1
  15    6   36 1
  16    6   37 1
  17    7    8 1
  18    7   38 1
  19    7   39 1
  20    8    9 1
  21    8   40 1
  22    8   41 1
  23    9   10 1
  24    9   42 1
  25   10   11 1
  26   10   12 1
  27   10   43 1
  28   11   12 1
  29   11   14 1
  30   11   44 1
  31   12   45 1
  32   12   46 1
  33   13   14 ar
  34   13   18 ar
  35   13   47 1
  36   14   15 ar
  37   15   16 ar
  38   15   48 1
  39   16   17 ar
  40   16   49 1
  41   17   18 ar
  42   17   19 1
  43   19   20 ar
  44   19   24 ar
  45   20   21 ar
  46   20   50 1
  47   21   22 ar
  48   21   25 1
  49   22   23 ar
  50   22   51 1
  51   23   24 ar
  52   23   52 1
  53   24   53 1
  54   25   26 1
  55   25   27 1
  56   25   28 1

#	End of record

