#	Name: ASD01410160
#	Creating user name:	WinNT
#	Creation time:	15. 06. 2019 19:16

#	Modifying user name:	WinNT
#	Modification time:	15. 06. 2019 19:16

#	Program:	/corina/corina34_cracker 3.40 0067  02.08.2006

@<TRIPOS>MOLECULE
ASD01410160
  41   44    0    0    0
SMALL
NO_CHARGES


@<TRIPOS>ATOM
   1 C1            -0.0494     1.4042    -0.1372 C.2     
   2 C2             0.0330     0.0600     0.1773 C.2     
   3 N3            -1.2564    -0.4132     0.2665 N.pl3   
   4 C4            -2.0931     0.6390     0.0078 C.2     
   5 N5            -1.3840     1.7108    -0.2251 N.2     
   6 C6             1.1999     2.0179    -0.2598 C.2     
   7 C7             2.2632     1.2033    -0.0528 C.2     
   8 C8            -1.2193    -2.7171    -0.5534 C.3     
   9 C9            -1.6392    -4.1516    -0.2269 C.3     
  10 C10           -0.9771    -4.5918     1.0803 C.3     
  11 C11           -1.4162    -3.6616     2.2129 C.3     
  12 C12           -0.9963    -2.2270     1.8864 C.3     
  13 C13           -1.6584    -1.7868     0.5792 C.3     
  14 C14           -4.3237     1.6797     0.3934 C.ar    
  15 C15           -3.5706     0.5734    -0.0017 C.ar    
  16 C16           -4.2174    -0.5950    -0.4062 C.ar    
  17 C17           -5.5960    -0.6496    -0.4132 C.ar    
  18 C18           -6.3369     0.4509    -0.0207 C.ar    
  19 C19           -5.7017     1.6124     0.3810 C.ar    
  20 S20            1.7174    -0.4241     0.3179 S.3     
  21 C21            3.6634     1.6197    -0.1269 C.2     
  22 O22            3.9415     2.7741    -0.3912 O.2     
  23 O23            4.6466     0.7235     0.0978 O.3     
  24 H24            1.3102     3.0646    -0.5022 H       
  25 H25           -0.1356    -2.6714    -0.6616 H       
  26 H26           -1.6910    -2.4035    -1.4847 H       
  27 H27           -2.7228    -4.1973    -0.1187 H       
  28 H28           -1.3263    -4.8144    -1.0337 H       
  29 H29           -1.2762    -5.6138     1.3130 H       
  30 H30            0.1066    -4.5461     0.9721 H       
  31 H31           -2.4999    -3.7073     2.3211 H       
  32 H32           -0.9445    -3.9751     3.1442 H       
  33 H33           -1.3092    -1.5643     2.6932 H       
  34 H34            0.0873    -2.1813     1.7782 H       
  35 H35           -2.7421    -1.8325     0.6874 H       
  36 H36           -3.8289     2.5854     0.7118 H       
  37 H37           -3.6402    -1.4545    -0.7135 H       
  38 H38           -6.0979    -1.5533    -0.7261 H       
  39 H39           -7.4158     0.4032    -0.0283 H       
  40 H40           -6.2857     2.4682     0.6859 H       
  41 H41            5.5380     1.0914     0.0266 H       
@<TRIPOS>BOND
   1    1    2 2
   2    1    6 1
   3    1    5 1
   4    2    3 1
   5    2   20 1
   6    3    4 1
   7    3   13 1
   8    4    5 2
   9    4   15 1
  10    6    7 2
  11    6   24 1
  12    7   20 1
  13    7   21 1
  14    8    9 1
  15    8   13 1
  16    8   25 1
  17    8   26 1
  18    9   10 1
  19    9   27 1
  20    9   28 1
  21   10   11 1
  22   10   29 1
  23   10   30 1
  24   11   12 1
  25   11   31 1
  26   11   32 1
  27   12   13 1
  28   12   33 1
  29   12   34 1
  30   13   35 1
  31   14   15 ar
  32   14   19 ar
  33   14   36 1
  34   15   16 ar
  35   16   17 ar
  36   16   37 1
  37   17   18 ar
  38   17   38 1
  39   18   19 ar
  40   18   39 1
  41   19   40 1
  42   21   22 2
  43   21   23 1
  44   23   41 1

#	End of record

