#	Name: ASD01916707
#	Creating user name:	WinNT
#	Creation time:	15. 06. 2019 20:07

#	Modifying user name:	WinNT
#	Modification time:	15. 06. 2019 20:07

#	Program:	/corina/corina34_cracker 3.40 0067  02.08.2006

@<TRIPOS>MOLECULE
ASD01916707
  30   32    0    0    0
SMALL
NO_CHARGES


@<TRIPOS>ATOM
   1 C1            -0.0170     1.4004     0.0097 C.ar    
   2 C2             0.0021    -0.0041     0.0020 C.ar    
   3 C3             1.2308    -0.6677    -0.0128 C.ar    
   4 C4             2.3838     0.0958    -0.0193 C.ar    
   5 C5             2.2861     1.4775    -0.0110 C.ar    
   6 N6             1.1157     2.0823     0.0026 N.ar    
   7 O7            -1.3204     1.7554     0.0187 O.3     
   8 C8            -2.0615     0.6359     0.0165 C.2     
   9 N9            -1.2944    -0.4125     0.0117 N.2     
  10 C10           -3.5681     0.6005     0.0252 C.3     
  11 C11           -4.0694     0.5808     1.4706 C.3     
  12 C12           -5.5410     0.5463     1.4790 C.1     
  13 C13           -6.7147     0.5187     1.4858 C.1     
  14 C14           -8.1462     0.4851     1.4940 C.ar    
  15 C15           -8.8313     0.4624     2.7095 C.ar    
  16 C16          -10.2143     0.4300     2.7007 C.ar    
  17 C17          -10.8695     0.4213     1.4769 C.ar    
  18 C18          -10.1283     0.4451     0.3099 C.ar    
  19 N19           -8.8119     0.4813     0.3449 N.ar    
  20 H20            1.2791    -1.7466    -0.0187 H       
  21 H21            3.3526    -0.3814    -0.0305 H       
  22 H22            3.1882     2.0713    -0.0158 H       
  23 H23           -3.9552     1.4845    -0.4816 H       
  24 H24           -3.9134    -0.2950    -0.4914 H       
  25 H25           -3.6823    -0.3031     1.9774 H       
  26 H26           -3.7241     1.4763     1.9872 H       
  27 H27           -8.2895     0.4696     3.6438 H       
  28 H28          -10.7719     0.4115     3.6254 H       
  29 H29          -11.9485     0.3959     1.4366 H       
  30 H30          -10.6357     0.4381    -0.6434 H       
@<TRIPOS>BOND
   1    1    2 ar
   2    1    6 ar
   3    1    7 1
   4    2    3 ar
   5    2    9 1
   6    3    4 ar
   7    3   20 1
   8    4    5 ar
   9    4   21 1
  10    5    6 ar
  11    5   22 1
  12    7    8 1
  13    8    9 2
  14    8   10 1
  15   10   11 1
  16   10   23 1
  17   10   24 1
  18   11   12 1
  19   11   25 1
  20   11   26 1
  21   12   13 3
  22   13   14 1
  23   14   15 ar
  24   14   19 ar
  25   15   16 ar
  26   15   27 1
  27   16   17 ar
  28   16   28 1
  29   17   18 ar
  30   17   29 1
  31   18   19 ar
  32   18   30 1

#	End of record

