#	Name: ASD01800013
#	Creating user name:	WinNT
#	Creation time:	15. 06. 2019 19:23

#	Modifying user name:	WinNT
#	Modification time:	15. 06. 2019 19:23

#	Program:	/corina/corina34_cracker 3.40 0067  02.08.2006

@<TRIPOS>MOLECULE
ASD01800013
  48   51    0    0    0
SMALL
NO_CHARGES


@<TRIPOS>ATOM
   1 C1            -0.2521     0.8560     0.3077 C.ar    
   2 C2             0.0006    -0.4864     0.5735 C.ar    
   3 C3             1.2958    -0.9863     0.4571 C.ar    
   4 C4             2.3321    -0.1479     0.0775 C.ar    
   5 C5             2.0837     1.1896    -0.1874 C.ar    
   6 C6             0.7905     1.6952    -0.0736 C.ar    
   7 C7             0.5253     3.1276    -0.3574 C.ar    
   8 C8            -1.1084    -1.3845     0.9809 C.ar    
   9 C9             1.5680     3.9696    -0.7381 C.ar    
  10 C10            1.3157     5.3009    -1.0008 C.ar    
  11 C11            0.0306     5.7995    -0.8868 C.ar    
  12 C12           -1.0083     4.9681    -0.5088 C.ar    
  13 C13           -0.7683     3.6338    -0.2498 C.ar    
  14 C14           -0.8574    -2.7289     1.2474 C.ar    
  15 C15           -1.8925    -3.5597     1.6260 C.ar    
  16 C16           -3.1772    -3.0599     1.7409 C.ar    
  17 C17           -3.4320    -1.7262     1.4771 C.ar    
  18 C18           -2.4033    -0.8851     1.1039 C.ar    
  19 O19            3.5949    -0.6385    -0.0348 O.3     
  20 C20            3.8692    -1.3718    -1.1255 C.2     
  21 C21            5.2104    -2.0451    -1.2630 C.3     
  22 O22            3.0408    -1.4918    -1.9968 O.2     
  23 C23            5.2778    -2.8194    -2.5911 C.3     
  24 C24            6.4368    -2.2037    -3.4019 C.3     
  25 C25            7.3496    -1.5584    -2.3297 C.3     
  26 C26            6.3308    -0.9859    -1.3131 C.3     
  27 H27           -1.2561     1.2448     0.3930 H       
  28 H28            1.4925    -2.0280     0.6632 H       
  29 H29            2.8934     1.8406    -0.4823 H       
  30 H30            2.5719     3.5814    -0.8270 H       
  31 H31            2.1233     5.9546    -1.2955 H       
  32 H32           -0.1624     6.8418    -1.0933 H       
  33 H33           -2.0097     5.3627    -0.4207 H       
  34 H34           -1.5801     2.9855     0.0453 H       
  35 H35            0.1452    -3.1202     1.1576 H       
  36 H36           -1.6992    -4.6020     1.8324 H       
  37 H37           -3.9842    -3.7135     2.0374 H       
  38 H38           -4.4371    -1.3413     1.5677 H       
  39 H39           -2.6034     0.1560     0.8981 H       
  40 H40            5.3746    -2.7240    -0.4262 H       
  41 H41            5.4755    -3.8739    -2.3988 H       
  42 H42            4.3404    -2.7081    -3.1361 H       
  43 H43            6.9762    -2.9793    -3.9455 H       
  44 H44            6.0611    -1.4458    -4.0892 H       
  45 H45            7.9839    -2.3099    -1.8594 H       
  46 H46            7.9516    -0.7605    -2.7644 H       
  47 H47            5.9380    -0.0313    -1.6632 H       
  48 H48            6.7930    -0.8728    -0.3325 H       
@<TRIPOS>BOND
   1    1    2 ar
   2    1    6 ar
   3    1   27 1
   4    2    3 ar
   5    2    8 1
   6    3    4 ar
   7    3   28 1
   8    4    5 ar
   9    4   19 1
  10    5    6 ar
  11    5   29 1
  12    6    7 1
  13    7    9 ar
  14    7   13 ar
  15    8   14 ar
  16    8   18 ar
  17    9   10 ar
  18    9   30 1
  19   10   11 ar
  20   10   31 1
  21   11   12 ar
  22   11   32 1
  23   12   13 ar
  24   12   33 1
  25   13   34 1
  26   14   15 ar
  27   14   35 1
  28   15   16 ar
  29   15   36 1
  30   16   17 ar
  31   16   37 1
  32   17   18 ar
  33   17   38 1
  34   18   39 1
  35   19   20 1
  36   20   21 1
  37   20   22 2
  38   21   23 1
  39   21   26 1
  40   21   40 1
  41   23   24 1
  42   23   41 1
  43   23   42 1
  44   24   25 1
  45   24   43 1
  46   24   44 1
  47   25   26 1
  48   25   45 1
  49   25   46 1
  50   26   47 1
  51   26   48 1

#	End of record

