#	Name: ASD08170010
#	Creating user name:	WinNT
#	Creation time:	15. 06. 2019 21:17

#	Modifying user name:	WinNT
#	Modification time:	15. 06. 2019 21:17

#	Program:	/corina/corina34_cracker 3.40 0067  02.08.2006

@<TRIPOS>MOLECULE
ASD08170010
  62   66    0    0    0
SMALL
NO_CHARGES


@<TRIPOS>ATOM
   1 C1            -0.0168     1.3862     0.0097 C.ar    
   2 C2             0.0021    -0.0041     0.0020 C.ar    
   3 C3             1.1854    -0.6764    -0.0623 C.ar    
   4 C4             2.3902     0.0403    -0.1310 C.ar    
   5 C5             2.3794     1.4538     0.0093 C.ar    
   6 C6             1.1455     2.1045     0.0024 C.ar    
   7 C7             3.6018    -0.6296    -0.3899 C.ar    
   8 C8             4.7755     0.0502    -0.4175 C.ar    
   9 C9             4.8256     1.4174    -0.1501 C.ar    
  10 C10            3.6609     2.1441     0.1511 C.ar    
  11 N11            6.0373     2.0922    -0.2223 N.pl3   
  12 C12            6.2675     3.1758     0.7382 C.3     
  13 C13            5.0157     4.0152     0.8495 C.2     
  14 C14            3.7844     3.4750     0.6253 C.2     
  15 C15            5.1701     5.3725     1.1725 C.2     
  16 C16            3.9711     6.2663     1.3335 C.3     
  17 C17            2.8177     5.4260     1.8867 C.3     
  18 C18            2.5440     4.2823     0.9096 C.3     
  19 C19            3.1787     4.8709     3.2644 C.3     
  20 C20            1.5642     6.3015     2.0049 C.3     
  21 O21            6.2843     5.8335     1.3228 O.2     
  22 C22            6.6034     2.5902     2.0856 C.ar    
  23 C23            7.5849     3.1712     2.8665 C.ar    
  24 C24            7.8930     2.6340     4.1024 C.ar    
  25 C25            7.2193     1.5161     4.5575 C.ar    
  26 C26            6.2371     0.9356     3.7770 C.ar    
  27 C27            5.9260     1.4754     2.5430 C.ar    
  28 C28            7.5558     0.9299     5.9044 C.3     
  29 C29            7.3108     1.9775     6.9922 C.3     
  30 C30            6.6719    -0.2916     6.1643 C.3     
  31 C31            9.0265     0.5086     5.9241 C.3     
  32 H32           -0.9626     1.9076     0.0260 H       
  33 H33           -0.9249    -0.5536     0.0498 H       
  34 H34            1.1960    -1.7564    -0.0604 H       
  35 H35            1.0760     3.1782    -0.0763 H       
  36 H36            3.5945    -1.6936    -0.5720 H       
  37 H37            5.6888    -0.4766    -0.6518 H       
  38 H38            6.7045     1.8545    -0.8829 H       
  39 H39            7.0943     3.7975     0.3960 H       
  40 H40            4.2040     7.0739     2.0265 H       
  41 H41            3.6912     6.6821     0.3658 H       
  42 H42            2.1452     4.6841    -0.0191 H       
  43 H43            1.8025     3.6281     1.3838 H       
  44 H44            3.3773     5.6963     3.9480 H       
  45 H45            2.3489     4.2754     3.6451 H       
  46 H46            4.0674     4.2451     3.1825 H       
  47 H47            1.2960     6.6867     1.0211 H       
  48 H48            0.7407     5.7058     2.3988 H       
  49 H49            1.7650     7.1344     2.6788 H       
  50 H50            8.1114     4.0447     2.5109 H       
  51 H51            8.6604     3.0875     4.7122 H       
  52 H52            5.7109     0.0620     4.1324 H       
  53 H53            5.1586     1.0219     1.9331 H       
  54 H54            6.2630     2.2777     6.9782 H       
  55 H55            7.5542     1.5535     7.9664 H       
  56 H56            7.9405     2.8477     6.8071 H       
  57 H57            6.8464    -1.0379     5.3893 H       
  58 H58            6.9153    -0.7156     7.1385 H       
  59 H59            5.6241     0.0086     6.1502 H       
  60 H60            9.6563     1.3787     5.7390 H       
  61 H61            9.2700     0.0845     6.8983 H       
  62 H62            9.2011    -0.2378     5.1491 H       
@<TRIPOS>BOND
   1    1    2 ar
   2    1    6 ar
   3    1   32 1
   4    2    3 ar
   5    2   33 1
   6    3    4 ar
   7    3   34 1
   8    4    5 ar
   9    4    7 ar
  10    5    6 ar
  11    5   10 ar
  12    6   35 1
  13    7    8 ar
  14    7   36 1
  15    8    9 ar
  16    8   37 1
  17    9   10 ar
  18    9   11 1
  19   10   14 1
  20   11   12 1
  21   11   38 1
  22   12   13 1
  23   12   22 1
  24   12   39 1
  25   13   14 2
  26   13   15 1
  27   14   18 1
  28   15   16 1
  29   15   21 2
  30   16   17 1
  31   16   40 1
  32   16   41 1
  33   17   18 1
  34   17   19 1
  35   17   20 1
  36   18   42 1
  37   18   43 1
  38   19   44 1
  39   19   45 1
  40   19   46 1
  41   20   47 1
  42   20   48 1
  43   20   49 1
  44   22   23 ar
  45   22   27 ar
  46   23   24 ar
  47   23   50 1
  48   24   25 ar
  49   24   51 1
  50   25   26 ar
  51   25   28 1
  52   26   27 ar
  53   26   52 1
  54   27   53 1
  55   28   29 1
  56   28   30 1
  57   28   31 1
  58   29   54 1
  59   29   55 1
  60   29   56 1
  61   30   57 1
  62   30   58 1
  63   30   59 1
  64   31   60 1
  65   31   61 1
  66   31   62 1

#	End of record

