#	Name: ASD01900813
#	Creating user name:	WinNT
#	Creation time:	15. 06. 2019 19:52

#	Modifying user name:	WinNT
#	Modification time:	15. 06. 2019 19:52

#	Program:	/corina/corina34_cracker 3.40 0067  02.08.2006

@<TRIPOS>MOLECULE
ASD01900813
  30   32    0    0    0
SMALL
NO_CHARGES


@<TRIPOS>ATOM
   1 C1             0.0685     1.3795     0.2091 C.ar    
   2 N2             0.0021    -0.0041     0.0020 N.pl3   
   3 C3            -1.1124    -0.7146     0.4194 C.2     
   4 C4             0.7074     1.8858     1.3351 C.ar    
   5 C5            -0.4994     2.2503    -0.7138 C.ar    
   6 C6            -0.4317     3.6162    -0.5057 C.ar    
   7 C7             0.1997     4.1156     0.6185 C.ar    
   8 C8             0.7708     3.2529     1.5360 C.ar    
   9 N9            -1.2421    -2.0052     0.3689 N.2     
  10 C10           -2.3828    -2.5122     0.8150 C.2     
  11 C11           -3.2739    -1.6163     1.2695 C.2     
  12 S12           -2.5712    -0.0084     1.1083 S.3     
  13 C13           -2.6570    -3.9723     0.8119 C.2     
  14 C14           -1.8138    -4.9493     0.3711 C.2     
  15 N15           -2.4379    -6.1342     0.5410 N.pl3   
  16 N16           -3.6977    -5.8880     1.1001 N.2     
  17 C17           -3.8321    -4.5989     1.2690 C.2     
  18 C18           -0.4354    -4.7434    -0.2021 C.3     
  19 F19           -1.1161     1.7633    -1.8128 F       
  20 F20            1.2652     1.0437     2.2322 F       
  21 H21            0.7360    -0.4651    -0.4335 H       
  22 H22           -0.8723     4.2933    -1.2224 H       
  23 H23            0.2512     5.1826     0.7780 H       
  24 H24            1.2630     3.6469     2.4128 H       
  25 H25           -4.2514    -1.8426     1.6689 H       
  26 H26           -2.0762    -7.0053     0.3147 H       
  27 H27           -4.6968    -4.1004     1.6816 H       
  28 H28            0.3002    -4.7707     0.6017 H       
  29 H29           -0.2186    -5.5345    -0.9200 H       
  30 H30           -0.3908    -3.7762    -0.7028 H       
@<TRIPOS>BOND
   1    1    2 1
   2    1    4 ar
   3    1    5 ar
   4    2    3 1
   5    2   21 1
   6    3    9 2
   7    3   12 1
   8    4   20 1
   9    4    8 ar
  10    5    6 ar
  11    5   19 1
  12    6    7 ar
  13    6   22 1
  14    7    8 ar
  15    7   23 1
  16    8   24 1
  17    9   10 1
  18   10   11 2
  19   10   13 1
  20   11   12 1
  21   11   25 1
  22   13   14 2
  23   13   17 1
  24   14   15 1
  25   14   18 1
  26   15   16 1
  27   15   26 1
  28   16   17 2
  29   17   27 1
  30   18   28 1
  31   18   29 1
  32   18   30 1

#	End of record

