#	Name: ASD01900486
#	Creating user name:	WinNT
#	Creation time:	15. 06. 2019 19:52

#	Modifying user name:	WinNT
#	Modification time:	15. 06. 2019 19:52

#	Program:	/corina/corina34_cracker 3.40 0067  02.08.2006

@<TRIPOS>MOLECULE
ASD01900486
  40   43    0    0    0
SMALL
NO_CHARGES


@<TRIPOS>ATOM
   1 C1             0.1596     1.5798     0.1852 C.ar    
   2 C2             0.3709     0.2112     0.0642 C.ar    
   3 C3             1.6425    -0.3069     0.2139 C.ar    
   4 C4             2.7097     0.5401     0.4855 C.ar    
   5 C5             2.4979     1.9073     0.6068 C.ar    
   6 C6             1.2265     2.4254     0.4566 C.ar    
   7 N7            -1.1290     2.1063     0.0277 N.pl3   
   8 N8             3.9981     0.0156     0.6373 N.pl3   
   9 C9             6.3435     0.3138     1.5996 C.ar    
  10 C10            6.8952     1.2687     2.4750 C.ar    
  11 C11            8.2421     1.1705     2.8222 C.ar    
  12 C12            8.9806     0.1330     2.2879 C.ar    
  13 C13            8.3710    -0.7734     1.4302 C.ar    
  14 N14            7.1005    -0.6670     1.1136 N.ar    
  15 N15            4.7158     1.7514     2.1501 N.2     
  16 N16            5.8902     2.1400     2.8029 N.pl3   
  17 C17            4.9373     0.6858     1.4271 C.2     
  18 C18           -1.2991     3.3834    -0.4951 C.ar    
  19 C19           -2.5691     3.9510    -0.5295 C.ar    
  20 C20           -2.7237     5.2221    -1.0518 C.ar    
  21 C21           -1.5990     5.8860    -1.5242 C.ar    
  22 C22           -0.3690     5.2629    -1.4593 C.ar    
  23 N23           -0.2502     4.0509    -0.9510 N.ar    
  24 C24           -1.7202     7.2724    -2.1023 C.3     
  25 Cl25          -0.9633    -0.8467    -0.2746 Cl      
  26 H26            1.8070    -1.3701     0.1203 H       
  27 H27            3.3276     2.5654     0.8186 H       
  28 H28            1.0623     3.4887     0.5506 H       
  29 H29           -1.9026     1.5799     0.2833 H       
  30 H30            4.2397    -0.8130     0.1946 H       
  31 H31            8.6959     1.8869     3.4909 H       
  32 H32           10.0265     0.0273     2.5353 H       
  33 H33            8.9534    -1.5827     1.0153 H       
  34 H34            5.9788     2.9042     3.3937 H       
  35 H35           -3.4225     3.4061    -0.1537 H       
  36 H36           -3.6973     5.6880    -1.0918 H       
  37 H37            0.5082     5.7754    -1.8258 H       
  38 H38           -1.5952     8.0092    -1.3087 H       
  39 H39           -0.9496     7.4192    -2.8591 H       
  40 H40           -2.7036     7.3917    -2.5571 H       
@<TRIPOS>BOND
   1    1    2 ar
   2    1    6 ar
   3    1    7 1
   4    2    3 ar
   5    2   25 1
   6    3    4 ar
   7    3   26 1
   8    4    5 ar
   9    4    8 1
  10    5    6 ar
  11    5   27 1
  12    6   28 1
  13    7   18 1
  14    7   29 1
  15    8   17 1
  16    8   30 1
  17    9   10 ar
  18    9   14 ar
  19    9   17 1
  20   10   11 ar
  21   10   16 1
  22   11   12 ar
  23   11   31 1
  24   12   13 ar
  25   12   32 1
  26   13   14 ar
  27   13   33 1
  28   15   16 1
  29   15   17 2
  30   16   34 1
  31   18   19 ar
  32   18   23 ar
  33   19   20 ar
  34   19   35 1
  35   20   21 ar
  36   20   36 1
  37   21   22 ar
  38   21   24 1
  39   22   23 ar
  40   22   37 1
  41   24   38 1
  42   24   39 1
  43   24   40 1

#	End of record

