#	Name: ASD00460052
#	Creating user name:	WinNT
#	Creation time:	15. 06. 2019 18:36

#	Modifying user name:	WinNT
#	Modification time:	15. 06. 2019 18:36

#	Program:	/corina/corina34_cracker 3.40 0067  02.08.2006

@<TRIPOS>MOLECULE
ASD00460052
  69   71    0    0    0
SMALL
NO_CHARGES


@<TRIPOS>ATOM
   1 C1             0.4186     1.4019    -1.3343 C.ar    
   2 C2             0.3363     0.0919    -0.8967 C.ar    
   3 C3             1.4734    -0.5747    -0.4888 C.ar    
   4 C4             2.7071     0.0743    -0.5182 C.ar    
   5 C5             2.7839     1.3941    -0.9601 C.ar    
   6 C6             1.6397     2.0508    -1.3657 C.ar    
   7 C7             3.9326    -0.6365    -0.0807 C.ar    
   8 C8             4.7092    -0.1144     0.9544 C.ar    
   9 C9             5.8472    -0.7729     1.3612 C.ar    
  10 C10            6.2246    -1.9655     0.7372 C.ar    
  11 C11            5.4456    -2.4875    -0.2989 C.ar    
  12 C12            4.3050    -1.8295    -0.7003 C.ar    
  13 C13            6.6862    -0.2083     2.4784 C.3     
  14 C14            7.4450    -2.6725     1.1721 C.2     
  15 O15            7.8737    -3.7554     0.4947 O.3     
  16 O16            8.0630    -2.2780     2.1408 O.2     
  17 C17            4.1135     2.1026    -0.9944 C.3     
  18 O18            3.9051     3.5120    -0.8841 O.3     
  19 C19            4.8221     1.7936    -2.3147 C.3     
  20 C20            4.9773     4.2100    -0.2475 C.3     
  21 C21            4.6478     5.7028    -0.1846 C.3     
  22 C22            5.7357     6.4323     0.6062 C.3     
  23 O23            4.5857     6.2332    -1.5100 O.3     
  24 N24            5.3599     7.8430     0.7693 N.3     
  25 C25            6.3835     8.5764     1.5257 C.3     
  26 C26            6.5420     7.9476     2.9115 C.3     
  27 C27            7.7170     8.5072     0.7787 C.3     
  28 C28            5.9578    10.0384     1.6748 C.3     
  29 C29            7.0079    10.7908     2.4507 C.ar    
  30 C30            7.8916    11.5525     4.5425 C.ar    
  31 C31            6.9291    10.8627     3.8288 C.ar    
  32 C32            8.0523    11.4039     1.7842 C.ar    
  33 C33            9.0169    12.0950     2.4966 C.ar    
  34 C34            8.9343    12.1715     3.8779 C.ar    
  35 Cl35          10.1430    13.0377     4.7737 Cl      
  36 F36           10.0382    12.6941     1.8461 F       
  37 H37           -0.4734     1.9183    -1.6569 H       
  38 H38           -0.6198    -0.4096    -0.8740 H       
  39 H39            1.4080    -1.5971    -0.1470 H       
  40 H40            1.6980     3.0733    -1.7087 H       
  41 H41            4.4174     0.8070     1.4362 H       
  42 H42            5.7363    -3.4086    -0.7820 H       
  43 H43            3.7006    -2.2347    -1.4984 H       
  44 H44            6.4178    -0.6950     3.4160 H       
  45 H45            7.7406    -0.3851     2.2660 H       
  46 H46            6.5071     0.8637     2.5612 H       
  47 H47            8.6777    -4.1851     0.8173 H       
  48 H48            4.7292     1.7602    -0.1627 H       
  49 H49            5.8197     2.2327    -2.3031 H       
  50 H50            4.9019     0.7138    -2.4402 H       
  51 H51            4.2496     2.2141    -3.1414 H       
  52 H52            5.1122     3.8248     0.7632 H       
  53 H53            5.8949     4.0642    -0.8174 H       
  54 H54            3.6855     5.8421     0.3080 H       
  55 H55            5.8441     5.9694     1.5870 H       
  56 H56            6.6812     6.3681     0.0676 H       
  57 H57            5.4095     6.1436    -2.0085 H       
  58 H58            5.1904     8.2778    -0.1253 H       
  59 H59            6.8454     6.9060     2.8053 H       
  60 H60            7.3016     8.4918     3.4727 H       
  61 H61            5.5921     7.9969     3.4436 H       
  62 H62            7.6041     8.9552    -0.2085 H       
  63 H63            8.4765     9.0514     1.3400 H       
  64 H64            8.0203     7.4657     0.6725 H       
  65 H65            5.8448    10.4864     0.6875 H       
  66 H66            5.0078    10.0877     2.2070 H       
  67 H67            7.8288    11.6082     5.6192 H       
  68 H68            6.1148    10.3798     4.3486 H       
  69 H69            8.1158    11.3433     0.7078 H       
@<TRIPOS>BOND
   1    1    2 ar
   2    1    6 ar
   3    1   37 1
   4    2    3 ar
   5    2   38 1
   6    3    4 ar
   7    3   39 1
   8    4    5 ar
   9    4    7 1
  10    5    6 ar
  11    5   17 1
  12    6   40 1
  13    7    8 ar
  14    7   12 ar
  15    8    9 ar
  16    8   41 1
  17    9   10 ar
  18    9   13 1
  19   10   11 ar
  20   10   14 1
  21   11   12 ar
  22   11   42 1
  23   12   43 1
  24   13   44 1
  25   13   45 1
  26   13   46 1
  27   14   15 1
  28   14   16 2
  29   15   47 1
  30   17   18 1
  31   17   19 1
  32   17   48 1
  33   18   20 1
  34   19   49 1
  35   19   50 1
  36   19   51 1
  37   20   21 1
  38   20   52 1
  39   20   53 1
  40   21   22 1
  41   21   23 1
  42   21   54 1
  43   22   24 1
  44   22   55 1
  45   22   56 1
  46   23   57 1
  47   24   25 1
  48   24   58 1
  49   25   26 1
  50   25   27 1
  51   25   28 1
  52   26   59 1
  53   26   60 1
  54   26   61 1
  55   27   62 1
  56   27   63 1
  57   27   64 1
  58   28   29 1
  59   28   65 1
  60   28   66 1
  61   29   32 ar
  62   29   31 ar
  63   30   31 ar
  64   30   34 ar
  65   30   67 1
  66   31   68 1
  67   32   33 ar
  68   32   69 1
  69   33   34 ar
  70   33   36 1
  71   34   35 1

#	End of record

