#	Name: ASD01903343
#	Creating user name:	WinNT
#	Creation time:	15. 06. 2019 19:54

#	Modifying user name:	WinNT
#	Modification time:	15. 06. 2019 19:54

#	Program:	/corina/corina34_cracker 3.40 0067  02.08.2006

@<TRIPOS>MOLECULE
ASD01903343
  46   49    0    0    0
SMALL
NO_CHARGES


@<TRIPOS>ATOM
   1 C1             0.0136     1.3942     0.0879 C.ar    
   2 C2             0.0405     0.0211     0.2136 C.ar    
   3 C3             1.2348    -0.6773     0.0763 C.ar    
   4 C4             2.3984     0.0080    -0.1876 C.ar    
   5 C5             2.3687     1.3922    -0.3144 C.ar    
   6 C6             1.1828     2.0827    -0.1773 C.ar    
   7 S7             1.5372    -2.4112     0.1899 S.o2    
   8 N8             3.1629    -2.6252    -0.0672 N.am    
   9 S9             3.7657    -1.0990    -0.3155 S.o2    
  10 O10            4.1982    -1.0512    -1.6683 O.2     
  11 O11            4.6172    -0.8173     0.7867 O.2     
  12 O12            1.2911    -2.7760     1.5411 O.2     
  13 O13            0.8720    -3.0099    -0.9139 O.2     
  14 C14            3.8718    -3.8312    -0.0729 C.ar    
  15 C15            5.2408    -3.8310    -0.3067 C.ar    
  16 C16            5.9403    -5.0213    -0.3123 C.ar    
  17 C17            5.2750    -6.2187    -0.0847 C.ar    
  18 C18            3.9062    -6.2191     0.1486 C.ar    
  19 C19            3.2076    -5.0284     0.1609 C.ar    
  20 N20            5.9851    -7.4269    -0.0909 N.am    
  21 C21            7.2432    -7.4716     0.3903 C.2     
  22 C22            7.9690    -8.7893     0.4809 C.3     
  23 O23            7.7914    -6.4513     0.7505 O.2     
  24 C24            8.1955    -9.3453    -0.9274 C.3     
  25 C25            8.9859   -10.6537    -0.8303 C.3     
  26 C26           10.3013   -10.3892    -0.0912 C.3     
  27 C27            9.9934    -9.7929     1.2848 C.3     
  28 O28            9.2305    -8.5954     1.1237 O.3     
  29 H29           -0.9186     1.9295     0.1917 H       
  30 H30           -0.8734    -0.5159     0.4208 H       
  31 H31            3.2815     1.9309    -0.5216 H       
  32 H32            1.1674     3.1579    -0.2775 H       
  33 H33            5.7582    -2.8998    -0.4844 H       
  34 H34            7.0049    -5.0212    -0.4941 H       
  35 H35            3.3888    -7.1506     0.3249 H       
  36 H36            2.1430    -5.0287     0.3427 H       
  37 H37            5.5711    -8.2310    -0.4415 H       
  38 H38            7.3712    -9.4945     1.0584 H       
  39 H39            7.2333    -9.5354    -1.4030 H       
  40 H40            8.7584    -8.6226    -1.5181 H       
  41 H41            8.4018   -11.3928    -0.2819 H       
  42 H42            9.1992   -11.0261    -1.8322 H       
  43 H43           10.8451   -11.3259     0.0311 H       
  44 H44           10.9068    -9.6876    -0.6650 H       
  45 H45            9.4223   -10.5114     1.8728 H       
  46 H46           10.9269    -9.5628     1.7984 H       
@<TRIPOS>BOND
   1    1    2 ar
   2    1    6 ar
   3    1   29 1
   4    2    3 ar
   5    2   30 1
   6    3    4 ar
   7    3    7 1
   8    4    5 ar
   9    4    9 1
  10    5    6 ar
  11    5   31 1
  12    6   32 1
  13    7    8 am
  14    7   12 2
  15    7   13 2
  16    8    9 am
  17    8   14 1
  18    9   10 2
  19    9   11 2
  20   14   15 ar
  21   14   19 ar
  22   15   16 ar
  23   15   33 1
  24   16   17 ar
  25   16   34 1
  26   17   18 ar
  27   17   20 1
  28   18   19 ar
  29   18   35 1
  30   19   36 1
  31   20   21 am
  32   20   37 1
  33   21   22 1
  34   21   23 2
  35   22   24 1
  36   22   28 1
  37   22   38 1
  38   24   25 1
  39   24   39 1
  40   24   40 1
  41   25   26 1
  42   25   41 1
  43   25   42 1
  44   26   27 1
  45   26   43 1
  46   26   44 1
  47   27   28 1
  48   27   45 1
  49   27   46 1

#	End of record

