#	Name: ASD03731817
#	Creating user name:	WinNT
#	Creation time:	15. 06. 2019 20:46

#	Modifying user name:	WinNT
#	Modification time:	15. 06. 2019 20:46

#	Program:	/corina/corina34_cracker 3.40 0067  02.08.2006

@<TRIPOS>MOLECULE
ASD03731817
  44   46    0    0    0
SMALL
NO_CHARGES


@<TRIPOS>ATOM
   1 C1             0.3726     1.0946     1.9751 C.2     
   2 C2             0.2892    -0.2817     1.4471 C.ar    
   3 C3             1.3716    -0.8325     0.7635 C.ar    
   4 C4             1.2877    -2.1313     0.2680 C.ar    
   5 C5             0.1129    -2.8763     0.4609 C.ar    
   6 C6            -0.9595    -2.3172     1.1436 C.ar    
   7 C7            -0.8742    -1.0348     1.6381 C.ar    
   8 O8             1.3855     1.7473     1.8135 O.2     
   9 N9            -0.6762     1.6293     2.6313 N.am    
  10 S10           -0.5827     3.1730     3.2235 S.o2    
  11 O11           -1.8357     3.3803     3.8609 O.2     
  12 O12            0.6288     3.1906     3.9660 O.2     
  13 C13           -0.4394     4.2164     1.7466 C.3     
  14 C14            2.3950    -2.7049    -0.4359 C.1     
  15 N15            3.2734    -3.1599    -0.9943 N.1     
  16 O16            0.0255    -4.1404    -0.0195 O.3     
  17 C17           -3.5926    -6.0994     0.3232 C.ar    
  18 C18           -3.3274    -5.3136    -0.7971 C.ar    
  19 C19           -2.1182    -4.6604    -0.9088 C.ar    
  20 C20           -1.1651    -4.7848     0.0934 C.ar    
  21 C21           -1.4266    -5.5669     1.2106 C.ar    
  22 C22           -2.6341    -6.2224     1.3277 C.ar    
  23 C23           -4.8951    -6.7986     0.4492 C.ar    
  24 C24           -5.1615    -7.5845     1.5687 C.ar    
  25 C25           -6.3748    -8.2327     1.6806 C.ar    
  26 C26           -7.3253    -8.1037     0.6839 C.ar    
  27 C27           -7.0660    -7.3253    -0.4297 C.ar    
  28 C28           -5.8587    -6.6673    -0.5489 C.ar    
  29 H29            2.2721    -0.2542     0.6183 H       
  30 H30           -1.8620    -2.8917     1.2909 H       
  31 H31           -1.7101    -0.6074     2.1720 H       
  32 H32           -1.4858     1.1099     2.7567 H       
  33 H33           -1.3167     4.0752     1.1154 H       
  34 H34           -0.3716     5.2623     2.0459 H       
  35 H35            0.4564     3.9387     1.1910 H       
  36 H36           -4.0681    -5.2168    -1.5770 H       
  37 H37           -1.9120    -4.0517    -1.7768 H       
  38 H38           -0.6834    -5.6621     1.9884 H       
  39 H39           -2.8368    -6.8308     2.1967 H       
  40 H40           -4.4199    -7.6864     2.3472 H       
  41 H41           -6.5824    -8.8420     2.5478 H       
  42 H42           -8.2733    -8.6130     0.7754 H       
  43 H43           -7.8115    -7.2285    -1.2051 H       
  44 H44           -5.6591    -6.0559    -1.4166 H       
@<TRIPOS>BOND
   1    1    2 1
   2    1    8 2
   3    1    9 am
   4    2    3 ar
   5    2    7 ar
   6    3    4 ar
   7    3   29 1
   8    4    5 ar
   9    4   14 1
  10    5    6 ar
  11    5   16 1
  12    6    7 ar
  13    6   30 1
  14    7   31 1
  15    9   10 am
  16    9   32 1
  17   10   11 2
  18   10   12 2
  19   10   13 1
  20   13   33 1
  21   13   34 1
  22   13   35 1
  23   14   15 3
  24   16   20 1
  25   17   18 ar
  26   17   22 ar
  27   17   23 1
  28   18   19 ar
  29   18   36 1
  30   19   20 ar
  31   19   37 1
  32   20   21 ar
  33   21   22 ar
  34   21   38 1
  35   22   39 1
  36   23   24 ar
  37   23   28 ar
  38   24   25 ar
  39   24   40 1
  40   25   26 ar
  41   25   41 1
  42   26   27 ar
  43   26   42 1
  44   27   28 ar
  45   27   43 1
  46   28   44 1

#	End of record

