#	Name: ASD01885853
#	Creating user name:	WinNT
#	Creation time:	15. 06. 2019 19:50

#	Modifying user name:	WinNT
#	Modification time:	15. 06. 2019 19:50

#	Program:	/corina/corina34_cracker 3.40 0067  02.08.2006

@<TRIPOS>MOLECULE
ASD01885853
  47   50    0    0    0
SMALL
NO_CHARGES


@<TRIPOS>ATOM
   1 C1            -0.0170     1.4035     0.0098 C.ar    
   2 C2             1.2135     2.1078     0.0018 C.ar    
   3 C3             1.1956     3.5255     0.0097 C.ar    
   4 C4            -0.0394     4.1598     0.0249 C.ar    
   5 C5            -1.2085     3.3917     0.0319 C.ar    
   6 N6            -1.1706     2.0723     0.0299 N.ar    
   7 C7             0.0021    -0.0041     0.0020 C.ar    
   8 C8             1.1926    -0.6630    -0.0129 C.ar    
   9 C9             2.3992     0.0333    -0.0208 C.ar    
  10 C10            2.4198     1.3961    -0.0132 C.ar    
  11 C11            2.4545     4.3052     0.0024 C.2     
  12 C12           -2.5234     4.0771     0.0486 C.2     
  13 N13           -3.6604     3.3535     0.0556 N.am    
  14 O14           -2.5758     5.2909     0.0561 O.2     
  15 C15            1.2060    -2.1699    -0.0206 C.3     
  16 C16            2.7612     5.3379    -0.8392 C.2     
  17 N17            3.9947     5.7722    -0.5177 N.pl3   
  18 N18            4.4702     4.9963     0.5461 N.2     
  19 C19            3.5540     4.1224     0.8663 C.2     
  20 C20            1.1966    -2.6651    -1.4439 C.ar    
  21 C21            2.3837    -2.8837    -2.1146 C.ar    
  22 N22            2.3864    -3.3171    -3.3608 N.ar    
  23 C23            1.2619    -3.5587    -4.0141 C.ar    
  24 C24            0.0312    -3.3609    -3.4016 C.ar    
  25 C25           -0.0052    -2.9118    -2.0928 C.ar    
  26 O26            1.3112    -4.0036    -5.2949 O.3     
  27 C27            4.7156     6.8682    -1.1699 C.3     
  28 C28            2.6071    -4.1866    -5.8686 C.3     
  29 H29           -0.0970     5.2382     0.0317 H       
  30 H30           -0.9245    -0.5588     0.0083 H       
  31 H31            3.3302    -0.5138    -0.0327 H       
  32 H32            3.3617     1.9246    -0.0190 H       
  33 H33           -3.6186     2.3844     0.0496 H       
  34 H34           -4.5206     3.8017     0.0665 H       
  35 H35            2.1041    -2.5278     0.4826 H       
  36 H36            0.3243    -2.5438     0.5000 H       
  37 H37            2.1290     5.7335    -1.6204 H       
  38 H38            3.6267     3.3865     1.6535 H       
  39 H39            3.3217    -2.6972    -1.6129 H       
  40 H40           -0.8850    -3.5584    -3.9381 H       
  41 H41           -0.9475    -2.7493    -1.5907 H       
  42 H42            4.4860     7.8059    -0.6639 H       
  43 H43            5.7879     6.6800    -1.1171 H       
  44 H44            4.4093     6.9342    -2.2139 H       
  45 H45            3.1423    -3.2371    -5.8676 H       
  46 H46            3.1638    -4.9181    -5.2829 H       
  47 H47            2.5037    -4.5443    -6.8931 H       
@<TRIPOS>BOND
   1    1    7 ar
   2    1    2 ar
   3    1    6 ar
   4    2    3 ar
   5    2   10 ar
   6    3    4 ar
   7    3   11 1
   8    4    5 ar
   9    4   29 1
  10    5    6 ar
  11    5   12 1
  12    7    8 ar
  13    7   30 1
  14    8    9 ar
  15    8   15 1
  16    9   10 ar
  17    9   31 1
  18   10   32 1
  19   11   16 2
  20   11   19 1
  21   12   13 am
  22   12   14 2
  23   13   33 1
  24   13   34 1
  25   15   20 1
  26   15   35 1
  27   15   36 1
  28   16   17 1
  29   16   37 1
  30   17   18 1
  31   17   27 1
  32   18   19 2
  33   19   38 1
  34   20   21 ar
  35   20   25 ar
  36   21   22 ar
  37   21   39 1
  38   22   23 ar
  39   23   24 ar
  40   23   26 1
  41   24   25 ar
  42   24   40 1
  43   25   41 1
  44   26   28 1
  45   27   42 1
  46   27   43 1
  47   27   44 1
  48   28   45 1
  49   28   46 1
  50   28   47 1

#	End of record

