#	Name: ASD05570005
#	Creating user name:	WinNT
#	Creation time:	15. 06. 2019 21:01

#	Modifying user name:	WinNT
#	Modification time:	15. 06. 2019 21:01

#	Program:	/corina/corina34_cracker 3.40 0067  02.08.2006

@<TRIPOS>MOLECULE
ASD05570005
  34   37    0    0    0
SMALL
NO_CHARGES


@<TRIPOS>ATOM
   1 O1            -0.0173     1.4248     0.0099 O.3     
   2 C2             0.0021    -0.0041     0.0020 C.3     
   3 C3            -1.4260    -0.5647     0.0126 C.3     
   4 O4            -1.8682    -1.0447     1.2859 O.3     
   5 P5            -3.2443    -1.9217     1.2987 P.3     
   6 S6            -3.2989    -2.9984     2.8187 S.2     
   7 O7            -4.5214    -0.9416     1.2733 O.3     
   8 O8            -3.2255    -2.8462    -0.0356 O.3     
   9 C9            -2.6266    -2.3507    -1.2572 C.3     
  10 C10           -1.2562    -1.8190    -0.8870 C.3     
  11 O11           -0.4480    -1.3376    -1.9577 O.3     
  12 C12            0.5835    -0.5354    -1.3322 C.3     
  13 N13            0.9393     0.5873    -2.2035 N.pl3   
  14 C14            0.1525     1.1387    -3.1705 C.2     
  15 N15            0.7825     2.1184    -3.7510 N.2     
  16 C16            2.0099     2.2575    -3.1951 C.ar    
  17 C17            2.1233     1.2804    -2.1919 C.ar    
  18 N18            3.2478     1.2056    -1.4872 N.ar    
  19 C19            4.2435     2.0334    -1.7228 C.ar    
  20 N20            4.1836     2.9675    -2.6546 N.ar    
  21 C21            3.0987     3.1207    -3.4066 C.ar    
  22 N22            3.0453     4.1021    -4.3809 N.pl3   
  23 H23            0.8606     1.8301     0.0037 H       
  24 H24            0.5707    -0.3843     0.8507 H       
  25 H25           -2.1343     0.1500    -0.4065 H       
  26 H26           -5.3713    -1.4028     1.2795 H       
  27 H27           -2.5294    -3.1608    -1.9799 H       
  28 H28           -3.2373    -1.5496    -1.6734 H       
  29 H29           -0.7024    -2.5846    -0.3436 H       
  30 H30            1.4628    -1.1490    -1.1357 H       
  31 H31           -0.8461     0.8107    -3.4185 H       
  32 H32            5.1432     1.9459    -1.1318 H       
  33 H33            3.8055     4.6880    -4.5212 H       
  34 H34            2.2477     4.2040    -4.9234 H       
@<TRIPOS>BOND
   1    1    2 1
   2    1   23 1
   3    2    3 1
   4    2   12 1
   5    2   24 1
   6    3    4 1
   7    3   10 1
   8    3   25 1
   9    4    5 1
  10    5    6 2
  11    5    7 1
  12    5    8 1
  13    7   26 1
  14    8    9 1
  15    9   10 1
  16    9   27 1
  17    9   28 1
  18   10   11 1
  19   10   29 1
  20   11   12 1
  21   12   13 1
  22   12   30 1
  23   13   14 1
  24   13   17 1
  25   14   15 2
  26   14   31 1
  27   15   16 1
  28   16   17 ar
  29   16   21 ar
  30   17   18 ar
  31   18   19 ar
  32   19   20 ar
  33   19   32 1
  34   20   21 ar
  35   21   22 1
  36   22   33 1
  37   22   34 1

#	End of record

