#	Name: ASD08178428
#	Creating user name:	WinNT
#	Creation time:	15. 06. 2019 21:18

#	Modifying user name:	WinNT
#	Modification time:	15. 06. 2019 21:18

#	Program:	/corina/corina34_cracker 3.40 0067  02.08.2006

@<TRIPOS>MOLECULE
ASD08178428
  68   71    0    0    0
SMALL
NO_CHARGES


@<TRIPOS>ATOM
   1 N1            -0.0168     1.3902     0.0097 N.am    
   2 C2            -0.2173     0.0103     0.0231 C.ar    
   3 C3             0.8683    -0.8557    -0.0926 C.ar    
   4 N4            -1.4399    -0.4832     0.1513 N.ar    
   5 N5            -1.6667    -1.7463     0.1686 N.ar    
   6 C6            -0.7002    -2.6368     0.0602 C.ar    
   7 C7             0.6159    -2.2190    -0.0733 C.ar    
   8 C8            -1.0247    -4.1082     0.0874 C.3     
   9 C9            -1.8115    -4.4335     1.3586 C.3     
  10 C10           -2.1410    -5.9273     1.3862 C.3     
  11 C11           -2.9278    -6.2527     2.6574 C.3     
  12 C12           -3.2523    -7.7241     2.6845 C.2     
  13 N13           -2.5213    -8.6581     3.2049 N.2     
  14 N14           -2.9690    -9.8359     3.1257 N.2     
  15 C15           -4.1130   -10.0077     2.5350 C.2     
  16 S16           -4.6995    -8.4828     2.0200 S.3     
  17 N17           -4.7575   -11.2270     2.3553 N.am    
  18 C18           -4.1929   -12.3617     2.8139 C.2     
  19 C19           -4.8913   -13.6828     2.6192 C.3     
  20 O20           -3.1229   -12.3195     3.3832 O.2     
  21 O21           -4.1000   -14.7282     3.1874 O.3     
  22 C22           -4.5906   -15.9923     3.0966 C.ar    
  23 C23           -1.0750     2.2250     0.0167 C.2     
  24 C24           -0.8601     3.7130     0.1198 C.3     
  25 O25           -2.2000     1.7786    -0.0599 O.2     
  26 C26           -2.1935     4.4152     0.1067 C.ar    
  27 C27           -2.8565     4.6619     1.2943 C.ar    
  28 C28           -4.0796     5.3059     1.2822 C.ar    
  29 C29           -4.6395     5.7036     0.0825 C.ar    
  30 C30           -3.9760     5.4577    -1.1051 C.ar    
  31 C31           -2.7509     4.8175    -1.0926 C.ar    
  32 C32           -3.8741   -17.0556     3.6270 C.ar    
  33 C33           -5.8111   -16.2211     2.4785 C.ar    
  34 C34           -6.3077   -17.5072     2.3874 C.ar    
  35 C35           -5.5894   -18.5655     2.9120 C.ar    
  36 C36           -4.3749   -18.3394     3.5334 C.ar    
  37 C37           -3.5945   -19.4954     4.1042 C.3     
  38 C38           -2.6676   -20.0448     3.0507 C.2     
  39 O39           -1.8691   -21.0854     3.3358 O.3     
  40 O40           -2.6431   -19.5485     1.9493 O.2     
  41 H41            0.8842     1.7494    -0.0006 H       
  42 H42            1.8745    -0.4770    -0.1944 H       
  43 H43            1.4199    -2.9345    -0.1636 H       
  44 H44           -1.6240    -4.3643    -0.7864 H       
  45 H45           -0.0997    -4.6845     0.0751 H       
  46 H46           -1.2123    -4.1774     2.2323 H       
  47 H47           -2.7366    -3.8571     1.3708 H       
  48 H48           -2.7402    -6.1835     0.5124 H       
  49 H49           -1.2159    -6.5037     1.3739 H       
  50 H50           -2.3286    -5.9966     3.5311 H       
  51 H51           -3.8529    -5.6763     2.6696 H       
  52 H52           -5.6133   -11.2607     1.9000 H       
  53 H53           -5.8640   -13.6554     3.1104 H       
  54 H54           -5.0274   -13.8683     1.5537 H       
  55 H55           -0.3385     3.9413     1.0493 H       
  56 H56           -0.2620     4.0532    -0.7255 H       
  57 H57           -2.4191     4.3512     2.2316 H       
  58 H58           -4.5979     5.4981     2.2100 H       
  59 H59           -5.5954     6.2062     0.0730 H       
  60 H60           -4.4136     5.7681    -2.0424 H       
  61 H61           -2.2326     4.6254    -2.0204 H       
  62 H62           -2.9255   -16.8795     4.1124 H       
  63 H63           -6.3729   -15.3945     2.0691 H       
  64 H64           -7.2579   -17.6858     1.9062 H       
  65 H65           -5.9795   -19.5700     2.8402 H       
  66 H66           -3.0110   -19.1531     4.9589 H       
  67 H67           -4.2841   -20.2764     4.4245 H       
  68 H68           -1.2919   -21.4028     2.6279 H       
@<TRIPOS>BOND
   1    1    2 1
   2    1   23 am
   3    1   41 1
   4    2    3 ar
   5    2    4 ar
   6    3    7 ar
   7    3   42 1
   8    4    5 ar
   9    5    6 ar
  10    6    7 ar
  11    6    8 1
  12    7   43 1
  13    8    9 1
  14    8   44 1
  15    8   45 1
  16    9   10 1
  17    9   46 1
  18    9   47 1
  19   10   11 1
  20   10   48 1
  21   10   49 1
  22   11   12 1
  23   11   50 1
  24   11   51 1
  25   12   13 2
  26   12   16 1
  27   13   14 1
  28   14   15 2
  29   15   16 1
  30   15   17 1
  31   17   18 am
  32   17   52 1
  33   18   19 1
  34   18   20 2
  35   19   21 1
  36   19   53 1
  37   19   54 1
  38   21   22 1
  39   22   32 ar
  40   22   33 ar
  41   23   24 1
  42   23   25 2
  43   24   26 1
  44   24   55 1
  45   24   56 1
  46   26   27 ar
  47   26   31 ar
  48   27   28 ar
  49   27   57 1
  50   28   29 ar
  51   28   58 1
  52   29   30 ar
  53   29   59 1
  54   30   31 ar
  55   30   60 1
  56   31   61 1
  57   32   36 ar
  58   32   62 1
  59   33   34 ar
  60   33   63 1
  61   34   35 ar
  62   34   64 1
  63   35   36 ar
  64   35   65 1
  65   36   37 1
  66   37   38 1
  67   37   66 1
  68   37   67 1
  69   38   39 1
  70   38   40 2
  71   39   68 1

#	End of record

