#	Name: ASD08170367
#	Creating user name:	WinNT
#	Creation time:	15. 06. 2019 21:17

#	Modifying user name:	WinNT
#	Modification time:	15. 06. 2019 21:17

#	Program:	/corina/corina34_cracker 3.40 0067  02.08.2006

@<TRIPOS>MOLECULE
ASD08170367
  74   77    0    0    0
SMALL
NO_CHARGES


@<TRIPOS>ATOM
   1 C1            -0.0155     1.2910     0.0091 C.2     
   2 N2             0.0021    -0.0041     0.0020 N.2     
   3 N3            -1.1192    -0.5842     0.0096 N.2     
   4 C4            -2.1834     0.1604     0.0237 C.2     
   5 S5            -1.7028     1.8047     0.0357 S.3     
   6 C6             1.1892     2.1964     0.0025 C.3     
   7 C7             3.1995     3.7447    -2.8935 C.3     
   8 C8             4.4042     4.6501    -2.9002 C.2     
   9 C9             5.1208     5.2044    -4.1153 C.3     
  10 C10            6.2368     6.0363    -3.5147 C.2     
  11 N11            6.1078     5.9230    -2.2240 N.2     
  12 N12            5.0316     5.1152    -1.8716 N.2     
  13 N13            7.1891     6.7606    -4.1930 N.am    
  14 N14           -3.4954    -0.3008     0.0334 N.am    
  15 C15            8.1217     7.4536    -3.5100 C.2     
  16 O16            8.1212     7.4385    -2.2975 O.2     
  17 C17            9.1651     8.2473    -4.2532 C.3     
  18 C18           10.0942     8.9337    -3.2499 C.3     
  19 C19           10.8610     7.8898    -2.4798 C.2     
  20 C20           11.0751     9.8378    -3.9991 C.3     
  21 C21           10.2955    10.8953    -4.7791 C.3     
  22 O22           10.6828     6.7171    -2.7097 O.2     
  23 C23           -3.7441    -1.6254     0.0287 C.2     
  24 C24           -5.1658    -2.1251     0.0391 C.3     
  25 O25           -2.8238    -2.4152     0.0161 O.2     
  26 C26           -5.1687    -3.6551     0.0311 C.3     
  27 C27           -4.5573    -4.1653     1.3106 C.2     
  28 O28           -4.1601    -3.3852     2.1434 O.2     
  29 C29           -6.5861    -4.1542    -0.0823 C.ar    
  30 C30            1.5828     2.5110    -1.4422 C.3     
  31 C31            2.8059     3.4301    -1.4489 C.3     
  32 C32           11.9976    10.5020    -3.0106 C.2     
  33 C33           11.6311    11.6250    -2.4053 C.2     
  34 C34           10.3320    12.2384    -2.7203 C.2     
  35 C35            9.6879    11.8935    -3.8285 C.2     
  36 O36           11.7421     8.2627    -1.5383 O.3     
  37 C37           -6.9574    -4.9426    -1.1553 C.ar    
  38 C38           -8.2576    -5.4004    -1.2594 C.ar    
  39 C39           -9.1863    -5.0701    -0.2902 C.ar    
  40 C40           -8.8147    -4.2825     0.7833 C.ar    
  41 C41           -7.5135    -3.8283     0.8896 C.ar    
  42 O42           -4.4541    -5.4863     1.5250 O.3     
  43 H43            0.9501     3.1232     0.5240 H       
  44 H44            2.0193     1.7002     0.5054 H       
  45 H45            2.3694     4.2409    -3.3964 H       
  46 H46            3.4386     2.8179    -3.4151 H       
  47 H47            5.5282     4.3964    -4.7230 H       
  48 H48            4.4502     5.8295    -4.7049 H       
  49 H49            7.1895     6.7728    -5.1629 H       
  50 H50           -4.2314     0.3309     0.0435 H       
  51 H51            9.7464     7.5786    -4.8880 H       
  52 H52            8.6766     9.0011    -4.8707 H       
  53 H53            9.5026     9.5337    -2.5585 H       
  54 H54           11.6632     9.2370    -4.6929 H       
  55 H55           10.9701    11.4110    -5.4626 H       
  56 H56            9.5035    10.4121    -5.3512 H       
  57 H57           -5.6707    -1.7656     0.9357 H       
  58 H58           -5.6871    -1.7562    -0.8442 H       
  59 H59           -4.5876    -4.0151    -0.8180 H       
  60 H60            1.8219     1.5842    -1.9637 H       
  61 H61            0.7527     3.0071    -1.9450 H       
  62 H62            3.6360     2.9340    -0.9460 H       
  63 H63            2.5668     4.3569    -0.9274 H       
  64 H64           12.9601    10.0629    -2.7934 H       
  65 H65           12.2861    12.0877    -1.6820 H       
  66 H66            9.9025    12.9685    -2.0503 H       
  67 H67            8.7248    12.3297    -4.0491 H       
  68 H68           12.2100     7.5573    -1.0708 H       
  69 H69           -6.2319    -5.2007    -1.9125 H       
  70 H70           -8.5479    -6.0158    -2.0981 H       
  71 H71          -10.2023    -5.4272    -0.3719 H       
  72 H72           -9.5404    -4.0241     1.5403 H       
  73 H73           -7.2231    -3.2129     1.7283 H       
  74 H74           -4.0550    -5.7656     2.3604 H       
@<TRIPOS>BOND
   1    1    2 2
   2    1    6 1
   3    1    5 1
   4    2    3 1
   5    3    4 2
   6    4    5 1
   7    4   14 1
   8    6   30 1
   9    6   43 1
  10    6   44 1
  11    7    8 1
  12    7   31 1
  13    7   45 1
  14    7   46 1
  15    8    9 1
  16    8   12 2
  17    9   10 1
  18    9   47 1
  19    9   48 1
  20   10   11 2
  21   10   13 1
  22   11   12 1
  23   13   15 am
  24   13   49 1
  25   14   23 am
  26   14   50 1
  27   15   16 2
  28   15   17 1
  29   17   18 1
  30   17   51 1
  31   17   52 1
  32   18   19 1
  33   18   20 1
  34   18   53 1
  35   19   36 1
  36   19   22 2
  37   20   21 1
  38   20   32 1
  39   20   54 1
  40   21   35 1
  41   21   55 1
  42   21   56 1
  43   23   24 1
  44   23   25 2
  45   24   26 1
  46   24   57 1
  47   24   58 1
  48   26   27 1
  49   26   29 1
  50   26   59 1
  51   27   28 2
  52   27   42 1
  53   29   37 ar
  54   29   41 ar
  55   30   31 1
  56   30   60 1
  57   30   61 1
  58   31   62 1
  59   31   63 1
  60   32   33 2
  61   32   64 1
  62   33   34 1
  63   33   65 1
  64   34   35 2
  65   34   66 1
  66   35   67 1
  67   36   68 1
  68   37   38 ar
  69   37   69 1
  70   38   39 ar
  71   38   70 1
  72   39   40 ar
  73   39   71 1
  74   40   41 ar
  75   40   72 1
  76   41   73 1
  77   42   74 1

#	End of record

