#	Name: ASD01882425
#	Creating user name:	WinNT
#	Creation time:	15. 06. 2019 19:44

#	Modifying user name:	WinNT
#	Modification time:	15. 06. 2019 19:44

#	Program:	/corina/corina34_cracker 3.40 0067  02.08.2006

@<TRIPOS>MOLECULE
ASD01882425
  49   53    0    0    0
SMALL
NO_CHARGES


@<TRIPOS>ATOM
   1 C1             0.7985     1.5146     1.1328 C.2     
   2 C2             0.9873     0.0700     1.2578 C.2     
   3 C3             1.6550    -0.6002     0.2236 C.2     
   4 C4             2.1136     0.1363    -0.8847 C.2     
   5 C5             1.9200     1.4673    -0.9627 C.2     
   6 N6             1.2768     2.1576     0.0187 N.pl3   
   7 N7             0.3205     3.5837     1.3386 N.2     
   8 N8             0.2256     2.4281     1.8963 N.2     
   9 C9             0.9526     3.4818     0.1877 C.2     
  10 C10            0.5043    -0.6396     2.4040 C.1     
  11 N11            0.1211    -1.2025     3.3133 N.1     
  12 C12            1.8351     5.3859    -2.9275 C.ar    
  13 C13            1.5603     4.3262    -2.0898 C.ar    
  14 C14            1.2543     4.5840    -0.7470 C.ar    
  15 C15            1.2421     5.9173    -0.3163 C.ar    
  16 C16            1.5294     6.9148    -1.2233 C.ar    
  17 N17            1.8126     6.6275    -2.4801 N.ar    
  18 N18            1.8605    -1.9648     0.2913 N.pl3   
  19 C19            3.2216    -2.5147     0.3523 C.3     
  20 C20            3.3858    -3.5498    -0.7649 C.3     
  21 C21            2.2781    -4.5995    -0.6491 C.3     
  22 C22            0.9143    -3.9245    -0.8126 C.3     
  23 C23            0.7220    -2.8933     0.3098 C.3     
  24 C24            2.4563    -5.6384    -1.7261 C.ar    
  25 C25            2.6499    -6.9634    -1.3830 C.ar    
  26 C26            2.8134    -7.9165    -2.3708 C.ar    
  27 C27            2.7830    -7.5445    -3.7018 C.ar    
  28 C28            2.5886    -6.2196    -4.0450 C.ar    
  29 C29            2.4207    -5.2673    -3.0572 C.ar    
  30 H30            2.6292    -0.3735    -1.6850 H       
  31 H31            2.2854     2.0013    -1.8274 H       
  32 H32            2.0766     5.1973    -3.9631 H       
  33 H33            1.5802     3.3129    -2.4628 H       
  34 H34            1.0108     6.1598     0.7104 H       
  35 H35            1.5222     7.9456    -0.9012 H       
  36 H36            3.9465    -1.7120     0.2162 H       
  37 H37            3.3797    -2.9924     1.3192 H       
  38 H38            3.3174    -3.0540    -1.7332 H       
  39 H39            4.3576    -4.0347    -0.6718 H       
  40 H40            2.3317    -5.0776     0.3289 H       
  41 H41            0.8692    -3.4251    -1.7804 H       
  42 H42            0.1270    -4.6760    -0.7534 H       
  43 H43            0.6804    -3.4013     1.2733 H       
  44 H44           -0.2030    -2.3406     0.1455 H       
  45 H45            2.6736    -7.2540    -0.3431 H       
  46 H46            2.9653    -8.9516    -2.1027 H       
  47 H47            2.9115    -8.2890    -4.4736 H       
  48 H48            2.5652    -5.9290    -5.0849 H       
  49 H49            2.2651    -4.2327    -3.3254 H       
@<TRIPOS>BOND
   1    1    2 1
   2    1    6 1
   3    1    8 2
   4    2    3 2
   5    2   10 1
   6    3    4 1
   7    3   18 1
   8    4    5 2
   9    4   30 1
  10    5    6 1
  11    5   31 1
  12    6    9 1
  13    7    8 1
  14    7    9 2
  15    9   14 1
  16   10   11 3
  17   12   13 ar
  18   12   17 ar
  19   12   32 1
  20   13   14 ar
  21   13   33 1
  22   14   15 ar
  23   15   16 ar
  24   15   34 1
  25   16   17 ar
  26   16   35 1
  27   18   19 1
  28   18   23 1
  29   19   20 1
  30   19   36 1
  31   19   37 1
  32   20   21 1
  33   20   38 1
  34   20   39 1
  35   21   22 1
  36   21   24 1
  37   21   40 1
  38   22   23 1
  39   22   41 1
  40   22   42 1
  41   23   43 1
  42   23   44 1
  43   24   25 ar
  44   24   29 ar
  45   25   26 ar
  46   25   45 1
  47   26   27 ar
  48   26   46 1
  49   27   28 ar
  50   27   47 1
  51   28   29 ar
  52   28   48 1
  53   29   49 1

#	End of record

