#	Name: ASD01812718
#	Creating user name:	WinNT
#	Creation time:	15. 06. 2019 19:29

#	Modifying user name:	WinNT
#	Modification time:	15. 06. 2019 19:29

#	Program:	/corina/corina34_cracker 3.40 0067  02.08.2006

@<TRIPOS>MOLECULE
ASD01812718
  56   60    0    0    0
SMALL
NO_CHARGES


@<TRIPOS>ATOM
   1 N1            -0.0158     1.3147     0.0093 N.ar    
   2 C2             0.0021    -0.0041     0.0020 C.ar    
   3 C3             1.1989    -0.7033    -0.0127 C.ar    
   4 C4             2.3829    -0.0013    -0.0202 C.ar    
   5 C5             2.3448     1.3978    -0.0128 C.ar    
   6 C6             1.0955     2.0332     0.0025 C.ar    
   7 C7             3.8373    -0.3889    -0.0363 C.3     
   8 N8             4.5955     0.8684    -0.0373 N.am    
   9 C9             3.7280     1.8961    -0.0237 C.2     
  10 C10            6.0558     0.9844    -0.0504 C.3     
  11 C11            6.5432     1.0311    -1.4757 C.ar    
  12 C12            6.6712     2.2481    -2.1206 C.ar    
  13 C13            7.1171     2.2967    -3.4259 C.ar    
  14 C14            7.4386     1.1168    -4.0939 C.ar    
  15 C15            7.3078    -0.1064    -3.4393 C.ar    
  16 C16            6.8664    -0.1428    -2.1321 C.ar    
  17 O17            1.0255     3.3856     0.0100 O.3     
  18 O18            4.0429     3.0706    -0.0212 O.2     
  19 C19            7.9181     1.1627    -5.4973 C.ar    
  20 C20            8.2397    -0.0111    -6.1849 C.ar    
  21 C21            8.0549     2.3802    -6.1696 C.ar    
  22 C22            8.5042     2.3776    -7.4744 C.ar    
  23 N23            8.8020     1.2472    -8.0856 N.ar    
  24 C24            8.6819     0.0768    -7.4887 C.ar    
  25 C25            9.0325    -1.1810    -8.2412 C.3     
  26 C26           -0.2795     3.9677     0.0251 C.3     
  27 C27           -0.2441     5.3221     0.7545 C.3     
  28 C28           -0.6907     6.3859    -0.2696 C.3     
  29 C29           -1.5243     5.5904    -1.3046 C.3     
  30 C30           -0.7464     4.2557    -1.4167 C.3     
  31 O31           -1.1433     5.3037     1.8650 O.3     
  32 H32           -0.9309    -0.5480     0.0080 H       
  33 H33            1.2023    -1.7833    -0.0178 H       
  34 H34            4.0797    -0.9721     0.8522 H       
  35 H35            4.0624    -0.9631    -0.9351 H       
  36 H36            6.3524     1.8979     0.4651 H       
  37 H37            6.4932     0.1235     0.4552 H       
  38 H38            6.4213     3.1618    -1.6020 H       
  39 H39            7.2163     3.2474    -3.9286 H       
  40 H40            7.5557    -1.0238    -3.9524 H       
  41 H41            6.7691    -1.0898    -1.6222 H       
  42 H42            8.1438    -0.9726    -5.7024 H       
  43 H43            7.8122     3.3093    -5.6754 H       
  44 H44            8.6132     3.3135    -8.0022 H       
  45 H45            8.1475    -1.5549    -8.7561 H       
  46 H46            9.8122    -0.9625    -8.9707 H       
  47 H47            9.3912    -1.9353    -7.5408 H       
  48 H48           -0.9819     3.2961     0.5187 H       
  49 H49            0.7685     5.5355     1.0969 H       
  50 H50           -1.3059     7.1454     0.2130 H       
  51 H51            0.1758     6.8427    -0.7476 H       
  52 H52           -2.5355     5.4183    -0.9360 H       
  53 H53           -1.5444     6.1075    -2.2639 H       
  54 H54            0.1112     4.3685    -2.0800 H       
  55 H55           -1.4022     3.4605    -1.7713 H       
  56 H56           -1.1665     6.1305     2.3660 H       
@<TRIPOS>BOND
   1    1    2 ar
   2    1    6 ar
   3    2    3 ar
   4    2   32 1
   5    3    4 ar
   6    3   33 1
   7    4    7 1
   8    4    5 ar
   9    5    6 ar
  10    5    9 1
  11    6   17 1
  12    7    8 1
  13    7   34 1
  14    7   35 1
  15    8    9 am
  16    8   10 1
  17    9   18 2
  18   10   11 1
  19   10   36 1
  20   10   37 1
  21   11   12 ar
  22   11   16 ar
  23   12   13 ar
  24   12   38 1
  25   13   14 ar
  26   13   39 1
  27   14   15 ar
  28   14   19 1
  29   15   16 ar
  30   15   40 1
  31   16   41 1
  32   17   26 1
  33   19   21 ar
  34   19   20 ar
  35   20   24 ar
  36   20   42 1
  37   21   22 ar
  38   21   43 1
  39   22   23 ar
  40   22   44 1
  41   23   24 ar
  42   24   25 1
  43   25   45 1
  44   25   46 1
  45   25   47 1
  46   26   27 1
  47   26   30 1
  48   26   48 1
  49   27   28 1
  50   27   31 1
  51   27   49 1
  52   28   29 1
  53   28   50 1
  54   28   51 1
  55   29   30 1
  56   29   52 1
  57   29   53 1
  58   30   54 1
  59   30   55 1
  60   31   56 1

#	End of record

