#	Name: ASD01884390
#	Creating user name:	WinNT
#	Creation time:	15. 06. 2019 19:48

#	Modifying user name:	WinNT
#	Modification time:	15. 06. 2019 19:48

#	Program:	/corina/corina34_cracker 3.40 0067  02.08.2006

@<TRIPOS>MOLECULE
ASD01884390
  63   65    0    0    0
SMALL
NO_CHARGES


@<TRIPOS>ATOM
   1 C1             0.0275     1.4898     0.0857 C.2     
   2 C2             0.0920     0.0999     0.0275 C.2     
   3 C3            -1.0957    -0.6297    -0.0393 C.2     
   4 C4            -2.2906     0.0132    -0.0473 C.2     
   5 N5            -2.3612     1.3654     0.0092 N.am    
   6 C6            -1.2460     2.1167     0.0807 C.2     
   7 O7            -1.3295     3.3318     0.1306 O.2     
   8 C8            -3.6718     2.0199    -0.0023 C.3     
   9 C9             1.2246     2.2725     0.1556 C.1     
  10 N10            2.1743     2.8934     0.2110 N.1     
  11 N11            1.7599    -1.0006     1.4102 N.3     
  12 C12            2.9273    -1.8930     1.4310 C.3     
  13 C13            3.2927    -2.2170     2.8815 C.3     
  14 N14            2.1416    -2.8448     3.5453 N.3     
  15 C15            0.9742    -1.9524     3.5245 C.3     
  16 C16            0.6089    -1.6284     2.0740 C.3     
  17 N17            2.4542    -3.2124     4.8233 N.pl3   
  18 C18           -4.1719     2.1853     1.4342 C.3     
  19 C19            1.4238    -0.6053     0.0359 C.3     
  20 C20           -5.5406     2.8689     1.4222 C.3     
  21 C21           -6.0965     2.9222     2.8467 C.3     
  22 C22           -5.3956     4.2914     0.8778 C.3     
  23 C23            3.3916    -4.2227     5.0499 C.ar    
  24 C24            1.8061    -2.5469     5.9561 C.3     
  25 C25            3.8290    -4.4895     6.3408 C.ar    
  26 C26            4.7558    -5.4897     6.5615 C.ar    
  27 C27            5.2482    -6.2246     5.4989 C.ar    
  28 C28            4.8147    -5.9616     4.2121 C.ar    
  29 C29            3.8842    -4.9670     3.9852 C.ar    
  30 C30            5.2310    -5.7798     7.9618 C.3     
  31 F31            4.4005    -6.7421     8.5461 F       
  32 F32            6.5438    -6.2613     7.9184 F       
  33 F33            5.1899    -4.6054     8.7209 F       
  34 H34           -1.0638    -1.7082    -0.0850 H       
  35 H35           -3.2023    -0.5634    -0.1000 H       
  36 H36           -3.5845     2.9998    -0.4717 H       
  37 H37           -4.3780     1.4092    -0.5648 H       
  38 H38            2.6894    -2.8154     0.9011 H       
  39 H39            3.7698    -1.4010     0.9450 H       
  40 H40            4.1404    -2.9019     2.8987 H       
  41 H41            3.5569    -1.2976     3.4040 H       
  42 H42            0.1317    -2.4444     4.0106 H       
  43 H43            1.2121    -1.0300     4.0544 H       
  44 H44           -0.2389    -0.9435     2.0569 H       
  45 H45            0.3447    -2.5478     1.5515 H       
  46 H46           -4.2592     1.2055     1.9036 H       
  47 H47           -3.4656     2.7961     1.9967 H       
  48 H48            1.3689    -1.4929    -0.5944 H       
  49 H49            2.1926     0.0656    -0.3475 H       
  50 H50           -6.2231     2.3045     0.7868 H       
  51 H51           -5.4141     3.4866     3.4821 H       
  52 H52           -7.0717     3.4092     2.8381 H       
  53 H53           -6.1999     1.9088     3.2345 H       
  54 H54           -4.9995     4.2534    -0.1370 H       
  55 H55           -6.3707     4.7783     0.8692 H       
  56 H56           -4.7131     4.8558     1.5132 H       
  57 H57            0.8942    -3.0829     6.2192 H       
  58 H58            2.4834    -2.5413     6.8101 H       
  59 H59            1.5586    -1.5214     5.6820 H       
  60 H60            3.4453    -3.9153     7.1712 H       
  61 H61            5.9733    -7.0056     5.6741 H       
  62 H62            5.2017    -6.5373     3.3844 H       
  63 H63            3.5458    -4.7624     2.9802 H       
@<TRIPOS>BOND
   1    1    2 2
   2    1    9 1
   3    1    6 1
   4    2    3 1
   5    2   19 1
   6    3    4 2
   7    3   34 1
   8    4    5 1
   9    4   35 1
  10    5    6 am
  11    5    8 1
  12    6    7 2
  13    8   18 1
  14    8   36 1
  15    8   37 1
  16    9   10 3
  17   11   12 1
  18   11   16 1
  19   11   19 1
  20   12   13 1
  21   12   38 1
  22   12   39 1
  23   13   14 1
  24   13   40 1
  25   13   41 1
  26   14   15 1
  27   14   17 1
  28   15   16 1
  29   15   42 1
  30   15   43 1
  31   16   44 1
  32   16   45 1
  33   17   23 1
  34   17   24 1
  35   18   20 1
  36   18   46 1
  37   18   47 1
  38   19   48 1
  39   19   49 1
  40   20   21 1
  41   20   22 1
  42   20   50 1
  43   21   51 1
  44   21   52 1
  45   21   53 1
  46   22   54 1
  47   22   55 1
  48   22   56 1
  49   23   25 ar
  50   23   29 ar
  51   24   57 1
  52   24   58 1
  53   24   59 1
  54   25   26 ar
  55   25   60 1
  56   26   30 1
  57   26   27 ar
  58   27   28 ar
  59   27   61 1
  60   28   29 ar
  61   28   62 1
  62   29   63 1
  63   30   31 1
  64   30   32 1
  65   30   33 1

#	End of record

