#	Name: ASD02770080
#	Creating user name:	WinNT
#	Creation time:	15. 06. 2019 20:26

#	Modifying user name:	WinNT
#	Modification time:	15. 06. 2019 20:26

#	Program:	/corina/corina34_cracker 3.40 0067  02.08.2006

@<TRIPOS>MOLECULE
ASD02770080
  31   31    0    0    0
SMALL
NO_CHARGES


@<TRIPOS>ATOM
   1 C1            -0.0184     1.5028     0.0103 C.2     
   2 C2             0.0021    -0.0041     0.0020 C.3     
   3 O3             1.0236     2.1234     0.0037 O.2     
   4 N4            -1.1946     2.1607     0.0195 N.am    
   5 O5             1.3556    -0.4620    -0.0134 O.3     
   6 C6             1.5521    -1.8078    -0.0225 C.ar    
   7 C7             1.6410    -2.4889    -1.2268 C.ar    
   8 C8             1.8413    -3.8574    -1.2338 C.ar    
   9 C9             1.9527    -4.5488    -0.0418 C.ar    
  10 C10            1.8649    -3.8754     1.1623 C.ar    
  11 C11            1.6701    -2.5033     1.1766 C.ar    
  12 C12            2.1699    -6.0400    -0.0550 C.3     
  13 O13            3.5717    -6.3171    -0.0712 O.3     
  14 O14            1.5891    -1.8389     2.3605 O.3     
  15 C15            1.7191    -2.6176     3.5516 C.3     
  16 C16            1.6022    -1.7041     4.7734 C.3     
  17 Br17           1.4879    -1.5471    -2.8594 Br      
  18 H18           -0.4983    -0.3791     0.8948 H       
  19 H19           -0.5153    -0.3696    -0.8850 H       
  20 H20           -2.0280     1.6644     0.0207 H       
  21 H21           -1.2077     3.1306     0.0248 H       
  22 H22            1.9104    -4.3871    -2.1725 H       
  23 H23            1.9523    -4.4180     2.0919 H       
  24 H24            1.7228    -6.4802     0.8363 H       
  25 H25            1.7049    -6.4670    -0.9436 H       
  26 H26            3.7862    -7.2599    -0.0803 H       
  27 H27            0.9297    -3.3686     3.5827 H       
  28 H28            2.6908    -3.1113     3.5587 H       
  29 H29            1.7014    -2.2980     5.6819 H       
  30 H30            2.3916    -0.9530     4.7423 H       
  31 H31            0.6305    -1.2104     4.7663 H       
@<TRIPOS>BOND
   1    1    2 1
   2    1    3 2
   3    1    4 am
   4    2    5 1
   5    2   18 1
   6    2   19 1
   7    4   20 1
   8    4   21 1
   9    5    6 1
  10    6    7 ar
  11    6   11 ar
  12    7    8 ar
  13    7   17 1
  14    8    9 ar
  15    8   22 1
  16    9   10 ar
  17    9   12 1
  18   10   11 ar
  19   10   23 1
  20   11   14 1
  21   12   13 1
  22   12   24 1
  23   12   25 1
  24   13   26 1
  25   14   15 1
  26   15   16 1
  27   15   27 1
  28   15   28 1
  29   16   29 1
  30   16   30 1
  31   16   31 1

#	End of record

