#	Name: ASD01815959
#	Creating user name:	WinNT
#	Creation time:	15. 06. 2019 19:34

#	Modifying user name:	WinNT
#	Modification time:	15. 06. 2019 19:34

#	Program:	/corina/corina34_cracker 3.40 0067  02.08.2006

@<TRIPOS>MOLECULE
ASD01815959
  61   67    0    0    0
SMALL
NO_CHARGES


@<TRIPOS>ATOM
   1 C1             1.1858     2.2605    -0.5293 C.ar    
   2 C2             0.8020     0.9296    -0.5129 C.ar    
   3 C3             1.7402    -0.0718    -0.3557 C.ar    
   4 C4             3.0871     0.2504    -0.2120 C.ar    
   5 C5             3.4734     1.6003    -0.2295 C.ar    
   6 C6             2.5175     2.6016    -0.3884 C.ar    
   7 N7             4.0326    -0.7492    -0.0535 N.pl3   
   8 C8             5.3437    -0.4989     0.0897 C.2     
   9 C9             5.8385     0.7817     0.0882 C.2     
  10 C10            4.9053     1.9195    -0.0758 C.2     
  11 C11            7.1597     1.3885     0.2164 C.2     
  12 N12            6.9708     2.7230     0.1313 N.am    
  13 N13            5.6148     3.0110    -0.0429 N.2     
  14 C14            7.9892     3.6817     0.2066 C.ar    
  15 O15            8.2215     0.8069     0.3701 O.2     
  16 C16            3.5814    -2.1429    -0.0411 C.3     
  17 C17            3.4352    -2.6362    -1.4576 C.ar    
  18 C18            4.5182    -2.5899    -2.3200 C.ar    
  19 C19            4.3881    -3.0410    -3.6205 C.ar    
  20 C20            3.1657    -3.5426    -4.0612 C.ar    
  21 C21            2.0802    -3.5868    -3.1882 C.ar    
  22 C22            2.2216    -3.1389    -1.8905 C.ar    
  23 F23            2.8910     3.8998    -0.4050 F       
  24 F24            1.3505    -1.3653    -0.3408 F       
  25 C25            8.7063     4.0261    -0.9313 C.ar    
  26 C26            9.7100     4.9718    -0.8541 C.ar    
  27 C27           10.0021     5.5765     0.3549 C.ar    
  28 C28            9.2910     5.2371     1.4912 C.ar    
  29 C29            8.2807     4.2952     1.4203 C.ar    
  30 F30            7.5857     3.9635     2.5303 F       
  31 F31            5.7028    -2.1029    -1.8901 F       
  32 C32            3.0195    -4.0279    -5.4559 C.ar    
  33 C33            4.1109    -3.9815    -6.3292 C.ar    
  34 C34            3.9935    -4.4238    -7.6154 C.ar    
  35 C35            2.7803    -4.9285    -8.0743 C.ar    
  36 C36            1.6749    -4.9806    -7.2043 C.ar    
  37 C37            1.8013    -4.5324    -5.8899 C.ar    
  38 N38            2.3660    -5.4347    -9.2861 N.pl3   
  39 C39            1.0498    -5.8013    -9.2124 C.2     
  40 C40            0.5733    -5.5532    -7.9824 C.2     
  41 C41            3.2091    -5.5613   -10.4775 C.3     
  42 H42            0.4426     3.0336    -0.6571 H       
  43 H43           -0.2411     0.6724    -0.6238 H       
  44 H44            6.0271    -1.3266     0.2095 H       
  45 H45            4.3131    -2.7571     0.4838 H       
  46 H46            2.6197    -2.2090     0.4677 H       
  47 H47            5.2322    -3.0043    -4.2931 H       
  48 H48            1.1305    -3.9747    -3.5258 H       
  49 H49            1.3806    -3.1735    -1.2139 H       
  50 H50            8.4797     3.5546    -1.8762 H       
  51 H51           10.2680     5.2393    -1.7392 H       
  52 H52           10.7878     6.3153     0.4118 H       
  53 H53            9.5218     5.7110     2.4338 H       
  54 H54            5.0563    -3.5913    -5.9825 H       
  55 H55            4.8446    -4.3817    -8.2789 H       
  56 H56            0.9567    -4.5700    -5.2179 H       
  57 H57            0.4787    -6.2271   -10.0241 H       
  58 H58           -0.4313    -5.7401    -7.6327 H       
  59 H59            3.6981    -6.5354   -10.4748 H       
  60 H60            2.5919    -5.4670   -11.3710 H       
  61 H61            3.9645    -4.7755   -10.4731 H       
@<TRIPOS>BOND
   1    1    2 ar
   2    1    6 ar
   3    1   42 1
   4    2    3 ar
   5    2   43 1
   6    3    4 ar
   7    3   24 1
   8    4    5 ar
   9    4    7 1
  10    5    6 ar
  11    5   10 1
  12    6   23 1
  13    7    8 1
  14    7   16 1
  15    8    9 2
  16    8   44 1
  17    9   10 1
  18    9   11 1
  19   10   13 2
  20   11   12 am
  21   11   15 2
  22   12   13 1
  23   12   14 1
  24   14   25 ar
  25   14   29 ar
  26   16   17 1
  27   16   45 1
  28   16   46 1
  29   17   18 ar
  30   17   22 ar
  31   18   19 ar
  32   18   31 1
  33   19   20 ar
  34   19   47 1
  35   20   21 ar
  36   20   32 1
  37   21   22 ar
  38   21   48 1
  39   22   49 1
  40   25   26 ar
  41   25   50 1
  42   26   27 ar
  43   26   51 1
  44   27   28 ar
  45   27   52 1
  46   28   29 ar
  47   28   53 1
  48   29   30 1
  49   32   33 ar
  50   32   37 ar
  51   33   34 ar
  52   33   54 1
  53   34   35 ar
  54   34   55 1
  55   35   36 ar
  56   35   38 1
  57   36   37 ar
  58   36   40 1
  59   37   56 1
  60   38   39 1
  61   38   41 1
  62   39   40 2
  63   39   57 1
  64   40   58 1
  65   41   59 1
  66   41   60 1
  67   41   61 1

#	End of record

