#	Name: ASD05250009
#	Creating user name:	WinNT
#	Creation time:	15. 06. 2019 20:58

#	Modifying user name:	WinNT
#	Modification time:	15. 06. 2019 20:58

#	Program:	/corina/corina34_cracker 3.40 0067  02.08.2006

@<TRIPOS>MOLECULE
ASD05250009
  46   49    0    0    0
SMALL
NO_CHARGES


@<TRIPOS>ATOM
   1 C1             0.7250     1.7321     3.0084 C.ar    
   2 C2             0.8223     0.3840     3.3133 C.ar    
   3 N3             1.8734    -0.3259     2.9566 N.ar    
   4 C4             2.8820     0.2145     2.2925 C.ar    
   5 C5             2.8562     1.5787     1.9463 C.ar    
   6 C6             1.7489     2.3503     2.3158 C.ar    
   7 N7             4.0741    -0.2793     1.8059 N.pl3   
   8 C8             4.7271     0.7585     1.1947 C.2     
   9 N9             4.0044     1.8492     1.2811 N.2     
  10 C10            6.0465     0.6632     0.5377 C.ar    
  11 C11            6.7767    -0.5240     0.5991 C.ar    
  12 C12            8.0082    -0.6072    -0.0167 C.ar    
  13 C13            8.5246     0.4829    -0.6962 C.ar    
  14 C14            7.8126     1.6647    -0.7650 C.ar    
  15 C15            6.5698     1.7638    -0.1561 C.ar    
  16 N16            5.8494     2.9559    -0.2244 N.am    
  17 C17            6.4983     4.1370    -0.2129 C.2     
  18 C18            5.7480     5.3930    -0.4057 C.ar    
  19 O19            7.7020     4.1678    -0.0437 O.2     
  20 C20            4.3652     5.3595    -0.6002 C.ar    
  21 C21            3.6659     6.5335    -0.7802 C.ar    
  22 C22            4.3326     7.7508    -0.7691 C.ar    
  23 C23            5.7130     7.7915    -0.5755 C.ar    
  24 C24            6.4188     6.6194    -0.3884 C.ar    
  25 C25            7.7774     8.9530    -0.3621 C.3     
  26 O26            6.3633     8.9859    -0.5657 O.3     
  27 O27            3.6392     8.9046    -0.9478 O.3     
  28 C28            2.2280     8.7901    -1.1412 C.3     
  29 H29           -0.1472     2.2952     3.3060 H       
  30 H30            0.0200    -0.0948     3.8550 H       
  31 H31            1.6957     3.3998     2.0664 H       
  32 H32            4.3918    -1.1926     1.8826 H       
  33 H33            6.3783    -1.3769     1.1285 H       
  34 H34            8.5723    -1.5269     0.0316 H       
  35 H35            9.4900     0.4091    -1.1748 H       
  36 H36            8.2218     2.5109    -1.2968 H       
  37 H37            4.8812     2.9349    -0.2801 H       
  38 H38            3.8441     4.4136    -0.6099 H       
  39 H39            2.5968     6.5061    -0.9305 H       
  40 H40            7.4878     6.6495    -0.2379 H       
  41 H41            8.1703     9.9696    -0.3766 H       
  42 H42            7.9951     8.4930     0.6018 H       
  43 H43            8.2453     8.3712    -1.1562 H       
  44 H44            1.7797     8.3108    -0.2710 H       
  45 H45            1.7974     9.7830    -1.2713 H       
  46 H46            2.0305     8.1893    -2.0290 H       
@<TRIPOS>BOND
   1    1    2 ar
   2    1    6 ar
   3    1   29 1
   4    2    3 ar
   5    2   30 1
   6    3    4 ar
   7    4    5 ar
   8    4    7 1
   9    5    6 ar
  10    5    9 1
  11    6   31 1
  12    7    8 1
  13    7   32 1
  14    8    9 2
  15    8   10 1
  16   10   11 ar
  17   10   15 ar
  18   11   12 ar
  19   11   33 1
  20   12   13 ar
  21   12   34 1
  22   13   14 ar
  23   13   35 1
  24   14   15 ar
  25   14   36 1
  26   15   16 1
  27   16   17 am
  28   16   37 1
  29   17   18 1
  30   17   19 2
  31   18   20 ar
  32   18   24 ar
  33   20   21 ar
  34   20   38 1
  35   21   22 ar
  36   21   39 1
  37   22   23 ar
  38   22   27 1
  39   23   24 ar
  40   23   26 1
  41   24   40 1
  42   25   26 1
  43   25   41 1
  44   25   42 1
  45   25   43 1
  46   27   28 1
  47   28   44 1
  48   28   45 1
  49   28   46 1

#	End of record

