#	Name: ASD01120356
#	Creating user name:	WinNT
#	Creation time:	15. 06. 2019 18:59

#	Modifying user name:	WinNT
#	Modification time:	15. 06. 2019 18:59

#	Program:	/corina/corina34_cracker 3.40 0067  02.08.2006

@<TRIPOS>MOLECULE
ASD01120356
  40   42    0    0    0
SMALL
NO_CHARGES


@<TRIPOS>ATOM
   1 C1             0.2562     1.7968     0.1206 C.ar    
   2 C2             0.1261     0.4139     0.1096 C.ar    
   3 C3             1.2365    -0.3963     0.1934 C.ar    
   4 C4             2.5029     0.1731     0.2896 C.ar    
   5 C5             2.6322     1.5761     0.3001 C.ar    
   6 C6             1.4872     2.3785     0.2141 C.ar    
   7 N7             3.7678    -0.3570     0.3845 N.pl3   
   8 C8             4.6803     0.6785     0.4536 C.2     
   9 C9             4.0145     1.8628     0.4042 C.2     
  10 C10            4.6365     3.2346     0.4516 C.3     
  11 C11            4.9558     3.6993    -0.9707 C.3     
  12 C12            5.5778     5.0712    -0.9232 C.2     
  13 O13            5.9424     5.6825    -2.0612 O.3     
  14 O14            5.7483     5.6208     0.1392 O.2     
  15 C15            6.1370     0.5242     0.5631 C.2     
  16 O16            6.8500     1.5074     0.6172 O.2     
  17 O17            6.6833    -0.7079     0.6036 O.3     
  18 C18            4.0946    -1.7849     0.4088 C.3     
  19 C19            4.1477    -2.2714     1.8584 C.3     
  20 C20            4.3766    -3.7656     2.0942 C.3     
  21 C21            5.4953    -2.7644     2.3892 C.3     
  22 N22            1.0836    -1.8686     0.1816 N.pl3   
  23 O23            0.3520    -2.3984    -0.6355 O.2     
  24 O24            1.6893    -2.5503     0.9890 O.2     
  25 H25           -0.6248     2.4175     0.0499 H       
  26 H26           -0.8555    -0.0302     0.0350 H       
  27 H27            1.5783     3.4546     0.2212 H       
  28 H28            3.9399     3.9336     0.9145 H       
  29 H29            5.5556     3.1968     1.0364 H       
  30 H30            5.6524     3.0004    -1.4336 H       
  31 H31            4.0367     3.7372    -1.5555 H       
  32 H32            6.3372     6.5615    -1.9803 H       
  33 H33            7.6463    -0.7590     0.6760 H       
  34 H34            3.3305    -2.3418    -0.1336 H       
  35 H35            5.0640    -1.9439    -0.0635 H       
  36 H36            3.4938    -1.7463     2.5547 H       
  37 H37            3.8736    -4.2236     2.9459 H       
  38 H38            4.4894    -4.4022     1.2166 H       
  39 H39            6.3441    -2.7423     1.7057 H       
  40 H40            5.7283    -2.5637     3.4349 H       
@<TRIPOS>BOND
   1    1    2 ar
   2    1    6 ar
   3    1   25 1
   4    2    3 ar
   5    2   26 1
   6    3   22 1
   7    3    4 ar
   8    4    5 ar
   9    4    7 1
  10    5    6 ar
  11    5    9 1
  12    6   27 1
  13    7    8 1
  14    7   18 1
  15    8    9 2
  16    8   15 1
  17    9   10 1
  18   10   11 1
  19   10   28 1
  20   10   29 1
  21   11   12 1
  22   11   30 1
  23   11   31 1
  24   12   13 1
  25   12   14 2
  26   13   32 1
  27   15   16 2
  28   15   17 1
  29   17   33 1
  30   18   19 1
  31   18   34 1
  32   18   35 1
  33   19   20 1
  34   19   21 1
  35   19   36 1
  36   20   21 1
  37   20   37 1
  38   20   38 1
  39   21   39 1
  40   21   40 1
  41   22   23 2
  42   22   24 2

#	End of record

