#	Name: ASD03730670
#	Creating user name:	WinNT
#	Creation time:	15. 06. 2019 20:44

#	Modifying user name:	WinNT
#	Modification time:	15. 06. 2019 20:44

#	Program:	/corina/corina34_cracker 3.40 0067  02.08.2006

@<TRIPOS>MOLECULE
ASD03730670
  58   64    0    0    0
SMALL
NO_CHARGES


@<TRIPOS>ATOM
   1 O1            -0.4305     1.1718     1.1643 O.3     
   2 C2            -0.3687    -0.2653     1.2296 C.3     
   3 O3             0.7316    -0.5995     0.3631 O.3     
   4 C4             1.5567     0.4885     0.3837 C.ar    
   5 C5             0.8405     1.5782     0.8739 C.ar    
   6 C6             2.8825     0.6398     0.0199 C.ar    
   7 C7             3.5089     1.8770     0.1356 C.ar    
   8 C8             2.7797     2.9609     0.6152 C.ar    
   9 C9             1.4597     2.8116     0.9858 C.ar    
  10 O10            4.7949     2.2325    -0.1470 O.3     
  11 C11            3.7081     4.1457     0.5931 C.3     
  12 C12            4.8720     3.6644    -0.2842 C.3     
  13 N13            3.1374     6.3252     0.9762 N.am    
  14 C14            3.0516     5.3719     0.0270 C.2     
  15 C15            4.1670     4.5385     1.9655 C.ar    
  16 C16            4.8330     3.8688     2.9829 C.ar    
  17 C17            5.1229     4.5318     4.1751 C.ar    
  18 C18            4.7453     5.8504     4.3350 C.ar    
  19 C19            4.0832     6.5150     3.3228 C.ar    
  20 C20            3.7871     5.8664     2.1252 C.ar    
  21 O21            2.5439     5.4828    -1.0689 O.2     
  22 C22            2.6110     7.6836     0.8213 C.3     
  23 O23            0.0935     7.5013     0.5552 O.3     
  24 C24            1.1844     7.7277     1.3051 C.2     
  25 C25            0.7878     8.0000     2.5612 C.2     
  26 C26           -0.6244     7.9338     2.5683 C.2     
  27 C27           -1.0064     7.6249     1.3160 C.2     
  28 C28           -2.4273     7.4477     0.8464 C.3     
  29 F29           -2.9285     8.6762     0.4028 F       
  30 F30           -2.4596     6.5242    -0.2040 F       
  31 F31           -3.2130     6.9781     1.9044 F       
  32 C32            6.1300     2.0940     1.7984 C.ar    
  33 C33            5.2348     2.4518     2.8027 C.ar    
  34 C34            4.7198     1.4565     3.6398 C.ar    
  35 C35            5.1237     0.1511     3.4337 C.ar    
  36 C36            6.0210    -0.1282     2.4099 C.ar    
  37 N37            6.4897     0.8367     1.6353 N.ar    
  38 O38            6.4221    -1.4073     2.2022 O.3     
  39 C39            7.3455    -1.6325     1.1351 C.3     
  40 H40           -0.1670    -0.5941     2.2491 H       
  41 H41           -1.2948    -0.7057     0.8601 H       
  42 H42            3.4355    -0.2081    -0.3563 H       
  43 H43            0.9074     3.6592     1.3640 H       
  44 H44            5.8230     4.0389     0.0947 H       
  45 H45            4.7234     3.9623    -1.3221 H       
  46 H46            5.6404     4.0158     4.9703 H       
  47 H47            4.9693     6.3646     5.2580 H       
  48 H48            3.7920     7.5460     3.4598 H       
  49 H49            3.2150     8.3763     1.4074 H       
  50 H50            2.6472     7.9696    -0.2299 H       
  51 H51            1.4258     8.2254     3.4030 H       
  52 H52           -1.2723     8.0991     3.4164 H       
  53 H53            6.5304     2.8538     1.1436 H       
  54 H54            4.0238     1.7022     4.4281 H       
  55 H55            4.7466    -0.6429     4.0612 H       
  56 H56            8.2582    -1.0655     1.3187 H       
  57 H57            7.5830    -2.6948     1.0782 H       
  58 H58            6.8998    -1.3089     0.1945 H       
@<TRIPOS>BOND
   1    1    2 1
   2    1    5 1
   3    2    3 1
   4    2   40 1
   5    2   41 1
   6    3    4 1
   7    4    5 ar
   8    4    6 ar
   9    5    9 ar
  10    6    7 ar
  11    6   42 1
  12    7    8 ar
  13    7   10 1
  14    8    9 ar
  15    8   11 1
  16    9   43 1
  17   10   12 1
  18   11   12 1
  19   11   14 1
  20   11   15 1
  21   12   44 1
  22   12   45 1
  23   13   14 am
  24   13   20 1
  25   13   22 1
  26   14   21 2
  27   15   16 ar
  28   15   20 ar
  29   16   17 ar
  30   16   33 1
  31   17   18 ar
  32   17   46 1
  33   18   19 ar
  34   18   47 1
  35   19   20 ar
  36   19   48 1
  37   22   24 1
  38   22   49 1
  39   22   50 1
  40   23   24 1
  41   23   27 1
  42   24   25 2
  43   25   26 1
  44   25   51 1
  45   26   27 2
  46   26   52 1
  47   27   28 1
  48   28   29 1
  49   28   30 1
  50   28   31 1
  51   32   33 ar
  52   32   37 ar
  53   32   53 1
  54   33   34 ar
  55   34   35 ar
  56   34   54 1
  57   35   36 ar
  58   35   55 1
  59   36   37 ar
  60   36   38 1
  61   38   39 1
  62   39   56 1
  63   39   57 1
  64   39   58 1

#	End of record

