#	Name: ASD04590873
#	Creating user name:	WinNT
#	Creation time:	15. 06. 2019 20:51

#	Modifying user name:	WinNT
#	Modification time:	15. 06. 2019 20:51

#	Program:	/corina/corina34_cracker 3.40 0067  02.08.2006

@<TRIPOS>MOLECULE
ASD04590873
  66   71    0    0    0
SMALL
NO_CHARGES


@<TRIPOS>ATOM
   1 N1            -0.0170     1.3229    -0.0110 N.ar    
   2 C2             0.0017    -0.0035    -0.0048 C.ar    
   3 N3             1.1297    -0.6953    -0.0117 N.ar    
   4 C4             2.3048    -0.0728    -0.0258 C.ar    
   5 C5             2.3181     1.3353    -0.0332 C.ar    
   6 C6             1.1080     2.0198    -0.0250 C.ar    
   7 N7             3.6036    -0.5178    -0.0360 N.pl3   
   8 C8             4.4824     0.5535    -0.0500 C.ar    
   9 C9             3.7336     1.7402    -0.0488 C.ar    
  10 C10            5.8713     0.6250    -0.0644 C.ar    
  11 C11            6.4998     1.8520    -0.0769 C.ar    
  12 C12            5.7586     3.0234    -0.0753 C.ar    
  13 C13            4.3812     2.9730    -0.0618 C.ar    
  14 N14           -1.2025    -0.6888     0.0098 N.pl3   
  15 C15           -2.4027     0.0122     0.1304 C.ar    
  16 N16           -2.3894     1.3196     0.3309 N.ar    
  17 N17           -3.4685     2.0045     0.4472 N.ar    
  18 C18           -4.6670     1.4488     0.3744 C.ar    
  19 C19           -4.7836     0.0738     0.1645 C.ar    
  20 C20           -3.6200    -0.6635     0.0339 C.ar    
  21 N21           -5.8100     2.2342     0.5072 N.3     
  22 C22            4.0041    -1.9270    -0.0322 C.3     
  23 C23            3.4040    -2.6436     1.1951 C.3     
  24 C24            3.4412    -2.6383    -1.2752 C.3     
  25 C25            2.5188    -3.7623    -0.7598 C.3     
  26 C26            2.1053    -3.2944     0.6576 C.3     
  27 C27           -5.4581     3.6438     0.7204 C.3     
  28 C28           -6.6706     1.7327     1.5863 C.3     
  29 C29           -7.9788     2.5266     1.6079 C.3     
  30 C30           -7.6665     4.0096     1.8263 C.3     
  31 C31           -6.7301     4.4948     0.7162 C.3     
  32 N32           -8.9140     4.7845     1.7897 N.3     
  33 C33           -8.6667     6.1959     2.1133 C.3     
  34 C34           -9.5781     4.6518     0.4862 C.3     
  35 H35            1.0864     3.0996    -0.0307 H       
  36 H36            6.4582    -0.2817    -0.0654 H       
  37 H37            7.5786     1.9009    -0.0877 H       
  38 H38            6.2621     3.9788    -0.0849 H       
  39 H39            3.8059     3.8870    -0.0606 H       
  40 H40           -1.2110    -1.6560    -0.0637 H       
  41 H41           -5.7523    -0.3995     0.1019 H       
  42 H42           -3.6527    -1.7305    -0.1298 H       
  43 H43            5.0911    -2.0060    -0.0170 H       
  44 H44            4.0890    -3.4071     1.5638 H       
  45 H45            3.1734    -1.9249     1.9815 H       
  46 H46            2.8701    -1.9350    -1.8812 H       
  47 H47            4.2551    -3.0632    -1.8628 H       
  48 H48            1.6421    -3.8600    -1.4002 H       
  49 H49            3.0608    -4.7065    -0.7069 H       
  50 H50            1.8147    -4.1441     1.2754 H       
  51 H51            1.3001    -2.5618     0.6030 H       
  52 H52           -4.9527     3.7508     1.6802 H       
  53 H53           -4.7953     3.9774    -0.0781 H       
  54 H54           -6.8885     0.6782     1.4167 H       
  55 H55           -6.1595     1.8487     2.5420 H       
  56 H56           -8.4971     2.3999     0.6575 H       
  57 H57           -8.6108     2.1646     2.4188 H       
  58 H58           -7.1830     4.1414     2.7942 H       
  59 H59           -6.4699     5.5389     0.8900 H       
  60 H60           -7.2288     4.3991    -0.2483 H       
  61 H61           -7.9714     6.6185     1.3881 H       
  62 H62           -9.6067     6.7467     2.0791 H       
  63 H63           -8.2385     6.2699     3.1130 H       
  64 H64           -9.8126     3.6033     0.3029 H       
  65 H65          -10.4988     5.2353     0.4864 H       
  66 H66           -8.9158     5.0185    -0.2980 H       
@<TRIPOS>BOND
   1    1    2 ar
   2    1    6 ar
   3    2    3 ar
   4    2   14 1
   5    3    4 ar
   6    4    5 ar
   7    4    7 1
   8    5    6 ar
   9    5    9 1
  10    6   35 1
  11    7    8 1
  12    7   22 1
  13    8    9 ar
  14    8   10 ar
  15    9   13 ar
  16   10   11 ar
  17   10   36 1
  18   11   12 ar
  19   11   37 1
  20   12   13 ar
  21   12   38 1
  22   13   39 1
  23   14   15 1
  24   14   40 1
  25   15   16 ar
  26   15   20 ar
  27   16   17 ar
  28   17   18 ar
  29   18   19 ar
  30   18   21 1
  31   19   20 ar
  32   19   41 1
  33   20   42 1
  34   21   27 1
  35   21   28 1
  36   22   24 1
  37   22   23 1
  38   22   43 1
  39   23   26 1
  40   23   44 1
  41   23   45 1
  42   24   25 1
  43   24   46 1
  44   24   47 1
  45   25   26 1
  46   25   48 1
  47   25   49 1
  48   26   50 1
  49   26   51 1
  50   27   31 1
  51   27   52 1
  52   27   53 1
  53   28   29 1
  54   28   54 1
  55   28   55 1
  56   29   30 1
  57   29   56 1
  58   29   57 1
  59   30   31 1
  60   30   32 1
  61   30   58 1
  62   31   59 1
  63   31   60 1
  64   32   33 1
  65   32   34 1
  66   33   61 1
  67   33   62 1
  68   33   63 1
  69   34   64 1
  70   34   65 1
  71   34   66 1

#	End of record

