#	Name: ASD01913454
#	Creating user name:	WinNT
#	Creation time:	15. 06. 2019 20:01

#	Modifying user name:	WinNT
#	Modification time:	15. 06. 2019 20:01

#	Program:	/corina/corina34_cracker 3.40 0067  02.08.2006

@<TRIPOS>MOLECULE
ASD01913454
  38   40    0    0    0
SMALL
NO_CHARGES


@<TRIPOS>ATOM
   1 C1             0.8872     0.0711    -1.0319 C.ar    
   2 C2             0.0204    -0.0121     0.0530 C.ar    
   3 C3             0.3614     0.6242     1.2382 C.ar    
   4 N4             1.4891     1.2991     1.3388 N.ar    
   5 C5             2.3323     1.3973     0.3295 C.ar    
   6 C6             2.0621     0.7904    -0.8825 C.ar    
   7 C7            -1.0733    -2.0573    -0.1462 C.ar    
   8 C8            -2.2381    -2.8151    -0.1614 C.ar    
   9 N9            -2.1712    -4.1304    -0.2635 N.ar    
  10 C10           -0.9980    -4.7297    -0.3519 C.ar    
  11 C11            0.1718    -3.9767    -0.3372 C.ar    
  12 N12            0.1068    -2.6554    -0.2347 N.ar    
  13 N13            1.4096    -4.6091    -0.4295 N.am    
  14 C14            2.5363    -3.8750    -0.5198 C.2     
  15 O15           -1.1438    -0.7061    -0.0464 O.3     
  16 C16            3.8365    -4.5413    -0.7448 C.ar    
  17 C17            3.8991    -5.9316    -0.8642 C.ar    
  18 C18            5.1129    -6.5559    -1.0740 C.ar    
  19 C19            6.2720    -5.8120    -1.1672 C.ar    
  20 C20            6.2240    -4.4202    -1.0497 C.ar    
  21 C21            5.0016    -3.7834    -0.8441 C.ar    
  22 O22            2.4833    -2.6651    -0.4161 O.2     
  23 C23            7.4274    -3.6499    -1.1457 C.1     
  24 C24            3.6076     2.1818     0.5001 C.3     
  25 F25            3.7208     2.6048     1.8288 F       
  26 F26            4.7006     1.3717     0.1738 F       
  27 F27            3.5854     3.2972    -0.3441 F       
  28 N28            8.3820    -3.0388    -1.2219 N.1     
  29 H29            0.6522    -0.4168    -1.9664 H       
  30 H30           -0.3042     0.5660     2.0867 H       
  31 H31            2.7582     0.8764    -1.7037 H       
  32 H32           -3.1993    -2.3280    -0.0893 H       
  33 H33           -0.9464    -5.8052    -0.4353 H       
  34 H34            1.4606    -5.5777    -0.4288 H       
  35 H35            2.9962    -6.5198    -0.7919 H       
  36 H36            5.1556    -7.6312    -1.1651 H       
  37 H37            7.2180    -6.3066    -1.3310 H       
  38 H38            4.9587    -2.7082    -0.7526 H       
@<TRIPOS>BOND
   1    1    2 ar
   2    1    6 ar
   3    1   29 1
   4    2    3 ar
   5    2   15 1
   6    3    4 ar
   7    3   30 1
   8    4    5 ar
   9    5    6 ar
  10    5   24 1
  11    6   31 1
  12    7    8 ar
  13    7   12 ar
  14    7   15 1
  15    8    9 ar
  16    8   32 1
  17    9   10 ar
  18   10   11 ar
  19   10   33 1
  20   11   12 ar
  21   11   13 1
  22   13   14 am
  23   13   34 1
  24   14   16 1
  25   14   22 2
  26   16   17 ar
  27   16   21 ar
  28   17   18 ar
  29   17   35 1
  30   18   19 ar
  31   18   36 1
  32   19   20 ar
  33   19   37 1
  34   20   21 ar
  35   20   23 1
  36   21   38 1
  37   23   28 3
  38   24   25 1
  39   24   26 1
  40   24   27 1

#	End of record

