#	Name: ASD01911536
#	Creating user name:	WinNT
#	Creation time:	15. 06. 2019 19:57

#	Modifying user name:	WinNT
#	Modification time:	15. 06. 2019 19:57

#	Program:	/corina/corina34_cracker 3.40 0067  02.08.2006

@<TRIPOS>MOLECULE
ASD01911536
  23   24    0    0    0
SMALL
NO_CHARGES


@<TRIPOS>ATOM
   1 N1            -0.0158     1.3135     0.0093 N.am    
   2 C2             0.0029    -0.0010    -0.0810 C.2     
   3 C3             1.2142    -0.8826     0.0185 C.3     
   4 S4             2.6999     0.1086    -0.3241 S.3     
   5 C5             2.3551     1.6111     0.6442 C.3     
   6 C6             1.0810     2.2517     0.0949 C.3     
   7 O7            -1.0620    -0.5524    -0.2616 O.2     
   8 C8            -1.2866     1.8873     0.0180 C.ar    
   9 C9            -1.9521     2.0682     1.2252 C.ar    
  10 C10           -3.2123     2.6392     1.2202 C.ar    
  11 C11           -3.7662     3.0113     0.0019 C.ar    
  12 C12           -3.0477     2.8019    -1.1594 C.ar    
  13 N13           -1.8455     2.2596    -1.1224 N.ar    
  14 Br14          -5.4855     3.7957    -0.0664 Br      
  15 H15            1.2789    -1.3013     1.0228 H       
  16 H16            1.1384    -1.6897    -0.7101 H       
  17 H17            2.2121     1.3482     1.6923 H       
  18 H18            3.1875     2.3085     0.5498 H       
  19 H19            1.2856     2.6472    -0.8999 H       
  20 H20            0.7907     3.0753     0.7472 H       
  21 H21           -1.4916     1.7667     2.1545 H       
  22 H22           -3.7533     2.7917     2.1424 H       
  23 H23           -3.4738     3.0895    -2.1092 H       
@<TRIPOS>BOND
   1    1    2 am
   2    1    6 1
   3    1    8 1
   4    2    3 1
   5    2    7 2
   6    3    4 1
   7    3   15 1
   8    3   16 1
   9    4    5 1
  10    5    6 1
  11    5   17 1
  12    5   18 1
  13    6   19 1
  14    6   20 1
  15    8    9 ar
  16    8   13 ar
  17    9   10 ar
  18    9   21 1
  19   10   11 ar
  20   10   22 1
  21   11   12 ar
  22   11   14 1
  23   12   13 ar
  24   12   23 1

#	End of record

