#	Name: ASD01882810
#	Creating user name:	WinNT
#	Creation time:	15. 06. 2019 19:45

#	Modifying user name:	WinNT
#	Modification time:	15. 06. 2019 19:45

#	Program:	/corina/corina34_cracker 3.40 0067  02.08.2006

@<TRIPOS>MOLECULE
ASD01882810
  44   47    0    0    0
SMALL
NO_CHARGES


@<TRIPOS>ATOM
   1 C1            -0.2000     1.6045    -0.0812 C.2     
   2 C2             0.0035     0.2113    -0.1065 C.2     
   3 C3            -1.0655    -0.6187     0.0297 C.2     
   4 C4            -2.3522    -0.0775     0.1930 C.2     
   5 C5            -2.5321     1.2599     0.2148 C.2     
   6 N6            -1.4701     2.1038     0.0733 N.pl3   
   7 C7            -0.8709    -2.1128     0.0051 C.3     
   8 O8            -1.4541    -2.6885     1.1758 O.3     
   9 C9             1.3895    -0.3535    -0.2829 C.3     
  10 C10           -0.9860    -3.9039     1.5646 C.ar    
  11 C11           -1.5449    -2.6945    -1.2392 C.3     
  12 N12            0.6107     2.6449    -0.1846 N.2     
  13 N13           -0.0726     3.7318    -0.0983 N.2     
  14 C14           -1.3421     3.4583     0.0583 C.2     
  15 C15           -2.4593     4.4604     0.1946 C.3     
  16 F16            1.4105    -1.1979    -1.3981 F       
  17 F17            2.2987     0.6927    -0.4728 F       
  18 F18            1.7459    -1.0795     0.8586 F       
  19 C19           -2.3932     5.4365     1.3709 C.3     
  20 C20           -2.1217     5.9324    -0.0508 C.3     
  21 C21            0.0451    -4.5088     0.8611 C.ar    
  22 C22            0.5192    -5.7442     1.2581 C.ar    
  23 C23           -0.0330    -6.3783     2.3559 C.ar    
  24 C24           -1.0611    -5.7785     3.0591 C.ar    
  25 C25           -1.5352    -4.5395     2.6698 C.ar    
  26 Cl26          -2.8207    -3.7826     3.5578 Cl      
  27 C27            0.4866    -7.7259     2.7863 C.3     
  28 H28           -3.2018    -0.7354     0.3012 H       
  29 H29           -3.5254     1.6649     0.3405 H       
  30 H30            0.1949    -2.3401    -0.0192 H       
  31 H31           -1.1000    -2.2554    -2.1322 H       
  32 H32           -1.4042    -3.7752    -1.2570 H       
  33 H33           -2.6107    -2.4672    -1.2149 H       
  34 H34           -3.4444     4.1113    -0.1149 H       
  35 H35           -3.3348     5.7298     1.8351 H       
  36 H36           -1.5416     5.3538     2.0463 H       
  37 H37           -1.0916     6.1760    -0.3108 H       
  38 H38           -2.8848     6.5520    -0.5220 H       
  39 H39            0.4768    -4.0145     0.0034 H       
  40 H40            1.3218    -6.2154     0.7103 H       
  41 H41           -1.4909    -6.2760     3.9159 H       
  42 H42            1.2984    -7.5909     3.5010 H       
  43 H43           -0.3183    -8.2933     3.2535 H       
  44 H44            0.8554    -8.2681     1.9156 H       
@<TRIPOS>BOND
   1    1    2 1
   2    1   12 2
   3    1    6 1
   4    2    9 1
   5    2    3 2
   6    3    4 1
   7    3    7 1
   8    4    5 2
   9    4   28 1
  10    5    6 1
  11    5   29 1
  12    6   14 1
  13    7    8 1
  14    7   11 1
  15    7   30 1
  16    8   10 1
  17    9   16 1
  18    9   17 1
  19    9   18 1
  20   10   21 ar
  21   10   25 ar
  22   11   31 1
  23   11   32 1
  24   11   33 1
  25   12   13 1
  26   13   14 2
  27   14   15 1
  28   15   19 1
  29   15   20 1
  30   15   34 1
  31   19   20 1
  32   19   35 1
  33   19   36 1
  34   20   37 1
  35   20   38 1
  36   21   22 ar
  37   21   39 1
  38   22   23 ar
  39   22   40 1
  40   23   24 ar
  41   23   27 1
  42   24   25 ar
  43   24   41 1
  44   25   26 1
  45   27   42 1
  46   27   43 1
  47   27   44 1

#	End of record

