#	Name: ASD03240110
#	Creating user name:	WinNT
#	Creation time:	15. 06. 2019 20:34

#	Modifying user name:	WinNT
#	Modification time:	15. 06. 2019 20:34

#	Program:	/corina/corina34_cracker 3.40 0067  02.08.2006

@<TRIPOS>MOLECULE
ASD03240110
  72   78    0    0    0
SMALL
NO_CHARGES


@<TRIPOS>ATOM
   1 C1            -0.0172     1.4159     0.0098 C.ar    
   2 C2             0.0021    -0.0041     0.0020 C.ar    
   3 C3             1.1949     2.1240     0.0021 C.ar    
   4 C4             2.3741     1.3946    -0.0132 C.ar    
   5 C5             2.3166    -0.0171    -0.0202 C.ar    
   6 N6             1.1630    -0.6585    -0.0127 N.ar    
   7 C7             3.5776    -0.7938    -0.0365 C.ar    
   8 C8             3.6834     2.0897    -0.0224 C.ar    
   9 C9             3.9289     3.1071    -0.9434 C.ar    
  10 C10            5.1497     3.7506    -0.9473 C.ar    
  11 C11            6.1287     3.3880    -0.0398 C.ar    
  12 C12            5.8909     2.3789     0.8761 C.ar    
  13 C13            4.6717     1.7325     0.8935 C.ar    
  14 C14            3.6623    -2.0060     0.6480 C.ar    
  15 C15            4.8397    -2.7252     0.6287 C.ar    
  16 C16            5.9348    -2.2462    -0.0678 C.ar    
  17 C17            5.8571    -1.0444    -0.7487 C.ar    
  18 C18            4.6835    -0.3187    -0.7413 C.ar    
  19 C19            7.2179    -3.0364    -0.0844 C.3     
  20 N20           -1.1681    -0.6565     0.0102 N.ar    
  21 C21           -2.3032     0.0115     0.0251 C.ar    
  22 N22           -2.3566     1.3404     0.0323 N.ar    
  23 C23           -1.2608     2.0720     0.0311 C.ar    
  24 O24           -3.4646    -0.6840     0.0330 O.3     
  25 C25           -4.6753     0.0750     0.0491 C.3     
  26 N26            7.2071    -3.9639    -1.2236 N.3     
  27 C27            8.5269    -4.5789    -1.4140 C.3     
  28 C28            8.5184    -5.4231    -2.6905 C.3     
  29 C29            7.4420    -6.5058    -2.5734 C.3     
  30 C30            6.0849    -5.8409    -2.3272 C.3     
  31 C31            6.1640    -4.9846    -1.0613 C.3     
  32 C32            7.3881    -7.3026    -3.8514 C.2     
  33 N33            6.6902    -6.9807    -4.9660 N.pl3   
  34 C34            6.9354    -7.9835    -5.8648 C.2     
  35 N35            7.7422    -8.8378    -5.2755 N.2     
  36 N36            8.0109    -8.4270    -4.0872 N.2     
  37 C37            6.3947    -8.0867    -7.2379 C.ar    
  38 C38            6.7395    -9.1762    -8.0371 C.ar    
  39 C39            6.2250    -9.2588    -9.3195 C.ar    
  40 C40            5.3822    -8.2491    -9.7615 C.ar    
  41 C41            5.0817    -7.1965    -8.9156 C.ar    
  42 N42            5.5803    -7.1438    -7.6979 N.ar    
  43 H43            1.2085     3.2039     0.0074 H       
  44 H44            3.1655     3.3908    -1.6526 H       
  45 H45            5.3412     4.5387    -1.6605 H       
  46 H46            7.0826     3.8944    -0.0465 H       
  47 H47            6.6591     2.0998     1.5821 H       
  48 H48            4.4870     0.9451     1.6093 H       
  49 H49            2.8081    -2.3808     1.1924 H       
  50 H50            4.9065    -3.6639     1.1587 H       
  51 H51            6.7153    -0.6756    -1.2907 H       
  52 H52            4.6240     0.6193    -1.2732 H       
  53 H53            8.0632    -2.3548    -0.1788 H       
  54 H54            7.3086    -3.6015     0.8433 H       
  55 H55           -1.3164     3.1506     0.0369 H       
  56 H56           -4.7190     0.7081    -0.8371 H       
  57 H57           -5.5290    -0.6027     0.0541 H       
  58 H58           -4.7012     0.6986     0.9428 H       
  59 H59            9.2825    -3.7980    -1.5000 H       
  60 H60            8.7578    -5.2150    -0.5595 H       
  61 H61            8.3011    -4.7851    -3.5472 H       
  62 H62            9.4933    -5.8920    -2.8232 H       
  63 H63            7.6800    -7.1673    -1.7404 H       
  64 H64            5.8294    -5.2095    -3.1782 H       
  65 H65            5.3213    -6.6083    -2.2004 H       
  66 H66            6.4060    -5.6188    -0.2084 H       
  67 H67            5.2034    -4.4984    -0.8911 H       
  68 H68            6.1308    -6.1996    -5.1001 H       
  69 H69            7.3988    -9.9445    -7.6610 H       
  70 H70            6.4744   -10.0905    -9.9618 H       
  71 H71            4.9648    -8.2844   -10.7570 H       
  72 H72            4.4260    -6.4092    -9.2571 H       
@<TRIPOS>BOND
   1    1    2 ar
   2    1    3 ar
   3    1   23 ar
   4    2   20 ar
   5    2    6 ar
   6    3    4 ar
   7    3   43 1
   8    4    5 ar
   9    4    8 1
  10    5    6 ar
  11    5    7 1
  12    7   14 ar
  13    7   18 ar
  14    8    9 ar
  15    8   13 ar
  16    9   10 ar
  17    9   44 1
  18   10   11 ar
  19   10   45 1
  20   11   12 ar
  21   11   46 1
  22   12   13 ar
  23   12   47 1
  24   13   48 1
  25   14   15 ar
  26   14   49 1
  27   15   16 ar
  28   15   50 1
  29   16   17 ar
  30   16   19 1
  31   17   18 ar
  32   17   51 1
  33   18   52 1
  34   19   26 1
  35   19   53 1
  36   19   54 1
  37   20   21 ar
  38   21   22 ar
  39   21   24 1
  40   22   23 ar
  41   23   55 1
  42   24   25 1
  43   25   56 1
  44   25   57 1
  45   25   58 1
  46   26   27 1
  47   26   31 1
  48   27   28 1
  49   27   59 1
  50   27   60 1
  51   28   29 1
  52   28   61 1
  53   28   62 1
  54   29   30 1
  55   29   32 1
  56   29   63 1
  57   30   31 1
  58   30   64 1
  59   30   65 1
  60   31   66 1
  61   31   67 1
  62   32   33 1
  63   32   36 2
  64   33   34 1
  65   33   68 1
  66   34   35 2
  67   34   37 1
  68   35   36 1
  69   37   38 ar
  70   37   42 ar
  71   38   39 ar
  72   38   69 1
  73   39   40 ar
  74   39   70 1
  75   40   41 ar
  76   40   71 1
  77   41   42 ar
  78   41   72 1

#	End of record

