#	Name: ASD05723013
#	Creating user name:	WinNT
#	Creation time:	15. 06. 2019 21:02

#	Modifying user name:	WinNT
#	Modification time:	15. 06. 2019 21:02

#	Program:	/corina/corina34_cracker 3.40 0067  02.08.2006

@<TRIPOS>MOLECULE
ASD05723013
  76   82    0    0    0
SMALL
NO_CHARGES


@<TRIPOS>ATOM
   1 C1             0.9541     1.1947     0.7388 C.3     
   2 N2             0.4650    -0.1300     0.3486 N.am    
   3 C3             1.0532    -0.7934    -0.6664 C.2     
   4 O4             1.9897    -0.2925    -1.2583 O.2     
   5 N5             0.6034    -2.0121    -1.0254 N.am    
   6 C6             1.1373    -2.6514    -2.1469 C.ar    
   7 C7             1.2818    -4.0341    -2.1544 C.ar    
   8 C8             1.8082    -4.6670    -3.2595 C.ar    
   9 C9             2.1958    -3.9192    -4.3715 C.ar    
  10 C10            2.0493    -2.5319    -4.3616 C.ar    
  11 C11            1.5179    -1.9042    -3.2559 C.ar    
  12 C12            2.7625    -4.5970    -5.5607 C.ar    
  13 N13            2.8908    -5.9141    -5.5430 N.ar    
  14 C14            3.3948    -6.5603    -6.5913 C.ar    
  15 C15            3.7908    -5.8196    -7.7228 C.ar    
  16 C16            4.2809    -6.7434    -8.6703 C.2     
  17 N17            4.1927    -7.9406    -8.1644 N.2     
  18 N18            3.6480    -7.8697    -6.8760 N.pl3   
  19 C19            3.3947    -9.0063    -5.9871 C.3     
  20 C20            2.4132    -9.9715    -6.6577 C.3     
  21 C21            2.1997   -11.1858    -5.7510 C.3     
  22 N22            3.4860   -11.8535    -5.5140 N.3     
  23 C23            4.4291   -10.9610    -4.8282 C.3     
  24 C24            4.7092    -9.7400    -5.7073 C.3     
  25 C25            3.3005   -13.1016    -4.7618 C.3     
  26 C26            3.6353    -4.4187    -7.6958 C.ar    
  27 N27            3.1188    -3.8601    -6.6092 N.ar    
  28 N28            4.0079    -3.6457    -8.7781 N.3     
  29 C29            3.7535    -2.2205    -8.5204 C.3     
  30 C30            4.2257    -1.4037    -9.7335 C.3     
  31 O31            5.6538    -1.5997    -9.8542 O.3     
  32 C32            5.4155    -3.8798    -9.1332 C.3     
  33 C33            5.7902    -2.9656   -10.3103 C.3     
  34 C34            3.6397    -2.0617   -11.0053 C.3     
  35 C35            4.6981    -3.1182   -11.3955 C.3     
  36 C36            4.5923   -13.8775    -4.7496 C.ar    
  37 C37            5.5165   -13.6816    -3.7412 C.ar    
  38 N38            6.6493   -14.3569    -3.7238 N.ar    
  39 C39            6.9451   -15.2390    -4.6580 C.ar    
  40 C40            6.0690   -15.4884    -5.6978 C.ar    
  41 C41            4.8661   -14.8012    -5.7470 C.ar    
  42 H42            1.9984     1.1216     1.0421 H       
  43 H43            0.8682     1.8772    -0.1067 H       
  44 H44            0.3594     1.5708     1.5713 H       
  45 H45           -0.2821    -0.5297     0.8209 H       
  46 H46           -0.0912    -2.4454    -0.5050 H       
  47 H47            0.9816    -4.6126    -1.2933 H       
  48 H48            1.9209    -5.7411    -3.2645 H       
  49 H49            2.3487    -1.9507    -5.2212 H       
  50 H50            1.4008    -0.8306    -3.2492 H       
  51 H51            4.6645    -6.4990    -9.6499 H       
  52 H52            2.9698    -8.6478    -5.0495 H       
  53 H53            1.4608    -9.4671    -6.8207 H       
  54 H54            2.8208   -10.2987    -7.6142 H       
  55 H55            1.7793   -10.8594    -4.7998 H       
  56 H56            1.5124   -11.8818    -6.2320 H       
  57 H57            3.9982   -10.6357    -3.8814 H       
  58 H58            5.3611   -11.4937    -4.6390 H       
  59 H59            5.1529   -10.0636    -6.6489 H       
  60 H60            5.3971    -9.0703    -5.1914 H       
  61 H61            3.0068   -12.8688    -3.7383 H       
  62 H62            2.5221   -13.6994    -5.2361 H       
  63 H63            2.6860    -2.0621    -8.3668 H       
  64 H64            4.3024    -1.9063    -7.6327 H       
  65 H65            3.9610    -0.3500    -9.6459 H       
  66 H66            6.0508    -3.6518    -8.2773 H       
  67 H67            5.5505    -4.9219    -9.4230 H       
  68 H68            6.7906    -3.1749   -10.6891 H       
  69 H69            2.6854    -2.5396   -10.7839 H       
  70 H70            3.5244    -1.3240   -11.7994 H       
  71 H71            5.1070    -2.9038   -12.3829 H       
  72 H72            4.2679    -4.1194   -11.3675 H       
  73 H73            5.3090   -12.9670    -2.9585 H       
  74 H74            7.8828   -15.7727    -4.6105 H       
  75 H75            6.3171   -16.2119    -6.4603 H       
  76 H76            4.1623   -14.9754    -6.5475 H       
@<TRIPOS>BOND
   1    1    2 1
   2    1   42 1
   3    1   43 1
   4    1   44 1
   5    2    3 am
   6    2   45 1
   7    3    4 2
   8    3    5 am
   9    5    6 1
  10    5   46 1
  11    6    7 ar
  12    6   11 ar
  13    7    8 ar
  14    7   47 1
  15    8    9 ar
  16    8   48 1
  17    9   10 ar
  18    9   12 1
  19   10   11 ar
  20   10   49 1
  21   11   50 1
  22   12   13 ar
  23   12   27 ar
  24   13   14 ar
  25   14   15 ar
  26   14   18 1
  27   15   16 1
  28   15   26 ar
  29   16   17 2
  30   16   51 1
  31   17   18 1
  32   18   19 1
  33   19   20 1
  34   19   24 1
  35   19   52 1
  36   20   21 1
  37   20   53 1
  38   20   54 1
  39   21   22 1
  40   21   55 1
  41   21   56 1
  42   22   23 1
  43   22   25 1
  44   23   24 1
  45   23   57 1
  46   23   58 1
  47   24   59 1
  48   24   60 1
  49   25   36 1
  50   25   61 1
  51   25   62 1
  52   26   27 ar
  53   26   28 1
  54   28   29 1
  55   28   32 1
  56   29   30 1
  57   29   63 1
  58   29   64 1
  59   30   31 1
  60   30   34 1
  61   30   65 1
  62   31   33 1
  63   32   33 1
  64   32   66 1
  65   32   67 1
  66   33   35 1
  67   33   68 1
  68   34   35 1
  69   34   69 1
  70   34   70 1
  71   35   71 1
  72   35   72 1
  73   36   37 ar
  74   36   41 ar
  75   37   38 ar
  76   37   73 1
  77   38   39 ar
  78   39   40 ar
  79   39   74 1
  80   40   41 ar
  81   40   75 1
  82   41   76 1

#	End of record

