#	Name: ASD01910156
#	Creating user name:	WinNT
#	Creation time:	15. 06. 2019 19:55

#	Modifying user name:	WinNT
#	Modification time:	15. 06. 2019 19:55

#	Program:	/corina/corina34_cracker 3.40 0067  02.08.2006

@<TRIPOS>MOLECULE
ASD01910156
  44   46    0    0    0
SMALL
NO_CHARGES


@<TRIPOS>ATOM
   1 C1             0.0497     1.2886     0.1374 C.ar    
   2 C2            -1.0351     1.7060    -0.6120 C.ar    
   3 C3            -0.9434     2.8416    -1.4013 C.ar    
   4 C4             0.2343     3.5628    -1.4435 C.ar    
   5 C5             1.3316     3.1450    -0.6886 C.ar    
   6 C6             1.2311     2.0006     0.1040 C.ar    
   7 C7             2.5950     3.9112    -0.7290 C.2     
   8 N8             3.6528     3.5053     0.0010 N.am    
   9 C9             4.8764     4.1734    -0.1097 C.ar    
  10 C10            4.9028     5.5476    -0.2990 C.ar    
  11 C11            6.1191     6.2068    -0.4079 C.ar    
  12 C12            7.3060     5.4893    -0.3271 C.ar    
  13 C13            7.2763     4.1207    -0.1390 C.ar    
  14 C14            6.0674     3.4623    -0.0245 C.ar    
  15 N15            6.1501     7.5918    -0.5992 N.am    
  16 C16            7.1240     8.3292    -0.0298 C.2     
  17 C17            7.0995     9.7994    -0.1462 C.ar    
  18 C18            6.0690    10.4317    -0.8456 C.ar    
  19 C19            6.0517    11.8059    -0.9503 C.ar    
  20 C20            7.0524    12.5639    -0.3652 C.ar    
  21 C21            8.0772    11.9517     0.3292 C.ar    
  22 C22            8.1073    10.5707     0.4495 C.ar    
  23 O23            9.1131     9.9680     1.1317 O.3     
  24 C24           10.1104    10.8177     1.7022 C.3     
  25 O25            2.6800     4.9073    -1.4205 O.2     
  26 O26            8.0228     7.7824     0.5800 O.2     
  27 F27           -2.0071     3.2436    -2.1309 F       
  28 H28           -0.0296     0.4054     0.7540 H       
  29 H29           -1.9573     1.1447    -0.5824 H       
  30 H30            0.3058     4.4473    -2.0591 H       
  31 H31            2.0769     1.6728     0.6901 H       
  32 H32            3.5655     2.7499     0.6031 H       
  33 H33            3.9787     6.1030    -0.3618 H       
  34 H34            8.2529     6.0017    -0.4118 H       
  35 H35            8.2004     3.5652    -0.0769 H       
  36 H36            6.0475     2.3926     0.1228 H       
  37 H37            5.4706     8.0218    -1.1417 H       
  38 H38            5.2870     9.8446    -1.3041 H       
  39 H39            5.2544    12.2938    -1.4914 H       
  40 H40            7.0313    13.6402    -0.4529 H       
  41 H41            8.8541    12.5497     0.7823 H       
  42 H42           10.5950    11.3907     0.9117 H       
  43 H43            9.6432    11.5006     2.4118 H       
  44 H44           10.8536    10.2099     2.2183 H       
@<TRIPOS>BOND
   1    1    2 ar
   2    1    6 ar
   3    1   28 1
   4    2    3 ar
   5    2   29 1
   6    3    4 ar
   7    3   27 1
   8    4    5 ar
   9    4   30 1
  10    5    6 ar
  11    5    7 1
  12    6   31 1
  13    7    8 am
  14    7   25 2
  15    8    9 1
  16    8   32 1
  17    9   10 ar
  18    9   14 ar
  19   10   11 ar
  20   10   33 1
  21   11   12 ar
  22   11   15 1
  23   12   13 ar
  24   12   34 1
  25   13   14 ar
  26   13   35 1
  27   14   36 1
  28   15   16 am
  29   15   37 1
  30   16   17 1
  31   16   26 2
  32   17   18 ar
  33   17   22 ar
  34   18   19 ar
  35   18   38 1
  36   19   20 ar
  37   19   39 1
  38   20   21 ar
  39   20   40 1
  40   21   22 ar
  41   21   41 1
  42   22   23 1
  43   23   24 1
  44   24   42 1
  45   24   43 1
  46   24   44 1

#	End of record

