#	Name: ASD03090208
#	Creating user name:	WinNT
#	Creation time:	15. 06. 2019 20:28

#	Modifying user name:	WinNT
#	Modification time:	15. 06. 2019 20:28

#	Program:	/corina/corina34_cracker 3.40 0067  02.08.2006

@<TRIPOS>MOLECULE
ASD03090208
  46   49    0    0    0
SMALL
NO_CHARGES


@<TRIPOS>ATOM
   1 C1            -0.2695     0.9554    -0.8477 C.ar    
   2 C2            -0.1359    -0.1803    -0.0594 C.ar    
   3 C3             1.1004    -0.7659     0.1112 C.ar    
   4 C4             2.2233    -0.2173    -0.5097 C.ar    
   5 C5             2.0904     0.9240    -1.3008 C.ar    
   6 C6             0.8469     1.5087    -1.4673 C.ar    
   7 C7             3.5507    -0.8440    -0.3293 C.2     
   8 N8             7.0651    -0.8690    -0.4202 N.pl3   
   9 C9             7.4936     0.3403    -0.9738 C.ar    
  10 C10            6.7259     0.9728    -1.9433 C.ar    
  11 C11            7.1522     2.1683    -2.4881 C.ar    
  12 C12            8.3417     2.7355    -2.0694 C.ar    
  13 C13            9.1088     2.1082    -1.1046 C.ar    
  14 C14            8.6858     0.9158    -0.5516 C.ar    
  15 N15            4.7161    -0.2729    -0.5615 N.2     
  16 C16            5.7001    -1.1323    -0.2897 C.2     
  17 N17            5.1784    -2.2651     0.1202 N.2     
  18 N18            3.7837    -2.1019     0.1085 N.pl3   
  19 C19            2.7799    -3.0994     0.4874 C.3     
  20 C20            2.5430    -3.0364     1.9976 C.3     
  21 C21            1.5345    -4.0387     2.3784 C.1     
  22 O22            0.7343     2.6265    -2.2362 O.3     
  23 C23           -0.5813     2.9696    -2.6846 C.3     
  24 C24           -1.5396     2.8598    -1.4910 C.3     
  25 O25           -1.5009     1.5119    -1.0087 O.3     
  26 N26            0.7562    -4.8123     2.6722 N.1     
  27 C27           10.4050     2.7297    -0.6521 C.3     
  28 F28           10.6156     3.9261    -1.3459 F       
  29 F29           10.3424     2.9915     0.7208 F       
  30 F30           11.4602     1.8484    -0.9112 F       
  31 H31           -1.0038    -0.6061     0.4221 H       
  32 H32            1.1999    -1.6486     0.7255 H       
  33 H33            2.9572     1.3510    -1.7833 H       
  34 H34            7.7160    -1.5256    -0.1265 H       
  35 H35            5.7969     0.5302    -2.2711 H       
  36 H36            6.5560     2.6605    -3.2422 H       
  37 H37            8.6727     3.6704    -2.4971 H       
  38 H38            9.2851     0.4266     0.2020 H       
  39 H39            1.8464    -2.8924    -0.0358 H       
  40 H40            3.1355    -4.0936     0.2166 H       
  41 H41            3.4766    -3.2434     2.5208 H       
  42 H42            2.1875    -2.0422     2.2684 H       
  43 H43           -0.5850     3.9906    -3.0663 H       
  44 H44           -0.8928     2.2816    -3.4706 H       
  45 H45           -1.2243     3.5429    -0.7023 H       
  46 H46           -2.5525     3.1070    -1.8089 H       
@<TRIPOS>BOND
   1    1    2 ar
   2    1    6 ar
   3    1   25 1
   4    2    3 ar
   5    2   31 1
   6    3    4 ar
   7    3   32 1
   8    4    5 ar
   9    4    7 1
  10    5    6 ar
  11    5   33 1
  12    6   22 1
  13    7   15 2
  14    7   18 1
  15    8    9 1
  16    8   16 1
  17    8   34 1
  18    9   10 ar
  19    9   14 ar
  20   10   11 ar
  21   10   35 1
  22   11   12 ar
  23   11   36 1
  24   12   13 ar
  25   12   37 1
  26   13   14 ar
  27   13   27 1
  28   14   38 1
  29   15   16 1
  30   16   17 2
  31   17   18 1
  32   18   19 1
  33   19   20 1
  34   19   39 1
  35   19   40 1
  36   20   21 1
  37   20   41 1
  38   20   42 1
  39   21   26 3
  40   22   23 1
  41   23   24 1
  42   23   43 1
  43   23   44 1
  44   24   25 1
  45   24   45 1
  46   24   46 1
  47   27   28 1
  48   27   29 1
  49   27   30 1

#	End of record

