#	Name: ASD00960186
#	Creating user name:	WinNT
#	Creation time:	15. 06. 2019 18:53

#	Modifying user name:	WinNT
#	Modification time:	15. 06. 2019 18:53

#	Program:	/corina/corina34_cracker 3.40 0067  02.08.2006

@<TRIPOS>MOLECULE
ASD00960186
  37   40    0    0    0
SMALL
NO_CHARGES


@<TRIPOS>ATOM
   1 C1            -0.0168     1.3877     0.0097 C.2     
   2 C2             0.0021    -0.0041     0.0020 C.2     
   3 N3             1.2762     1.8323    -0.0003 N.pl3   
   4 C4             2.1102     0.7428    -0.0141 C.2     
   5 C5             1.3266    -0.4041    -0.0128 C.2     
   6 N6             1.8454     3.1134     0.0007 N.2     
   7 C7             3.1536     3.2511    -0.0114 C.2     
   8 N8             3.9753     2.1948    -0.0253 N.2     
   9 C9             3.5105     0.9597    -0.0259 C.2     
  10 N10            4.3812    -0.1120    -0.0400 N.pl3   
  11 C11            3.7334     4.6133    -0.0100 C.2     
  12 N12            3.0534     5.7845     0.0027 N.pl3   
  13 N13            3.9304     6.7306    -0.0011 N.2     
  14 N14            5.1079     6.2119    -0.0153 N.2     
  15 N15            5.0152     4.9269    -0.0152 N.2     
  16 C16           -1.2119     2.2284     0.0202 C.2     
  17 O17           -2.3157     1.7166     0.0233 O.2     
  18 O18           -1.0914     3.5725     0.0264 O.3     
  19 C19           -2.3015     4.3323     0.0365 C.3     
  20 C20           -1.9714     5.8027     0.0423 C.ar    
  21 C21           -1.8262     6.4832    -1.1522 C.ar    
  22 C22           -1.5234     7.8319    -1.1469 C.ar    
  23 C23           -1.3661     8.5003     0.0528 C.ar    
  24 C24           -1.5122     7.8201     1.2473 C.ar    
  25 C25           -1.8193     6.4723     1.2421 C.ar    
  26 H26           -0.8606    -0.6538     0.0071 H       
  27 H27            1.6857    -1.4227    -0.0213 H       
  28 H28            5.3390     0.0413    -0.0497 H       
  29 H29            4.0351    -1.0182    -0.0404 H       
  30 H30            2.0894     5.8917     0.0122 H       
  31 H31           -2.8871     4.0949    -0.8516 H       
  32 H32           -2.8778     4.0859     0.9283 H       
  33 H33           -1.9491     5.9610    -2.0895 H       
  34 H34           -1.4092     8.3634    -2.0801 H       
  35 H35           -1.1288     9.5539     0.0570 H       
  36 H36           -1.3890     8.3422     2.1847 H       
  37 H37           -1.9371     5.9416     2.1753 H       
@<TRIPOS>BOND
   1    1    2 2
   2    1    3 1
   3    1   16 1
   4    2    5 1
   5    2   26 1
   6    3    4 1
   7    3    6 1
   8    4    5 2
   9    4    9 1
  10    5   27 1
  11    6    7 2
  12    7    8 1
  13    7   11 1
  14    8    9 2
  15    9   10 1
  16   10   28 1
  17   10   29 1
  18   11   12 1
  19   11   15 2
  20   12   13 1
  21   12   30 1
  22   13   14 2
  23   14   15 1
  24   16   17 2
  25   16   18 1
  26   18   19 1
  27   19   20 1
  28   19   31 1
  29   19   32 1
  30   20   21 ar
  31   20   25 ar
  32   21   22 ar
  33   21   33 1
  34   22   23 ar
  35   22   34 1
  36   23   24 ar
  37   23   35 1
  38   24   25 ar
  39   24   36 1
  40   25   37 1

#	End of record

