#	Name: ASD02508071
#	Creating user name:	WinNT
#	Creation time:	15. 06. 2019 20:23

#	Modifying user name:	WinNT
#	Modification time:	15. 06. 2019 20:23

#	Program:	/corina/corina34_cracker 3.40 0067  02.08.2006

@<TRIPOS>MOLECULE
ASD02508071
  30   32    0    0    0
SMALL
NO_CHARGES


@<TRIPOS>ATOM
   1 C1            -0.0178     1.3804     0.0147 C.ar    
   2 C2             0.0059    -0.0017     0.1248 C.ar    
   3 C3             1.1732     2.0937    -0.1130 C.ar    
   4 C4             2.3833     1.4177    -0.1299 C.ar    
   5 C5             2.4043     0.0358    -0.0199 C.ar    
   6 C6             1.2135    -0.6734     0.1080 C.ar    
   7 N7            -1.0502     2.3214    -0.0062 N.am    
   8 C8            -0.4855     3.5383    -0.1349 C.2     
   9 O9             0.8487     3.4075    -0.2004 O.3     
  10 N10            3.6265    -0.6480    -0.0368 N.am    
  11 S11            4.9628     0.0269     0.6711 S.o2    
  12 C12            4.5840     0.2696     2.3747 C.2     
  13 S13            3.8613     1.7211     3.0560 S.3     
  14 O14           -1.0912     4.5915    -0.1877 O.2     
  15 O15            5.9838    -0.9603     0.6237 O.2     
  16 O16            5.1068     1.3217     0.1037 O.2     
  17 C17           -2.4839     2.0374     0.0935 C.3     
  18 F18            1.2382    -2.0199     0.2153 F       
  19 C19            4.7963    -0.6217     3.3442 C.2     
  20 C20            4.4172    -0.2084     4.6097 C.2     
  21 C21            3.8952     1.0177     4.6677 C.2     
  22 H22           -0.9179    -0.5523     0.2240 H       
  23 H23            3.3082     1.9665    -0.2290 H       
  24 H24            3.6902    -1.5169    -0.4633 H       
  25 H25           -2.7847     2.0497     1.1411 H       
  26 H26           -3.0435     2.7957    -0.4541 H       
  27 H27           -2.6903     1.0554    -0.3322 H       
  28 H28            5.2307    -1.5924     3.1559 H       
  29 H29            4.5334    -0.8322     5.4836 H       
  30 H30            3.5455     1.5037     5.5666 H       
@<TRIPOS>BOND
   1    1    2 ar
   2    1    3 ar
   3    1    7 1
   4    2    6 ar
   5    2   22 1
   6    3    4 ar
   7    3    9 1
   8    4    5 ar
   9    4   23 1
  10    5    6 ar
  11    5   10 1
  12    6   18 1
  13    7    8 am
  14    7   17 1
  15    8    9 1
  16    8   14 2
  17   10   11 am
  18   10   24 1
  19   11   12 1
  20   11   15 2
  21   11   16 2
  22   12   13 1
  23   12   19 2
  24   13   21 1
  25   17   25 1
  26   17   26 1
  27   17   27 1
  28   19   20 1
  29   19   28 1
  30   20   21 2
  31   20   29 1
  32   21   30 1

#	End of record

