#	Name: ASD00100154
#	Creating user name:	WinNT
#	Creation time:	15. 06. 2019 18:30

#	Modifying user name:	WinNT
#	Modification time:	15. 06. 2019 18:30

#	Program:	/corina/corina34_cracker 3.40 0067  02.08.2006

@<TRIPOS>MOLECULE
ASD00100154
  42   43    0    0    0
SMALL
NO_CHARGES


@<TRIPOS>ATOM
   1 N1            -0.1245     1.5351     0.3557 N.pl3   
   2 C2            -0.0179     0.1664     0.1769 C.2     
   3 N3             1.1017    -0.4999     0.0324 N.2     
   4 C4             0.8185    -1.8179    -0.1191 C.2     
   5 C5            -0.5284    -1.9638    -0.0652 C.2     
   6 N6            -1.0579    -0.7098     0.1279 N.pl3   
   7 C7            -2.4792    -0.3778     0.2538 C.3     
   8 C8            -3.0242     0.0168    -1.0946 C.ar    
   9 C9            -3.4570    -0.9588    -1.9812 C.ar    
  10 C10           -3.9581    -0.5923    -3.2217 C.ar    
  11 C11           -4.0252     0.7427    -3.5714 C.ar    
  12 C12           -3.5930     1.7128    -2.6864 C.ar    
  13 C13           -3.0987     1.3504    -1.4467 C.ar    
  14 O14           -3.3895    -2.2712    -1.6351 O.3     
  15 C15           -3.8527    -3.2206    -2.5975 C.3     
  16 C16            1.8077    -2.9069    -0.3100 C.ar    
  17 C17            3.1701    -2.6141    -0.3456 C.ar    
  18 C18            4.0877    -3.6279    -0.5232 C.ar    
  19 C19            3.6551    -4.9409    -0.6671 C.ar    
  20 C20            2.2972    -5.2351    -0.6324 C.ar    
  21 C21            1.3764    -4.2253    -0.4483 C.ar    
  22 N22            4.5865    -5.9663    -0.8474 N.pl3   
  23 H23            0.6757     2.0777     0.4340 H       
  24 H24           -0.9993     1.9519     0.3988 H       
  25 H25           -1.0795    -2.8885    -0.1526 H       
  26 H26           -3.0235    -1.2458     0.6259 H       
  27 H27           -2.5981     0.4518     0.9507 H       
  28 H28           -4.2952    -1.3499    -3.9136 H       
  29 H29           -4.4153     1.0285    -4.5370 H       
  30 H30           -3.6456     2.7557    -2.9619 H       
  31 H31           -2.7662     2.1104    -0.7552 H       
  32 H32           -3.2652    -3.1281    -3.5110 H       
  33 H33           -3.7435    -4.2280    -2.1958 H       
  34 H34           -4.9026    -3.0300    -2.8198 H       
  35 H35            3.5067    -1.5939    -0.2346 H       
  36 H36            5.1434    -3.4015    -0.5509 H       
  37 H37            1.9632    -6.2560    -0.7447 H       
  38 H38            0.3216    -4.4550    -0.4162 H       
  39 H39            5.5344    -5.7617    -0.8720 H       
  40 H40            4.2854    -6.8829    -0.9479 H       
  41 Cl41          10.5344     7.7557     5.9507 Cl      
  42 H42           10.5344     9.1257     5.9507 H       
@<TRIPOS>BOND
   1    1    2 1
   2    1   23 1
   3    1   24 1
   4    2    3 2
   5    2    6 1
   6    3    4 1
   7    4    5 2
   8    4   16 1
   9    5    6 1
  10    5   25 1
  11    6    7 1
  12    7    8 1
  13    7   26 1
  14    7   27 1
  15    8    9 ar
  16    8   13 ar
  17    9   10 ar
  18    9   14 1
  19   10   11 ar
  20   10   28 1
  21   11   12 ar
  22   11   29 1
  23   12   13 ar
  24   12   30 1
  25   13   31 1
  26   14   15 1
  27   15   32 1
  28   15   33 1
  29   15   34 1
  30   16   17 ar
  31   16   21 ar
  32   17   18 ar
  33   17   35 1
  34   18   19 ar
  35   18   36 1
  36   19   20 ar
  37   19   22 1
  38   20   21 ar
  39   20   37 1
  40   21   38 1
  41   22   39 1
  42   22   40 1
  43   41   42 1

#	End of record

