#	Name: ASD06150001
#	Creating user name:	WinNT
#	Creation time:	15. 06. 2019 21:05

#	Modifying user name:	WinNT
#	Modification time:	15. 06. 2019 21:05

#	Program:	/corina/corina34_cracker 3.40 0067  02.08.2006

@<TRIPOS>MOLECULE
ASD06150001
 347  349    0    0    0
SMALL
NO_CHARGES


@<TRIPOS>ATOM
   1 C1            -9.8346    -2.7713   -15.6537 C.3     
   2 C2            -8.8433    -3.2345   -14.5844 C.3     
   3 C3            -8.9812    -2.3651   -13.3612 C.2     
   4 N4            -9.1249    -4.6273   -14.2279 N.am    
   5 O5            -9.2849    -2.8602   -12.2965 O.2     
   6 C6            -9.6132    -3.5593   -16.9191 C.ar    
   7 C7           -10.2985    -4.7419   -17.1257 C.ar    
   8 C8           -10.0953    -5.4648   -18.2863 C.ar    
   9 C9            -9.2072    -5.0048   -19.2406 C.ar    
  10 C10           -8.5227    -3.8217   -19.0344 C.ar    
  11 C11           -8.7290    -3.0966   -17.8757 C.ar    
  12 C12           -9.1457   -14.0518   -15.7741 C.3     
  13 C13           -8.4905   -13.7757   -17.1288 C.3     
  14 C14           -9.5508   -13.7240   -18.1984 C.2     
  15 N15           -7.7834   -12.4891   -17.0776 N.3     
  16 O16           -9.7019   -12.7191   -18.8508 O.2     
  17 C17           -8.0612   -14.2281   -14.7094 C.3     
  18 C18           -8.7157   -14.3799   -13.3348 C.3     
  19 C19           -7.2372   -15.4786   -15.0229 C.3     
  20 C20           -7.9909    -9.4794   -18.1132 C.3     
  21 C21           -7.9932   -10.1158   -16.7219 C.3     
  22 C22           -8.6900    -9.1980   -15.7508 C.2     
  23 N23           -8.7002   -11.4025   -16.7731 N.3     
  24 O24           -9.6784    -9.5782   -15.1596 O.2     
  25 S25           -7.1521   -10.5843   -19.2821 S.3     
  26 C26          -11.2166     3.6871   -12.3633 C.3     
  27 C27           -9.7068     3.5487   -12.1581 C.3     
  28 C28           -9.2555     4.5076   -11.0867 C.2     
  29 N29           -9.3931     2.1772   -11.7495 N.am    
  30 O30           -8.8902     4.0857   -10.0099 O.2     
  31 C31          -11.6527     2.8168   -13.5436 C.3     
  32 C32          -11.9470     3.2334   -11.0978 C.3     
  33 C33           -7.4695     7.4385   -10.8673 C.3     
  34 C34           -8.7272     6.7597   -10.3211 C.3     
  35 C35           -9.7649     7.8055   -10.0038 C.2     
  36 N36           -9.2578     5.8341   -11.3251 N.am    
  37 O37          -10.8417     7.7801   -10.5614 O.2     
  38 C38           -6.3826     6.4106   -11.0491 C.2     
  39 N39           -5.1681     6.7861   -11.4968 N.am    
  40 O40           -6.6008     5.2455   -10.7925 O.2     
  41 C41           -8.3851    -7.3387   -13.1786 C.3     
  42 C42           -8.8924    -7.0623   -14.5953 C.3     
  43 C43           -8.6027    -5.6296   -14.9620 C.2     
  44 N44           -8.2149    -7.9546   -15.5393 N.am    
  45 O45           -7.8995    -5.3786   -15.9178 O.2     
  46 C46           -8.7890    -8.7536   -12.7592 C.3     
  47 C47           -8.2893    -9.0258   -11.3638 C.2     
  48 O48           -7.6710    -8.1722   -10.7637 O.2     
  49 N49           -8.5295   -10.2179   -10.7826 N.am    
  50 C50           -7.5876    -0.2031   -11.4772 C.3     
  51 C51           -8.9013    -0.1923   -12.2613 C.3     
  52 C52           -9.2239     1.2185   -12.6816 C.2     
  53 N53           -8.7672    -1.0374   -13.4504 N.am    
  54 O54           -9.3312     1.4912   -13.8584 O.2     
  55 C55           -7.3273    -1.5915   -10.9522 C.ar    
  56 C56           -6.6112    -2.4950   -11.7155 C.ar    
  57 C57           -6.3713    -3.7683   -11.2365 C.ar    
  58 C58           -6.8495    -4.1402    -9.9884 C.ar    
  59 C59           -7.5678    -3.2319    -9.2245 C.ar    
  60 C60           -7.8002    -1.9579    -9.7056 C.ar    
  61 O61           -6.6152    -5.3925    -9.5152 O.3     
  62 C62          -15.7116    19.2236   -11.6884 C.3     
  63 C63          -14.2856    19.6374   -11.3194 C.3     
  64 C64          -14.2985    21.0338   -10.7527 C.2     
  65 N65          -13.7511    18.7096   -10.3197 N.am    
  66 O66          -13.9004    21.2341    -9.6248 O.2     
  67 C67          -15.6842    17.8579   -12.3775 C.3     
  68 C68          -17.0887    17.4502   -12.7410 C.2     
  69 O69          -18.0165    18.1775   -12.4760 O.2     
  70 O70          -17.3091    16.2793   -13.3590 O.3     
  71 C71          -13.3943    24.0646   -11.1559 C.3     
  72 C72          -14.7650    23.4173   -10.9484 C.3     
  73 C73          -15.8181    24.2349   -11.6509 C.2     
  74 N74          -14.7524    22.0599   -11.4993 N.am    
  75 O75          -16.4919    23.7331   -12.5257 O.2     
  76 C76          -12.3439    23.3069   -10.3414 C.3     
  77 C77          -10.9560    23.8747   -10.6450 C.3     
  78 C78          -12.6442    23.4644    -8.8495 C.3     
  79 C79          -10.2833    10.2031    -7.2823 C.3     
  80 C80          -10.5411     9.7192    -8.7107 C.3     
  81 C81          -10.5248    10.8970    -9.6506 C.2     
  82 N82           -9.4965     8.7689    -9.1004 N.am    
  83 O83           -9.7198    10.9385   -10.5569 O.2     
  84 C84          -10.4141     9.0441    -6.3280 C.2     
  85 O85          -10.7848     7.9675    -6.7323 O.2     
  86 O86          -10.1189     9.2078    -5.0288 O.3     
  87 C87          -12.2213    12.7226   -11.6394 C.3     
  88 C88          -11.3888    13.0493   -10.3980 C.3     
  89 C89          -11.9721    14.2535    -9.7046 C.2     
  90 N90          -11.4047    11.9043    -9.4842 N.am    
  91 O91          -12.3626    14.1641    -8.5599 O.2     
  92 C92          -11.5591    11.5795   -12.4113 C.3     
  93 C93          -12.3791    11.2578   -13.6341 C.2     
  94 O94          -13.3933    11.8813   -13.8654 O.2     
  95 N95          -11.9854    10.2771   -14.4705 N.am    
  96 C96          -11.5350    17.2996    -8.8701 C.3     
  97 C97          -12.6267    16.6004    -9.6826 C.3     
  98 C98          -13.1766    17.5549   -10.7110 C.2     
  99 N99          -12.0597    15.4297   -10.3567 N.am    
 100 O100         -13.1022    17.2839   -11.8909 O.2     
 101 C101         -11.0639    16.3742    -7.7464 C.3     
 102 C102          -9.9722    17.0734    -6.9339 C.3     
 103 C103          -9.5011    16.1480    -5.8102 C.3     
 104 N104          -8.4529    16.8193    -5.0301 N.3     
 105 C105         -22.9082    42.6909   -17.4480 C.3     
 106 C106         -22.4424    43.0760   -16.0424 C.3     
 107 C107         -23.2535    44.2457   -15.5473 C.2     
 108 N108         -22.6249    41.9377   -15.1385 N.am    
 109 O109         -23.9185    44.1390   -14.5387 O.2     
 110 C110         -22.0044    41.5867   -18.0001 C.3     
 111 C111         -22.4632    41.2073   -19.3845 C.2     
 112 O112         -23.4190    41.7652   -19.8807 O.2     
 113 N113         -21.8114    40.2481   -20.0712 N.am    
 114 C114         -23.2244    47.3180   -14.6949 C.3     
 115 C115         -24.0284    46.5474   -15.7441 C.3     
 116 C116         -24.3512    47.4598   -16.8993 C.2     
 117 N117         -23.2399    45.4104   -16.2254 N.am    
 118 O118         -23.9610    47.1870   -18.0148 O.2     
 119 N119         -21.9884    46.3509   -11.2449 N.pl3   
 120 C120         -21.2863    46.8323   -10.1653 C.2     
 121 N121         -21.0983    46.0762    -9.1204 N.2     
 122 N122         -20.7826    48.1114   -10.1878 N.pl3   
 123 C123         -23.0037    46.4303   -13.4684 C.3     
 124 C124         -22.1997    47.2009   -12.4193 C.3     
 125 C125         -26.6442    48.9618   -18.5279 C.3     
 126 C126         -25.3872    49.4657   -17.8158 C.3     
 127 C127         -25.6268    50.8618   -17.3016 C.2     
 128 N128         -25.0734    48.5788   -16.6928 N.am    
 129 O129         -25.5436    51.0932   -16.1140 O.2     
 130 O130         -27.7634    49.0595   -17.6448 O.3     
 131 C131         -18.3907    26.0890   -11.3188 C.3     
 132 C132         -17.0351    26.3184   -11.9900 C.3     
 133 C133         -16.6746    27.7794   -11.9078 C.2     
 134 N134         -16.0113    25.5236   -11.3071 N.am    
 135 O135         -15.6622    28.1229   -11.3351 O.2     
 136 O136         -18.3513    26.5918    -9.9817 O.3     
 137 C137         -16.1672    30.4778   -13.5287 C.3     
 138 C138         -17.1269    30.1244   -12.3907 C.3     
 139 C139         -18.3768    30.9577   -12.5107 C.2     
 140 N140         -17.4773    28.7042   -12.4706 N.am    
 141 O141         -19.4542    30.4184   -12.6493 O.2     
 142 S142         -14.6627    29.4747   -13.3842 S.3     
 143 C143         -20.3033    33.2039   -11.3940 C.3     
 144 C144         -19.4950    33.1152   -12.6900 C.3     
 145 C145         -19.0879    34.4998   -13.1238 C.2     
 146 N146         -18.2974    32.3023   -12.4639 N.am    
 147 O147         -17.9281    34.8448   -13.0407 O.2     
 148 C148         -21.5191    34.1068   -11.6119 C.3     
 149 C149         -22.4802    33.4389   -12.5974 C.3     
 150 C150         -19.4263    33.7884   -10.2849 C.3     
 151 C151         -19.0992    36.7022   -15.4293 C.3     
 152 C152         -19.6232    36.7127   -13.9919 C.3     
 153 C153         -20.8200    37.6239   -13.9002 C.2     
 154 N154         -20.0125    35.3547   -13.6041 N.am    
 155 O155         -21.8926    37.1824   -13.5457 O.2     
 156 C156         -17.8124    35.8773   -15.4971 C.3     
 157 S157         -17.1912    35.8649   -17.2013 S.3     
 158 C158         -15.6887    34.8556   -17.0806 C.3     
 159 C159         -22.0077    40.3226   -12.6867 C.3     
 160 C160         -21.8619    39.8152   -14.1228 C.3     
 161 C161         -21.6742    40.9862   -15.0526 C.2     
 162 N162         -20.6985    38.9294   -14.2120 N.am    
 163 O163         -20.6677    41.0723   -15.7238 O.2     
 164 C164         -22.3176    39.1644   -11.7738 C.ar    
 165 C165         -21.2874    38.4621   -11.1759 C.ar    
 166 C166         -21.5688    37.4000   -10.3386 C.ar    
 167 C167         -22.8863    37.0382   -10.0978 C.ar    
 168 C168         -23.9181    37.7445   -10.6988 C.ar    
 169 C169         -23.6316    38.8094   -11.5309 C.ar    
 170 O170         -23.1657    35.9934    -9.2748 O.3     
 171 C171         -25.8783    54.2203   -18.7743 C.3     
 172 C172         -26.1664    53.2105   -17.6615 C.3     
 173 C173         -27.6014    53.3443   -17.2211 C.2     
 174 N174         -25.9335    51.8533   -18.1615 N.am    
 175 O175         -28.3521    52.4030   -17.3150 O.2     
 176 S176         -24.1510    54.0594   -19.3045 S.3     
 177 H177         -10.8528    -2.9318   -15.2992 H       
 178 H178          -9.6829    -1.7108   -15.8549 H       
 179 H179          -7.8277    -3.1570   -14.9725 H       
 180 H180          -9.6873    -4.8280   -13.4634 H       
 181 H181         -10.9923    -5.1013   -16.3801 H       
 182 H182         -10.6302    -6.3891   -18.4474 H       
 183 H183          -9.0480    -5.5699   -20.1470 H       
 184 H184          -7.8286    -3.4625   -19.7798 H       
 185 H185          -8.1970    -2.1704   -17.7162 H       
 186 H186          -9.7877   -13.2136   -15.5034 H       
 187 H187          -9.7433   -14.9612   -15.8381 H       
 188 H188          -7.7814   -14.5711   -17.3583 H       
 189 H189         -10.1756   -14.5857   -18.3816 H       
 190 H190          -7.0251   -12.5195   -16.4127 H       
 191 H191          -7.4091   -13.3546   -14.7069 H       
 192 H192          -9.3677   -15.2534   -13.3374 H       
 193 H193          -7.9430   -14.5055   -12.5764 H       
 194 H194          -9.3027   -13.4890   -13.1115 H       
 195 H195          -6.7709   -15.3705   -16.0021 H       
 196 H196          -6.4646   -15.6042   -14.2644 H       
 197 H197          -7.8893   -16.3521   -15.0254 H       
 198 H198          -9.0179    -9.3169   -18.4401 H       
 199 H199          -7.4663    -8.5248   -18.0752 H       
 200 H200          -6.9661   -10.2784   -16.3950 H       
 201 H201          -9.4586   -11.3721   -17.4380 H       
 202 H202          -7.2244    -9.9082   -20.4426 H       
 203 H203         -11.4612     4.7290   -12.5702 H       
 204 H204          -9.1909     3.7770   -13.0907 H       
 205 H205          -9.3073     1.9592   -10.8083 H       
 206 H206         -12.7284     2.9153   -13.6898 H       
 207 H207         -11.1324     3.1400   -14.4452 H       
 208 H208         -11.4082     1.7749   -13.3367 H       
 209 H209         -11.7715     2.1695   -10.9386 H       
 210 H210         -11.5737     3.7954   -10.2416 H       
 211 H211         -13.0162     3.4122   -11.2115 H       
 212 H212          -7.6950     7.9026   -11.8274 H       
 213 H213          -7.1342     8.2015   -10.1647 H       
 214 H214          -8.4779     6.2085    -9.4144 H       
 215 H215          -9.6107     6.1760   -12.1614 H       
 216 H216          -4.9936     7.7179   -11.7020 H       
 217 H217          -4.4685     6.1245   -11.6138 H       
 218 H218          -7.2989    -7.2497   -13.1578 H       
 219 H219          -8.8221    -6.6166   -12.4889 H       
 220 H220          -9.9673    -7.2378   -14.6370 H       
 221 H221          -7.4245    -7.6505   -16.0122 H       
 222 H222          -9.8751    -8.8426   -12.7800 H       
 223 H223          -8.3520    -9.4757   -13.4489 H       
 224 H224          -9.0240   -10.9006   -11.2625 H       
 225 H225          -8.2079   -10.3931    -9.8844 H       
 226 H226          -6.7703     0.0964   -12.1333 H       
 227 H227          -7.6571     0.4940   -10.6421 H       
 228 H228          -9.7036    -0.5762   -11.6313 H       
 229 H229          -8.5243    -0.6415   -14.3020 H       
 230 H230          -6.2394    -2.2051   -12.6871 H       
 231 H231          -5.8121    -4.4738   -11.8332 H       
 232 H232          -7.9412    -3.5190    -8.2526 H       
 233 H233          -8.3555    -1.2490    -9.1095 H       
 234 H234          -5.7967    -5.4740    -9.0068 H       
 235 H235         -16.3176    19.1623   -10.7844 H       
 236 H236         -16.1412    19.9630   -12.3643 H       
 237 H237         -13.6581    19.6127   -12.2103 H       
 238 H238         -13.8106    18.9262    -9.3761 H       
 239 H239         -15.0782    17.9191   -13.2815 H       
 240 H240         -15.2546    17.1184   -11.7016 H       
 241 H241         -18.2268    16.0612   -13.5720 H       
 242 H242         -13.1310    24.0270   -12.2130 H       
 243 H243         -13.4294    25.1032   -10.8270 H       
 244 H244         -14.9891    23.3748    -9.8825 H       
 245 H245         -15.0709    21.8997   -12.4015 H       
 246 H246         -12.3703    22.2503   -10.6078 H       
 247 H247         -10.9295    24.9314   -10.3787 H       
 248 H248         -10.2076    23.3349   -10.0648 H       
 249 H249         -10.7420    23.7625   -11.7079 H       
 250 H250         -12.6177    24.5211    -8.5832 H       
 251 H251         -13.6330    23.0599    -8.6332 H       
 252 H252         -11.8959    22.9246    -8.2693 H       
 253 H253          -9.2773    10.6173    -7.2150 H       
 254 H254         -11.0109    10.9719    -7.0221 H       
 255 H255         -11.5138     9.2297    -8.7584 H       
 256 H256          -8.6116     8.8331    -8.7082 H       
 257 H257         -10.2182     8.4355    -4.4554 H       
 258 H258         -13.2243    12.4228   -11.3357 H       
 259 H259         -12.2832    13.6040   -12.2777 H       
 260 H260         -10.3620    13.2629   -10.6950 H       
 261 H261         -12.0485    11.8711    -8.7594 H       
 262 H262         -10.5561    11.8793   -12.7150 H       
 263 H263         -11.4972    10.6981   -11.7731 H       
 264 H264         -11.1742     9.7784   -14.2855 H       
 265 H265         -12.5132    10.0700   -15.2576 H       
 266 H266         -10.6939    17.5379    -9.5211 H       
 267 H267         -11.9340    18.2186    -8.4407 H       
 268 H268         -13.4287    16.2829    -9.0161 H       
 269 H269         -11.7474    15.5012   -11.2722 H       
 270 H270         -11.9050    16.1358    -7.0954 H       
 271 H271         -10.6650    15.4552    -8.1758 H       
 272 H272          -9.1311    17.3117    -7.5849 H       
 273 H273         -10.3712    17.9924    -6.5045 H       
 274 H274         -10.3422    15.9096    -5.1592 H       
 275 H275          -9.1022    15.2290    -6.2396 H       
 276 H276          -8.7784    17.7058    -4.6748 H       
 277 H277          -8.1249    16.2280    -4.2811 H       
 278 H278         -23.9362    42.3311   -17.4042 H       
 279 H279         -22.8560    43.5630   -18.0998 H       
 280 H280         -21.3882    43.3514   -16.0717 H       
 281 H281         -23.4299    41.8688   -14.6017 H       
 282 H282         -20.9765    41.9465   -18.0438 H       
 283 H283         -22.0567    40.7146   -17.3483 H       
 284 H284         -21.0470    39.8019   -19.6743 H       
 285 H285         -22.1067    40.0039   -20.9623 H       
 286 H286         -22.2599    47.6043   -15.1145 H       
 287 H287         -23.7732    48.2129   -14.4018 H       
 288 H288         -24.9543    46.1846   -15.2979 H       
 289 H289         -22.7080    45.4958   -17.0321 H       
 290 H290         -22.3438    45.4485   -11.2290 H       
 291 H291         -20.6030    46.4158    -8.3587 H       
 292 H292         -20.9225    48.6741   -10.9654 H       
 293 H293         -20.2872    48.4510    -9.4261 H       
 294 H294         -23.9681    46.1440   -13.0489 H       
 295 H295         -22.4548    45.5354   -13.7616 H       
 296 H296         -22.7485    48.0958   -12.1261 H       
 297 H297         -21.2353    47.4872   -12.8388 H       
 298 H298         -26.8272    49.5683   -19.4149 H       
 299 H299         -26.5030    47.9217   -18.8218 H       
 300 H300         -24.5520    49.4748   -18.5161 H       
 301 H301         -25.3855    48.7969   -15.8007 H       
 302 H302         -28.5966    48.7564   -18.0308 H       
 303 H303         -19.1667    26.6095   -11.8800 H       
 304 H304         -18.6105    25.0216   -11.2993 H       
 305 H305         -17.0918    26.0165   -13.0359 H       
 306 H306         -15.4724    25.9250   -10.6075 H       
 307 H307         -19.1793    26.4798    -9.4949 H       
 308 H308         -16.6482    30.2756   -14.4856 H       
 309 H309         -15.9065    31.5345   -13.4692 H       
 310 H310         -16.6459    30.3267   -11.4337 H       
 311 H311         -18.2870    28.4295   -12.9287 H       
 312 H312         -13.9241    29.8847   -14.4309 H       
 313 H313         -20.6378    32.2074   -11.1055 H       
 314 H314         -20.1047    32.6554   -13.4677 H       
 315 H315         -17.4472    32.7319   -12.2806 H       
 316 H316         -22.0273    34.2676   -10.6612 H       
 317 H317         -21.1923    35.0649   -12.0159 H       
 318 H318         -21.9508    33.2089   -13.5220 H       
 319 H319         -22.8660    32.5176   -12.1609 H       
 320 H320         -23.3086    34.1143   -12.8113 H       
 321 H321         -19.1663    34.8177   -10.5318 H       
 322 H322         -19.9718    33.7677    -9.3414 H       
 323 H323         -18.5160    33.1961   -10.1914 H       
 324 H324         -19.8488    36.2607   -16.0861 H       
 325 H325         -18.8931    37.7239   -15.7484 H       
 326 H326         -18.8412    37.0716   -13.3227 H       
 327 H327         -20.9358    35.0707   -13.6930 H       
 328 H328         -17.0628    36.3188   -14.8403 H       
 329 H329         -18.0185    34.8556   -15.1780 H       
 330 H330         -14.9922    35.3227   -16.3843 H       
 331 H331         -15.9479    33.8595   -16.7219 H       
 332 H332         -15.2230    34.7782   -18.0631 H       
 333 H333         -21.0770    40.7946   -12.3719 H       
 334 H334         -22.8182    41.0499   -12.6389 H       
 335 H335         -22.7595    39.2659   -14.4069 H       
 336 H336         -19.8407    39.2826   -14.4954 H       
 337 H337         -20.2620    38.7439   -11.3640 H       
 338 H338         -20.7638    36.8515    -9.8722 H       
 339 H339         -24.9446    37.4648   -10.5129 H       
 340 H340         -24.4346    39.3623   -11.9956 H       
 341 H341         -23.2715    36.2416    -8.3462 H       
 342 H342         -26.5376    54.0267   -19.6203 H       
 343 H343         -26.0516    55.2302   -18.4023 H       
 344 H344         -25.5071    53.4042   -16.8154 H       
 345 H345         -27.9584    54.2819   -16.8214 H       
 346 H346         -26.0001    51.6682   -19.1113 H       
 347 H347         -24.0423    54.9910   -20.2684 H       
@<TRIPOS>BOND
   1    1    6 1
   2    1    2 1
   3    1  177 1
   4    1  178 1
   5    2    3 1
   6    2    4 1
   7    2  179 1
   8    3    5 2
   9    3   53 am
  10    4   43 am
  11    4  180 1
  12    6    7 ar
  13    6   11 ar
  14    7    8 ar
  15    7  181 1
  16    8    9 ar
  17    8  182 1
  18    9   10 ar
  19    9  183 1
  20   10   11 ar
  21   10  184 1
  22   11  185 1
  23   12   17 1
  24   12   13 1
  25   12  186 1
  26   12  187 1
  27   13   15 1
  28   13   14 1
  29   13  188 1
  30   14   16 2
  31   14  189 1
  32   15   23 1
  33   15  190 1
  34   17   18 1
  35   17   19 1
  36   17  191 1
  37   18  192 1
  38   18  193 1
  39   18  194 1
  40   19  195 1
  41   19  196 1
  42   19  197 1
  43   20   25 1
  44   20   21 1
  45   20  198 1
  46   20  199 1
  47   21   22 1
  48   21   23 1
  49   21  200 1
  50   22   24 2
  51   22   44 am
  52   23  201 1
  53   25  202 1
  54   26   31 1
  55   26   32 1
  56   26   27 1
  57   26  203 1
  58   27   29 1
  59   27   28 1
  60   27  204 1
  61   28   30 2
  62   28   36 am
  63   29   52 am
  64   29  205 1
  65   31  206 1
  66   31  207 1
  67   31  208 1
  68   32  209 1
  69   32  210 1
  70   32  211 1
  71   33   38 1
  72   33   34 1
  73   33  212 1
  74   33  213 1
  75   34   36 1
  76   34   35 1
  77   34  214 1
  78   35   37 2
  79   35   82 am
  80   36  215 1
  81   38   39 am
  82   38   40 2
  83   39  216 1
  84   39  217 1
  85   41   46 1
  86   41   42 1
  87   41  218 1
  88   41  219 1
  89   42   44 1
  90   42   43 1
  91   42  220 1
  92   43   45 2
  93   44  221 1
  94   46   47 1
  95   46  222 1
  96   46  223 1
  97   47   48 2
  98   47   49 am
  99   49  224 1
 100   49  225 1
 101   50   55 1
 102   50   51 1
 103   50  226 1
 104   50  227 1
 105   51   52 1
 106   51   53 1
 107   51  228 1
 108   52   54 2
 109   53  229 1
 110   55   56 ar
 111   55   60 ar
 112   56   57 ar
 113   56  230 1
 114   57   58 ar
 115   57  231 1
 116   58   59 ar
 117   58   61 1
 118   59   60 ar
 119   59  232 1
 120   60  233 1
 121   61  234 1
 122   62   67 1
 123   62   63 1
 124   62  235 1
 125   62  236 1
 126   63   65 1
 127   63   64 1
 128   63  237 1
 129   64   66 2
 130   64   74 am
 131   65   98 am
 132   65  238 1
 133   67   68 1
 134   67  239 1
 135   67  240 1
 136   68   69 2
 137   68   70 1
 138   70  241 1
 139   71   76 1
 140   71   72 1
 141   71  242 1
 142   71  243 1
 143   72   74 1
 144   72   73 1
 145   72  244 1
 146   73   75 2
 147   73  134 am
 148   74  245 1
 149   76   77 1
 150   76   78 1
 151   76  246 1
 152   77  247 1
 153   77  248 1
 154   77  249 1
 155   78  250 1
 156   78  251 1
 157   78  252 1
 158   79   84 1
 159   79   80 1
 160   79  253 1
 161   79  254 1
 162   80   81 1
 163   80   82 1
 164   80  255 1
 165   81   83 2
 166   81   90 am
 167   82  256 1
 168   84   85 2
 169   84   86 1
 170   86  257 1
 171   87   92 1
 172   87   88 1
 173   87  258 1
 174   87  259 1
 175   88   90 1
 176   88   89 1
 177   88  260 1
 178   89   91 2
 179   89   99 am
 180   90  261 1
 181   92   93 1
 182   92  262 1
 183   92  263 1
 184   93   94 2
 185   93   95 am
 186   95  264 1
 187   95  265 1
 188   96  101 1
 189   96   97 1
 190   96  266 1
 191   96  267 1
 192   97   99 1
 193   97   98 1
 194   97  268 1
 195   98  100 2
 196   99  269 1
 197  101  102 1
 198  101  270 1
 199  101  271 1
 200  102  103 1
 201  102  272 1
 202  102  273 1
 203  103  104 1
 204  103  274 1
 205  103  275 1
 206  104  276 1
 207  104  277 1
 208  105  110 1
 209  105  106 1
 210  105  278 1
 211  105  279 1
 212  106  108 1
 213  106  107 1
 214  106  280 1
 215  107  109 2
 216  107  117 am
 217  108  161 am
 218  108  281 1
 219  110  111 1
 220  110  282 1
 221  110  283 1
 222  111  112 2
 223  111  113 am
 224  113  284 1
 225  113  285 1
 226  114  123 1
 227  114  115 1
 228  114  286 1
 229  114  287 1
 230  115  117 1
 231  115  116 1
 232  115  288 1
 233  116  118 2
 234  116  128 am
 235  117  289 1
 236  119  124 1
 237  119  120 1
 238  119  290 1
 239  120  121 2
 240  120  122 1
 241  121  291 1
 242  122  292 1
 243  122  293 1
 244  123  124 1
 245  123  294 1
 246  123  295 1
 247  124  296 1
 248  124  297 1
 249  125  130 1
 250  125  126 1
 251  125  298 1
 252  125  299 1
 253  126  128 1
 254  126  127 1
 255  126  300 1
 256  127  129 2
 257  127  174 am
 258  128  301 1
 259  130  302 1
 260  131  136 1
 261  131  132 1
 262  131  303 1
 263  131  304 1
 264  132  134 1
 265  132  133 1
 266  132  305 1
 267  133  135 2
 268  133  140 am
 269  134  306 1
 270  136  307 1
 271  137  142 1
 272  137  138 1
 273  137  308 1
 274  137  309 1
 275  138  139 1
 276  138  140 1
 277  138  310 1
 278  139  141 2
 279  139  146 am
 280  140  311 1
 281  142  312 1
 282  143  144 1
 283  143  148 1
 284  143  150 1
 285  143  313 1
 286  144  145 1
 287  144  146 1
 288  144  314 1
 289  145  147 2
 290  145  154 am
 291  146  315 1
 292  148  149 1
 293  148  316 1
 294  148  317 1
 295  149  318 1
 296  149  319 1
 297  149  320 1
 298  150  321 1
 299  150  322 1
 300  150  323 1
 301  151  156 1
 302  151  152 1
 303  151  324 1
 304  151  325 1
 305  152  153 1
 306  152  154 1
 307  152  326 1
 308  153  155 2
 309  153  162 am
 310  154  327 1
 311  156  157 1
 312  156  328 1
 313  156  329 1
 314  157  158 1
 315  158  330 1
 316  158  331 1
 317  158  332 1
 318  159  164 1
 319  159  160 1
 320  159  333 1
 321  159  334 1
 322  160  161 1
 323  160  162 1
 324  160  335 1
 325  161  163 2
 326  162  336 1
 327  164  165 ar
 328  164  169 ar
 329  165  166 ar
 330  165  337 1
 331  166  167 ar
 332  166  338 1
 333  167  168 ar
 334  167  170 1
 335  168  169 ar
 336  168  339 1
 337  169  340 1
 338  170  341 1
 339  171  176 1
 340  171  172 1
 341  171  342 1
 342  171  343 1
 343  172  173 1
 344  172  174 1
 345  172  344 1
 346  173  175 2
 347  173  345 1
 348  174  346 1
 349  176  347 1

#	End of record

