#	Name: ASD04910129
#	Creating user name:	WinNT
#	Creation time:	15. 06. 2019 20:55

#	Modifying user name:	WinNT
#	Modification time:	15. 06. 2019 20:55

#	Program:	/corina/corina34_cracker 3.40 0067  02.08.2006

@<TRIPOS>MOLECULE
ASD04910129
  26   27    0    0    0
SMALL
NO_CHARGES


@<TRIPOS>ATOM
   1 C1             0.0110     1.3919     0.2284 C.ar    
   2 C2             0.0522     0.0118     0.3668 C.ar    
   3 C3             1.2293    -0.6707     0.1334 C.ar    
   4 C4             2.3720     0.0240    -0.2402 C.ar    
   5 C5             2.3301     1.4046    -0.3790 C.ar    
   6 C6             1.1524     2.0864    -0.1449 C.ar    
   7 O7            -1.1496     2.0629     0.4533 O.3     
   8 N8             3.5686    -0.6690    -0.4770 N.pl3   
   9 N9             3.7106    -1.8286    -1.2500 N.2     
  10 C10            4.9721    -2.1774    -1.2366 C.2     
  11 C11            5.6738    -1.2527    -0.4558 C.2     
  12 C12            4.7898    -0.3327    -0.0044 C.2     
  13 C13            7.1537    -1.2741    -0.1721 C.3     
  14 F14            7.7359    -2.3721    -0.8144 F       
  15 F15            7.7365    -0.0938    -0.6459 F       
  16 F16            7.3626    -1.3762     1.2074 F       
  17 C17            1.2742    -2.1694     0.2847 C.3     
  18 H18           -0.8366    -0.5285     0.6574 H       
  19 H19            3.2188     1.9454    -0.6692 H       
  20 H20            1.1197     3.1605    -0.2528 H       
  21 H21           -1.2674     2.3489     1.3695 H       
  22 H22            5.3979    -3.0321    -1.7412 H       
  23 H23            5.0185     0.5165     0.6224 H       
  24 H24            1.1224    -2.6375    -0.6879 H       
  25 H25            2.2447    -2.4655     0.6829 H       
  26 H26            0.4880    -2.4893     0.9685 H       
@<TRIPOS>BOND
   1    1    2 ar
   2    1    6 ar
   3    1    7 1
   4    2    3 ar
   5    2   18 1
   6    3    4 ar
   7    3   17 1
   8    4    5 ar
   9    4    8 1
  10    5    6 ar
  11    5   19 1
  12    6   20 1
  13    7   21 1
  14    8    9 1
  15    8   12 1
  16    9   10 2
  17   10   11 1
  18   10   22 1
  19   11   12 2
  20   11   13 1
  21   12   23 1
  22   13   14 1
  23   13   15 1
  24   13   16 1
  25   17   24 1
  26   17   25 1
  27   17   26 1

#	End of record

