#	Name: ASD01880983
#	Creating user name:	WinNT
#	Creation time:	15. 06. 2019 19:41

#	Modifying user name:	WinNT
#	Modification time:	15. 06. 2019 19:41

#	Program:	/corina/corina34_cracker 3.40 0067  02.08.2006

@<TRIPOS>MOLECULE
ASD01880983
  39   41    0    0    0
SMALL
NO_CHARGES


@<TRIPOS>ATOM
   1 N1            -0.0158     1.3134     0.0093 N.ar    
   2 C2             0.0021    -0.0041     0.0020 C.ar    
   3 N3             1.1310    -0.6837    -0.0120 N.ar    
   4 C4             2.3017    -0.0609    -0.0198 C.ar    
   5 C5             2.3291     1.3231    -0.0131 C.ar    
   6 C6             1.1166     2.0083     0.0022 C.ar    
   7 C7             3.6381     2.0697    -0.0211 C.3     
   8 O8             4.0398     2.3125    -1.3708 O.3     
   9 C9             5.2068     2.9799    -1.5557 C.ar    
  10 C10            5.6565     3.2495    -2.8451 C.ar    
  11 C11            6.8366     3.9249    -3.0319 C.ar    
  12 C12            7.5932     4.3458    -1.9329 C.ar    
  13 C13            7.1372     4.0726    -0.6389 C.ar    
  14 C14            5.9481     3.3982    -0.4580 C.ar    
  15 C15            7.5897     4.3677    -4.2616 C.3     
  16 N16            8.7953     5.0512    -3.7793 N.am    
  17 C17            8.7928     5.0361    -2.4354 C.2     
  18 O18            9.6582     5.5236    -1.7340 O.2     
  19 Cl19           3.7808    -0.9695    -0.0377 Cl      
  20 Cl20           8.0634     4.5869     0.7364 Cl      
  21 O21            1.0923     3.3633     0.0088 O.3     
  22 C22           -0.1924     3.9890     0.0245 C.3     
  23 C23            9.4758     7.1134    -4.9044 C.3     
  24 C24            9.8309     5.6518    -4.6238 C.3     
  25 H25           -0.9345    -0.5419     0.0081 H       
  26 H26            3.5174     3.0202     0.4987 H       
  27 H27            4.3992     1.4741     0.4830 H       
  28 H28            5.0775     2.9271    -3.6979 H       
  29 H29            5.5958     3.1875     0.5409 H       
  30 H30            7.8654     3.5021    -4.8641 H       
  31 H31            6.9791     5.0540    -4.8482 H       
  32 H32           -0.7352     3.6819     0.9185 H       
  33 H33           -0.0690     5.0719     0.0284 H       
  34 H34           -0.7528     3.6903    -0.8614 H       
  35 H35            8.5154     7.1619    -5.4175 H       
  36 H36            9.4129     7.6592    -3.9630 H       
  37 H37           10.2464     7.5602    -5.5327 H       
  38 H38           10.7913     5.6033    -4.1107 H       
  39 H39            9.8938     5.1060    -5.5651 H       
@<TRIPOS>BOND
   1    1    2 ar
   2    1    6 ar
   3    2    3 ar
   4    2   25 1
   5    3    4 ar
   6    4    5 ar
   7    4   19 1
   8    5    6 ar
   9    5    7 1
  10    6   21 1
  11    7    8 1
  12    7   26 1
  13    7   27 1
  14    8    9 1
  15    9   10 ar
  16    9   14 ar
  17   10   11 ar
  18   10   28 1
  19   11   12 ar
  20   11   15 1
  21   12   13 ar
  22   12   17 1
  23   13   14 ar
  24   13   20 1
  25   14   29 1
  26   15   16 1
  27   15   30 1
  28   15   31 1
  29   16   17 am
  30   16   24 1
  31   17   18 2
  32   21   22 1
  33   22   32 1
  34   22   33 1
  35   22   34 1
  36   23   24 1
  37   23   35 1
  38   23   36 1
  39   23   37 1
  40   24   38 1
  41   24   39 1

#	End of record

