#	Name: ASD01885680
#	Creating user name:	WinNT
#	Creation time:	15. 06. 2019 19:50

#	Modifying user name:	WinNT
#	Modification time:	15. 06. 2019 19:50

#	Program:	/corina/corina34_cracker 3.40 0067  02.08.2006

@<TRIPOS>MOLECULE
ASD01885680
  56   59    0    0    0
SMALL
NO_CHARGES


@<TRIPOS>ATOM
   1 C1            -0.9563     1.0530     0.4255 C.ar    
   2 C2            -2.2804     1.5609     0.4219 C.ar    
   3 C3            -2.4812     2.9610     0.5197 C.ar    
   4 C4            -1.3597     3.7729     0.6150 C.ar    
   5 C5            -0.0860     3.1925     0.6115 C.ar    
   6 N6             0.0799     1.8871     0.5142 N.ar    
   7 C7            -0.7586    -0.3377     0.3284 C.ar    
   8 C8            -1.8331    -1.1676     0.2390 C.ar    
   9 C9            -3.1323    -0.6642     0.2417 C.ar    
  10 C10           -3.3622     0.6767     0.3220 C.ar    
  11 C11           -3.8449     3.5389     0.5197 C.ar    
  12 C12           -4.2569     4.3610    -0.5289 C.ar    
  13 C13           -5.5288     4.8965    -0.5232 C.ar    
  14 C14           -4.7244     3.2586     1.5657 C.ar    
  15 C15            1.1073     4.0676     0.7066 C.2     
  16 N16            2.3420     3.5274     0.6930 N.am    
  17 O17            0.9720     5.2717     0.7968 O.2     
  18 C18           -1.6148    -2.6560     0.1490 C.3     
  19 N19           -1.5130    -3.0504    -1.2582 N.pl3   
  20 N20           -2.3827    -2.8056    -2.1749 N.2     
  21 N21           -1.9887    -3.2877    -3.3006 N.2     
  22 C22           -0.8024    -3.8808    -3.1261 C.2     
  23 C23           -0.4857    -3.7296    -1.8189 C.2     
  24 C24           -6.3943     4.6195     0.5196 C.ar    
  25 C25           -5.9933     3.8000     1.5600 C.ar    
  26 C26           -4.2894     2.3659     2.6992 C.3     
  27 C27            0.0218    -4.5758    -4.1791 C.3     
  28 C28           -0.6445    -4.4017    -5.5454 C.3     
  29 O29            1.3317    -4.0055    -4.2118 O.3     
  30 C30           -0.6806    -2.9161    -5.9096 C.3     
  31 C31            0.1224    -6.0659    -3.8469 C.3     
  32 F32           -1.1630    -6.6012    -3.7112 F       
  33 F33            0.7973    -6.7289    -4.8774 F       
  34 F34            0.8248    -6.2300    -2.6482 F       
  35 H35           -1.4689     4.8447     0.6908 H       
  36 H36            0.2420    -0.7440     0.3245 H       
  37 H37           -3.9680    -1.3455     0.1794 H       
  38 H38           -4.3738     1.0550     0.3189 H       
  39 H39           -3.5819     4.5782    -1.3435 H       
  40 H40           -5.8489     5.5335    -1.3345 H       
  41 H41            2.4500     2.5661     0.6210 H       
  42 H42            3.1226     4.0998     0.7552 H       
  43 H43           -0.6934    -2.9201     0.6679 H       
  44 H44           -2.4541    -3.1749     0.6119 H       
  45 H45            0.4051    -4.0847    -1.3221 H       
  46 H46           -7.3887     5.0409     0.5196 H       
  47 H47           -6.6735     3.5873     2.3714 H       
  48 H48           -3.8366     2.9708     3.4848 H       
  49 H49           -5.1555     1.8392     3.0998 H       
  50 H50           -3.5615     1.6420     2.3328 H       
  51 H51           -0.0760    -4.9468    -6.2989 H       
  52 H52           -1.6618    -4.7909    -5.5057 H       
  53 H53            1.3443    -3.0607    -4.4171 H       
  54 H54           -1.2952    -2.3796    -5.1867 H       
  55 H55            0.3323    -2.5137    -5.8950 H       
  56 H56           -1.1047    -2.7967    -6.9066 H       
@<TRIPOS>BOND
   1    1    7 ar
   2    1    6 ar
   3    1    2 ar
   4    2    3 ar
   5    2   10 ar
   6    3   11 1
   7    3    4 ar
   8    4    5 ar
   9    4   35 1
  10    5   15 1
  11    5    6 ar
  12    7    8 ar
  13    7   36 1
  14    8    9 ar
  15    8   18 1
  16    9   10 ar
  17    9   37 1
  18   10   38 1
  19   11   12 ar
  20   11   14 ar
  21   12   13 ar
  22   12   39 1
  23   13   24 ar
  24   13   40 1
  25   14   26 1
  26   14   25 ar
  27   15   16 am
  28   15   17 2
  29   16   41 1
  30   16   42 1
  31   18   19 1
  32   18   43 1
  33   18   44 1
  34   19   20 1
  35   19   23 1
  36   20   21 2
  37   21   22 1
  38   22   23 2
  39   22   27 1
  40   23   45 1
  41   24   25 ar
  42   24   46 1
  43   25   47 1
  44   26   48 1
  45   26   49 1
  46   26   50 1
  47   27   31 1
  48   27   29 1
  49   27   28 1
  50   28   30 1
  51   28   51 1
  52   28   52 1
  53   29   53 1
  54   30   54 1
  55   30   55 1
  56   30   56 1
  57   31   32 1
  58   31   33 1
  59   31   34 1

#	End of record

