#	Name: ASD01140196
#	Creating user name:	WinNT
#	Creation time:	15. 06. 2019 19:00

#	Modifying user name:	WinNT
#	Modification time:	15. 06. 2019 19:00

#	Program:	/corina/corina34_cracker 3.40 0067  02.08.2006

@<TRIPOS>MOLECULE
ASD01140196
  41   44    0    0    0
SMALL
NO_CHARGES


@<TRIPOS>ATOM
   1 C1            -0.0178     1.4608     0.0101 C.3     
   2 N2             0.0021    -0.0041     0.0020 N.am    
   3 C3            -1.1558    -0.6938     0.0094 C.2     
   4 O4            -2.2172    -0.1000     0.0227 O.2     
   5 N5            -0.0298    -2.9576    -0.0131 N.2     
   6 C6            -0.3999    -4.2071    -0.0096 C.2     
   7 N7            -1.7593    -4.2622     0.0205 N.pl3   
   8 C8            -2.2204    -2.9877     0.0072 C.2     
   9 C9            -3.6725    -2.5839    -0.0164 C.3     
  10 N10           -4.2764    -3.1579    -1.2238 N.2     
  11 C11           -4.3134    -4.4291    -1.4249 C.2     
  12 C12           -3.7862    -5.4953    -0.5650 C.ar    
  13 C13           -2.5515    -5.4103     0.0837 C.ar    
  14 C14           -2.0814    -6.4873     0.8322 C.ar    
  15 C15           -2.8375    -7.6283     0.9724 C.ar    
  16 C16           -4.0917    -7.7114     0.3611 C.ar    
  17 C17           -4.5615    -6.6509    -0.4035 C.ar    
  18 C18           -4.8917    -8.8880     0.5229 C.1     
  19 C19           -5.5476    -9.8526     0.6555 C.1     
  20 C20           -4.9698    -4.8702    -2.6795 C.ar    
  21 C21           -5.4980    -3.9224    -3.5527 C.ar    
  22 C22           -6.1078    -4.3496    -4.7211 C.ar    
  23 C23           -6.1684    -5.7112    -4.9761 C.ar    
  24 C24           -5.6222    -6.5977    -4.0633 C.ar    
  25 N25           -5.0441    -6.1644    -2.9633 N.ar    
  26 C26           -1.1358    -2.1668     0.0013 C.2     
  27 H27            1.0048     1.8381     0.0023 H       
  28 H28           -0.5450     1.8219    -0.8730 H       
  29 H29           -0.5280     1.8123     0.9069 H       
  30 H30            0.8486    -0.4776    -0.0086 H       
  31 H31            0.2635    -5.0591    -0.0281 H       
  32 H32           -4.1778    -2.9702     0.8688 H       
  33 H33           -3.7532    -1.4972    -0.0439 H       
  34 H34           -1.1133    -6.4260     1.3070 H       
  35 H35           -2.4625    -8.4580     1.5532 H       
  36 H36           -5.5297    -6.7180    -0.8773 H       
  37 H37           -6.1342   -10.7154     0.7741 H       
  38 H38           -5.4334    -2.8693    -3.3221 H       
  39 H39           -6.5269    -3.6382    -5.4173 H       
  40 H40           -6.6373    -6.0767    -5.8777 H       
  41 H41           -5.6676    -7.6589    -4.2587 H       
@<TRIPOS>BOND
   1    1    2 1
   2    1   27 1
   3    1   28 1
   4    1   29 1
   5    2    3 am
   6    2   30 1
   7    3    4 2
   8    3   26 1
   9    5    6 2
  10    5   26 1
  11    6    7 1
  12    6   31 1
  13    7    8 1
  14    7   13 1
  15    8    9 1
  16    8   26 2
  17    9   10 1
  18    9   32 1
  19    9   33 1
  20   10   11 2
  21   11   12 1
  22   11   20 1
  23   12   13 ar
  24   12   17 ar
  25   13   14 ar
  26   14   15 ar
  27   14   34 1
  28   15   16 ar
  29   15   35 1
  30   16   17 ar
  31   16   18 1
  32   17   36 1
  33   18   19 3
  34   19   37 1
  35   20   21 ar
  36   20   25 ar
  37   21   22 ar
  38   21   38 1
  39   22   23 ar
  40   22   39 1
  41   23   24 ar
  42   23   40 1
  43   24   25 ar
  44   24   41 1

#	End of record

