#	Name: ASD06660162
#	Creating user name:	WinNT
#	Creation time:	15. 06. 2019 21:08

#	Modifying user name:	WinNT
#	Modification time:	15. 06. 2019 21:08

#	Program:	/corina/corina34_cracker 3.40 0067  02.08.2006

@<TRIPOS>MOLECULE
ASD06660162
  43   44    0    0    0
SMALL
NO_CHARGES


@<TRIPOS>ATOM
   1 C1            -0.0184     1.5028     0.0103 C.2     
   2 C2             0.0021    -0.0041     0.0020 C.3     
   3 C3            -0.7241    -0.5171    -1.2431 C.3     
   4 O4             1.0197     2.1211     0.0037 O.2     
   5 O5            -1.1898     2.1580     0.0194 O.3     
   6 C6            -0.8113    -2.0207    -1.1900 C.ar    
   7 C7            -1.8994    -2.6272    -0.5878 C.ar    
   8 C8            -1.9844    -4.0033    -0.5363 C.ar    
   9 C9            -0.9717    -4.7828    -1.0928 C.ar    
  10 C10            0.1220    -4.1665    -1.6986 C.ar    
  11 C11            0.1944    -2.7896    -1.7487 C.ar    
  12 B12           -1.0622    -6.3492    -1.0370 Du      
  13 O13           -2.1773    -6.9743    -0.4188 O.3     
  14 O14           -0.0291    -7.1408    -1.6048 O.3     
  15 N15            1.3897    -0.4735    -0.0138 N.am    
  16 C16            2.0717    -0.5994     1.1419 C.2     
  17 O17            1.5357    -0.3234     2.1969 O.2     
  18 O18            3.3470    -1.0308     1.1274 O.3     
  19 C19            4.0198    -1.1422     2.4093 C.3     
  20 C20            5.4276    -1.6362     2.1965 C.ar    
  21 C21            6.4544    -0.7326     1.9969 C.ar    
  22 C22            7.7457    -1.1857     1.8017 C.ar    
  23 C23            8.0102    -2.5425     1.8064 C.ar    
  24 C24            6.9835    -3.4462     2.0068 C.ar    
  25 C25            5.6929    -2.9928     2.2064 C.ar    
  26 H26           -0.4983    -0.3791     0.8948 H       
  27 H27           -1.7288    -0.0959    -1.2772 H       
  28 H28           -0.1736    -0.2164    -2.1345 H       
  29 H29           -1.1523     3.1243     0.0245 H       
  30 H30           -2.6836    -2.0222    -0.1569 H       
  31 H31           -2.8338    -4.4757    -0.0654 H       
  32 H32            0.9097    -4.7657    -2.1310 H       
  33 H33            1.0395    -2.3110    -2.2211 H       
  34 H34           -2.1445    -7.9407    -0.4334 H       
  35 H35           -0.1728    -8.0935    -1.5219 H       
  36 H36            1.8177    -0.6938    -0.8559 H       
  37 H37            4.0467    -0.1651     2.8916 H       
  38 H38            3.4799    -1.8456     3.0431 H       
  39 H39            6.2478     0.3275     1.9933 H       
  40 H40            8.5479    -0.4797     1.6451 H       
  41 H41            9.0189    -2.8966     1.6531 H       
  42 H42            7.1901    -4.5062     2.0102 H       
  43 H43            4.8913    -3.6987     2.3667 H       
@<TRIPOS>BOND
   1    1    2 1
   2    1    4 2
   3    1    5 1
   4    2    3 1
   5    2   15 1
   6    2   26 1
   7    3    6 1
   8    3   27 1
   9    3   28 1
  10    5   29 1
  11    6    7 ar
  12    6   11 ar
  13    7    8 ar
  14    7   30 1
  15    8    9 ar
  16    8   31 1
  17    9   10 ar
  18    9   12 1
  19   10   11 ar
  20   10   32 1
  21   11   33 1
  22   12   13 1
  23   12   14 1
  24   13   34 1
  25   14   35 1
  26   15   16 am
  27   15   36 1
  28   16   17 2
  29   16   18 1
  30   18   19 1
  31   19   20 1
  32   19   37 1
  33   19   38 1
  34   20   21 ar
  35   20   25 ar
  36   21   22 ar
  37   21   39 1
  38   22   23 ar
  39   22   40 1
  40   23   24 ar
  41   23   41 1
  42   24   25 ar
  43   24   42 1
  44   25   43 1

#	End of record

