#	Name: ASD01200301
#	Creating user name:	WinNT
#	Creation time:	15. 06. 2019 19:08

#	Modifying user name:	WinNT
#	Modification time:	15. 06. 2019 19:08

#	Program:	/corina/corina34_cracker 3.40 0067  02.08.2006

@<TRIPOS>MOLECULE
ASD01200301
  28   28    0    0    0
SMALL
NO_CHARGES


@<TRIPOS>ATOM
   1 C1            -0.0211     1.7054     0.0114 C.2     
   2 S2             0.0021    -0.0041     0.0020 S.3     
   3 C3            -1.7592    -0.0386     0.0193 C.2     
   4 C4            -2.1977     1.2214     0.0304 C.2     
   5 N5            -1.2441     2.1344     0.0310 N.2     
   6 C6            -3.6628     1.5739     0.0464 C.3     
   7 Br7           -4.2822     1.7170     1.9068 Br      
   8 N8             1.1074     2.5171     0.0050 N.am    
   9 O9             3.4290     2.7492    -0.0164 O.3     
  10 C10            4.7195     2.0838    -0.0329 C.3     
  11 C11            4.8300     1.2162    -1.2882 C.3     
  12 C12            5.8338     3.1322    -0.0378 C.3     
  13 C13            4.8545     1.2019     1.2101 C.3     
  14 C14            2.3360     1.9630    -0.0102 C.2     
  15 O15            2.4571     0.7541    -0.0183 O.2     
  16 H16           -2.3763    -0.9250     0.0204 H       
  17 H17           -3.8127     2.5270    -0.4608 H       
  18 H18           -4.2291     0.7964    -0.4663 H       
  19 H19            1.0107     3.4823     0.0115 H       
  20 H20            4.7338     1.8445    -2.1737 H       
  21 H21            5.7987     0.7167    -1.3006 H       
  22 H22            4.0361     0.4693    -1.2847 H       
  23 H23            5.7551     3.7503     0.8566 H       
  24 H24            6.8026     2.6327    -0.0501 H       
  25 H25            5.7377     3.7605    -0.9233 H       
  26 H26            4.0606     0.4550     1.2136 H       
  27 H27            5.8232     0.7024     1.1977 H       
  28 H28            4.7758     1.8200     2.1044 H       
@<TRIPOS>BOND
   1    1    2 1
   2    1    8 1
   3    1    5 2
   4    2    3 1
   5    3    4 2
   6    3   16 1
   7    4    5 1
   8    4    6 1
   9    6    7 1
  10    6   17 1
  11    6   18 1
  12    8   14 am
  13    8   19 1
  14    9   10 1
  15    9   14 1
  16   10   11 1
  17   10   12 1
  18   10   13 1
  19   11   20 1
  20   11   21 1
  21   11   22 1
  22   12   23 1
  23   12   24 1
  24   12   25 1
  25   13   26 1
  26   13   27 1
  27   13   28 1
  28   14   15 2

#	End of record

