#	Name: ASD04560164
#	Creating user name:	WinNT
#	Creation time:	15. 06. 2019 20:49

#	Modifying user name:	WinNT
#	Modification time:	15. 06. 2019 20:49

#	Program:	/corina/corina34_cracker 3.40 0067  02.08.2006

@<TRIPOS>MOLECULE
ASD04560164
  43   45    0    0    0
SMALL
NO_CHARGES


@<TRIPOS>ATOM
   1 C1            -0.2749     1.6166     0.0073 C.ar    
   2 C2            -0.2826     0.2492     0.1044 C.ar    
   3 C3             0.9081    -0.4651    -0.0074 C.ar    
   4 C4             2.1097     0.2073    -0.2186 C.ar    
   5 C5             2.1236     1.5745    -0.3170 C.ar    
   6 C6             0.9299     2.2944    -0.2047 C.ar    
   7 C7             0.9414     3.7649    -0.3105 C.2     
   8 O8             1.9895     4.3530    -0.4956 O.2     
   9 N9            -0.2098     4.4574    -0.2021 N.am    
  10 C10           -0.1860     5.8516    -0.1858 C.ar    
  11 C11           -1.2151     6.5913    -0.7668 C.ar    
  12 C12            0.8509     7.9213     0.4115 C.ar    
  13 C13            0.8647     6.5420     0.4169 C.ar    
  14 S14            0.8944    -2.2225     0.1191 S.3     
  15 C15           -1.1540     7.9689    -0.7295 C.ar    
  16 N16           -0.1390     8.5858    -0.1544 N.ar    
  17 C17            2.6425    -2.6602    -0.0884 C.3     
  18 C18            2.7991    -4.1567    -0.0037 C.ar    
  19 C19            2.6146    -4.9434    -1.1392 C.ar    
  20 C20            3.1312    -4.7500     1.1971 C.ar    
  21 C21            2.7615    -6.3271    -1.0538 C.ar    
  22 C22            3.0885    -6.9101     0.1530 C.ar    
  23 C23            3.2757    -6.1237     1.2762 C.ar    
  24 B24            2.2420    -4.2738    -2.5095 Du      
  25 O25            2.5514    -4.9324    -3.7289 O.3     
  26 O26            1.5956    -3.0096    -2.5295 O.3     
  27 H27           -1.1989     2.1696     0.0900 H       
  28 H28           -1.2127    -0.2748     0.2681 H       
  29 H29            3.0314    -0.3491    -0.3045 H       
  30 H30            3.0556     2.0953    -0.4803 H       
  31 H31           -1.0549     3.9859    -0.1353 H       
  32 H32           -2.0483     6.0928    -1.2397 H       
  33 H33            1.6605     8.4643     0.8764 H       
  34 H34            1.6778     6.0043     0.8818 H       
  35 H35           -1.9468     8.5500    -1.1771 H       
  36 H36            2.9910    -2.3129    -1.0611 H       
  37 H37            3.2311    -2.1882     0.6982 H       
  38 H38            3.2788    -4.1410     2.0767 H       
  39 H39            2.6192    -6.9414    -1.9305 H       
  40 H40            3.2026    -7.9820     0.2203 H       
  41 H41            3.5316    -6.5843     2.2189 H       
  42 H42            2.2840    -4.4432    -4.5190 H       
  43 H43            1.4067    -2.6784    -3.4182 H       
@<TRIPOS>BOND
   1    1    2 ar
   2    1    6 ar
   3    1   27 1
   4    2    3 ar
   5    2   28 1
   6    3    4 ar
   7    3   14 1
   8    4    5 ar
   9    4   29 1
  10    5    6 ar
  11    5   30 1
  12    6    7 1
  13    7    8 2
  14    7    9 am
  15    9   10 1
  16    9   31 1
  17   10   11 ar
  18   10   13 ar
  19   11   15 ar
  20   11   32 1
  21   12   13 ar
  22   12   16 ar
  23   12   33 1
  24   13   34 1
  25   14   17 1
  26   15   16 ar
  27   15   35 1
  28   17   18 1
  29   17   36 1
  30   17   37 1
  31   18   19 ar
  32   18   20 ar
  33   19   24 1
  34   19   21 ar
  35   20   23 ar
  36   20   38 1
  37   21   22 ar
  38   21   39 1
  39   22   23 ar
  40   22   40 1
  41   23   41 1
  42   24   25 1
  43   24   26 1
  44   25   42 1
  45   26   43 1

#	End of record

