#	Name: ASD01900960
#	Creating user name:	WinNT
#	Creation time:	15. 06. 2019 19:52

#	Modifying user name:	WinNT
#	Modification time:	15. 06. 2019 19:52

#	Program:	/corina/corina34_cracker 3.40 0067  02.08.2006

@<TRIPOS>MOLECULE
ASD01900960
  62   66    0    0    0
SMALL
NO_CHARGES


@<TRIPOS>ATOM
   1 C1             0.2547     0.7140    -0.2057 C.ar    
   2 C2             0.3218    -0.6424    -0.4474 C.ar    
   3 C3             1.5103    -1.2257    -0.8583 C.ar    
   4 C4             2.6472    -0.4590    -1.0268 C.ar    
   5 C5             2.5976     0.9038    -0.7862 C.ar    
   6 C6             1.3913     1.5002    -0.3784 C.ar    
   7 N7             3.7191     1.7133    -0.9269 N.pl3   
   8 C8             3.5322     3.1264    -1.2745 C.3     
   9 N9             2.4341     3.6995    -0.4950 N.am    
  10 C10            1.3714     2.9529    -0.1342 C.2     
  11 C11            2.4887     5.0468    -0.1167 C.ar    
  12 C12            1.7396     5.9924    -0.8044 C.ar    
  13 C13            1.7940     7.3206    -0.4307 C.ar    
  14 C14            2.5968     7.7104     0.6313 C.ar    
  15 C15            3.3455     6.7664     1.3188 C.ar    
  16 C16            3.2877     5.4369     0.9500 C.ar    
  17 O17            0.4046     3.4739     0.3884 O.2     
  18 O18            2.6502     9.0186     0.9984 O.3     
  19 C19            3.4095     9.3340     2.1672 C.3     
  20 C20            4.8226     3.8959    -0.9771 C.3     
  21 C21            3.2126     3.2428    -2.7676 C.3     
  22 C22            3.0839     4.7211    -3.1418 C.3     
  23 N23            4.3407     5.4164    -2.8363 N.3     
  24 C24            4.6472     5.3559    -1.4016 C.3     
  25 C25            4.3012     6.8071    -3.3079 C.3     
  26 C26            5.5633     7.5158    -2.8885 C.ar    
  27 C27            5.5422     8.3910    -1.8196 C.ar    
  28 C28            6.6996     9.0415    -1.4343 C.ar    
  29 C29            7.8812     8.8178    -2.1171 C.ar    
  30 C30            7.9075     7.9439    -3.1864 C.ar    
  31 C31            6.7483     7.2858    -3.5717 C.ar    
  32 O32            6.7729     6.4211    -4.6199 O.3     
  33 C33            8.0281     6.2331    -5.2765 C.3     
  34 F34            8.9642     5.7406    -4.3610 F       
  35 F35            7.8741     5.3184    -6.3238 F       
  36 F36            8.4748     7.4564    -5.7877 F       
  37 H37           -0.6745     1.1641     0.1111 H       
  38 H38           -0.5580    -1.2546    -0.3152 H       
  39 H39            1.5479    -2.2882    -1.0480 H       
  40 H40            3.5706    -0.9205    -1.3443 H       
  41 H41            4.6092     1.3504    -0.7974 H       
  42 H42            1.1148     5.6891    -1.6314 H       
  43 H43            1.2117     8.0562    -0.9657 H       
  44 H44            3.9702     7.0706     2.1456 H       
  45 H45            3.8672     4.7014     1.4882 H       
  46 H46            2.9470     8.8683     3.0375 H       
  47 H47            4.4265     8.9591     2.0519 H       
  48 H48            3.4341    10.4151     2.3037 H       
  49 H49            5.0360     3.8503     0.0908 H       
  50 H50            5.6479     3.4516    -1.5335 H       
  51 H51            4.0156     2.7888    -3.3482 H       
  52 H52            2.2742     2.7304    -2.9800 H       
  53 H53            2.8701     4.8088    -4.2071 H       
  54 H54            2.2718     5.1710    -2.5706 H       
  55 H55            3.8293     5.8026    -0.8363 H       
  56 H56            5.5678     5.9048    -1.2034 H       
  57 H57            4.2213     6.8200    -4.3949 H       
  58 H58            3.4389     7.3135    -2.8742 H       
  59 H59            4.6206     8.5674    -1.2848 H       
  60 H60            6.6809     9.7257    -0.5990 H       
  61 H61            8.7841     9.3272    -1.8142 H       
  62 H62            8.8305     7.7698    -3.7195 H       
@<TRIPOS>BOND
   1    1    2 ar
   2    1    6 ar
   3    1   37 1
   4    2    3 ar
   5    2   38 1
   6    3    4 ar
   7    3   39 1
   8    4    5 ar
   9    4   40 1
  10    5    7 1
  11    5    6 ar
  12    6   10 1
  13    7    8 1
  14    7   41 1
  15    8    9 1
  16    8   21 1
  17    8   20 1
  18    9   10 am
  19    9   11 1
  20   10   17 2
  21   11   12 ar
  22   11   16 ar
  23   12   13 ar
  24   12   42 1
  25   13   14 ar
  26   13   43 1
  27   14   15 ar
  28   14   18 1
  29   15   16 ar
  30   15   44 1
  31   16   45 1
  32   18   19 1
  33   19   46 1
  34   19   47 1
  35   19   48 1
  36   20   24 1
  37   20   49 1
  38   20   50 1
  39   21   22 1
  40   21   51 1
  41   21   52 1
  42   22   23 1
  43   22   53 1
  44   22   54 1
  45   23   24 1
  46   23   25 1
  47   24   55 1
  48   24   56 1
  49   25   26 1
  50   25   57 1
  51   25   58 1
  52   26   27 ar
  53   26   31 ar
  54   27   28 ar
  55   27   59 1
  56   28   29 ar
  57   28   60 1
  58   29   30 ar
  59   29   61 1
  60   30   31 ar
  61   30   62 1
  62   31   32 1
  63   32   33 1
  64   33   34 1
  65   33   35 1
  66   33   36 1

#	End of record

