#	Name: ASD03090187
#	Creating user name:	WinNT
#	Creation time:	15. 06. 2019 20:28

#	Modifying user name:	WinNT
#	Modification time:	15. 06. 2019 20:28

#	Program:	/corina/corina34_cracker 3.40 0067  02.08.2006

@<TRIPOS>MOLECULE
ASD03090187
  49   51    0    0    0
SMALL
NO_CHARGES


@<TRIPOS>ATOM
   1 C1            -0.3996     1.5653    -1.8763 C.ar    
   2 C2            -0.3316     0.1991    -1.6698 C.ar    
   3 C3            -1.4395    -0.4673    -1.1766 C.ar    
   4 C4            -2.5938     0.2757    -0.9046 C.ar    
   5 C5            -2.5815     1.6503    -1.1401 C.ar    
   6 N6            -1.4999     2.2406    -1.6056 N.ar    
   7 C7            -3.8072    -0.3861    -0.3765 C.2     
   8 N8            -5.5417    -3.0298     1.1596 N.pl3   
   9 C9            -4.6161    -4.0296     1.4757 C.ar    
  10 C10           -3.3105    -3.6895     1.8046 C.ar    
  11 C11           -2.3971    -4.6780     2.1172 C.ar    
  12 C12           -2.7817    -6.0072     2.1030 C.ar    
  13 C13           -4.0850    -6.3504     1.7749 C.ar    
  14 C14           -5.0032    -5.3635     1.4666 C.ar    
  15 N15           -3.8591    -1.5790     0.1818 N.2     
  16 C16           -5.1146    -1.8537     0.5402 C.2     
  17 N17           -5.8839    -0.8401     0.2162 N.2     
  18 N18           -5.0573     0.1284    -0.3759 N.pl3   
  19 C19           -5.4694     1.4338    -0.8979 C.3     
  20 C20           -6.9963     1.5304    -0.8821 C.3     
  21 F21           -4.4585    -7.6487     1.7610 F       
  22 O22           -7.4654     1.4397     0.4646 O.3     
  23 C23            0.8048     2.2948    -2.4132 C.3     
  24 C24            0.4795     3.7833    -2.5518 C.3     
  25 C25            1.9801     2.1171    -1.4499 C.3     
  26 O26            1.1529     1.7621    -3.6927 O.3     
  27 F27           -1.8865    -6.9718     2.4086 F       
  28 C28           -7.4288     2.8689    -1.4838 C.3     
  29 H29            0.5766    -0.3418    -1.8915 H       
  30 H30           -1.4142    -1.5334    -1.0063 H       
  31 H31           -3.4650     2.2365    -0.9349 H       
  32 H32           -6.4803    -3.1535     1.3707 H       
  33 H33           -3.0091    -2.6525     1.8158 H       
  34 H34           -1.3818    -4.4129     2.3726 H       
  35 H35           -6.0181    -5.6302     1.2110 H       
  36 H36           -5.0489     2.2233    -0.2750 H       
  37 H37           -5.1087     1.5466    -1.9203 H       
  38 H38           -7.4180     0.7148    -1.4695 H       
  39 H39           -7.0722     2.0898     1.0627 H       
  40 H40            0.2139     4.1896    -1.5758 H       
  41 H41            1.3506     4.3110    -2.9402 H       
  42 H42           -0.3578     3.9099    -3.2381 H       
  43 H43            2.2118     1.0566    -1.3511 H       
  44 H44            2.8512     2.6447    -1.8383 H       
  45 H45            1.7145     2.5233    -0.4739 H       
  46 H46            0.4529     1.8408    -4.3552 H       
  47 H47           -7.0710     2.9381    -2.5111 H       
  48 H48           -8.5166     2.9377    -1.4726 H       
  49 H49           -7.0071     3.6845    -0.8964 H       
@<TRIPOS>BOND
   1    1    2 ar
   2    1   23 1
   3    1    6 ar
   4    2    3 ar
   5    2   29 1
   6    3    4 ar
   7    3   30 1
   8    4    5 ar
   9    4    7 1
  10    5    6 ar
  11    5   31 1
  12    7   15 2
  13    7   18 1
  14    8    9 1
  15    8   16 1
  16    8   32 1
  17    9   10 ar
  18    9   14 ar
  19   10   11 ar
  20   10   33 1
  21   11   12 ar
  22   11   34 1
  23   12   13 ar
  24   12   27 1
  25   13   14 ar
  26   13   21 1
  27   14   35 1
  28   15   16 1
  29   16   17 2
  30   17   18 1
  31   18   19 1
  32   19   20 1
  33   19   36 1
  34   19   37 1
  35   20   22 1
  36   20   28 1
  37   20   38 1
  38   22   39 1
  39   23   24 1
  40   23   25 1
  41   23   26 1
  42   24   40 1
  43   24   41 1
  44   24   42 1
  45   25   43 1
  46   25   44 1
  47   25   45 1
  48   26   46 1
  49   28   47 1
  50   28   48 1
  51   28   49 1

#	End of record

