#	Name: ASD01884404
#	Creating user name:	WinNT
#	Creation time:	15. 06. 2019 19:48

#	Modifying user name:	WinNT
#	Modification time:	15. 06. 2019 19:48

#	Program:	/corina/corina34_cracker 3.40 0067  02.08.2006

@<TRIPOS>MOLECULE
ASD01884404
  35   37    0    0    0
SMALL
NO_CHARGES


@<TRIPOS>ATOM
   1 C1            -0.0164     1.3576     0.0095 C.2     
   2 C2             0.0021    -0.0041     0.0020 C.2     
   3 C3             1.2440    -0.6750    -0.0134 C.2     
   4 C4             2.4024     0.0466    -0.0206 C.2     
   5 N5             2.3700     1.4022    -0.0130 N.am    
   6 C6             1.1987     2.0651     0.0017 C.2     
   7 C7             1.2898    -2.1583    -0.0214 C.ar    
   8 C8             3.6266     2.1553    -0.0205 C.3     
   9 O9             1.1912     3.2856     0.0079 O.2     
  10 C10            4.0445     2.4212    -1.4438 C.ar    
  11 C11            3.6208     3.5700    -2.0854 C.ar    
  12 C12            4.0041     3.8138    -3.3910 C.ar    
  13 C13            4.8114     2.9091    -4.0548 C.ar    
  14 C14            5.2358     1.7607    -3.4129 C.ar    
  15 C15            4.8561     1.5190    -2.1059 C.ar    
  16 C16            0.8127    -2.8780     1.0724 C.ar    
  17 C17            1.8047    -2.8356    -1.1249 C.ar    
  18 C18            1.8449    -4.2149    -1.1283 C.ar    
  19 C19            1.3744    -4.9262    -0.0365 C.ar    
  20 C20            0.8568    -4.2571     1.0606 C.ar    
  21 F21            1.4152    -6.2766    -0.0441 F       
  22 H22           -0.9563     1.8894     0.0169 H       
  23 H23           -0.9217    -0.5635     0.0082 H       
  24 H24            3.3528    -0.4663    -0.0321 H       
  25 H25            3.4856     3.1027     0.4997 H       
  26 H26            4.4004     1.5759     0.4831 H       
  27 H27            2.9901     4.2768    -1.5668 H       
  28 H28            3.6725     4.7110    -3.8925 H       
  29 H29            5.1102     3.0993    -5.0751 H       
  30 H30            5.8662     1.0537    -3.9316 H       
  31 H31            5.1877     0.6218    -1.6043 H       
  32 H32            0.4094    -2.3571     1.9282 H       
  33 H33            2.1714    -2.2818    -1.9766 H       
  34 H34            2.2434    -4.7406    -1.9833 H       
  35 H35            0.4911    -4.8155     1.9096 H       
@<TRIPOS>BOND
   1    1    2 2
   2    1    6 1
   3    1   22 1
   4    2    3 1
   5    2   23 1
   6    3    4 2
   7    3    7 1
   8    4    5 1
   9    4   24 1
  10    5    6 am
  11    5    8 1
  12    6    9 2
  13    7   16 ar
  14    7   17 ar
  15    8   10 1
  16    8   25 1
  17    8   26 1
  18   10   11 ar
  19   10   15 ar
  20   11   12 ar
  21   11   27 1
  22   12   13 ar
  23   12   28 1
  24   13   14 ar
  25   13   29 1
  26   14   15 ar
  27   14   30 1
  28   15   31 1
  29   16   20 ar
  30   16   32 1
  31   17   18 ar
  32   17   33 1
  33   18   19 ar
  34   18   34 1
  35   19   20 ar
  36   19   21 1
  37   20   35 1

#	End of record

