#	Name: ASD01903235
#	Creating user name:	WinNT
#	Creation time:	15. 06. 2019 19:54

#	Modifying user name:	WinNT
#	Modification time:	15. 06. 2019 19:54

#	Program:	/corina/corina34_cracker 3.40 0067  02.08.2006

@<TRIPOS>MOLECULE
ASD01903235
  39   41    0    0    0
SMALL
NO_CHARGES


@<TRIPOS>ATOM
   1 S1            -0.0242     1.7576    -0.0301 S.3     
   2 C2             0.0013    -0.0032    -0.0097 C.2     
   3 N3             1.2320    -0.4153    -0.0142 N.2     
   4 C4             2.1769     0.5142    -0.0322 C.2     
   5 C5             1.7377     1.7832    -0.0437 C.2     
   6 N6            -1.1185    -0.8216     0.0087 N.pl3   
   7 C7            -2.3870    -0.2623     0.1288 C.ar    
   8 C8             3.6232     0.1751    -0.0387 C.2     
   9 C9             4.6407     0.8840    -0.7055 C.2     
  10 N10            5.7764     0.2800    -0.4736 N.2     
  11 N11            5.5308    -0.8298     0.3441 N.pl3   
  12 C12            4.2071    -0.8759     0.6049 C.2     
  13 N13           -2.5133     1.0402     0.3305 N.ar    
  14 C14           -3.6974     1.6102     0.4494 C.ar    
  15 C15           -4.8548     0.8623     0.3671 C.ar    
  16 C16           -4.7658    -0.5075     0.1563 C.ar    
  17 C17           -3.5112    -1.0759     0.0303 C.ar    
  18 C18            6.5369    -1.7744     0.8357 C.3     
  19 N19            6.7708    -2.8087    -0.1752 N.am    
  20 C20            7.6627    -3.7914     0.0600 C.2     
  21 C21            7.9032    -4.8553    -0.9798 C.3     
  22 O22            8.2717    -3.8194     1.1084 O.2     
  23 C23            2.6029     3.0170    -0.0647 C.3     
  24 H24           -1.0174    -1.7837    -0.0621 H       
  25 H25            4.5061     1.7724    -1.3048 H       
  26 H26            3.7013    -1.6147     1.2088 H       
  27 H27           -3.7619     2.6757     0.6137 H       
  28 H28           -5.8195     1.3375     0.4661 H       
  29 H29           -5.6564    -1.1146     0.0882 H       
  30 H30           -3.4055    -2.1380    -0.1344 H       
  31 H31            7.4678    -1.2432     1.0340 H       
  32 H32            6.1806    -2.2389     1.7551 H       
  33 H33            6.2837    -2.7863    -1.0137 H       
  34 H34            7.2706    -4.6655    -1.8469 H       
  35 H35            8.9501    -4.8371    -1.2828 H       
  36 H36            7.6629    -5.8328    -0.5618 H       
  37 H37            2.8037     3.3024    -1.0973 H       
  38 H38            2.0867     3.8314     0.4436 H       
  39 H39            3.5440     2.8095     0.4445 H       
@<TRIPOS>BOND
   1    1    2 1
   2    1    5 1
   3    2    3 2
   4    2    6 1
   5    3    4 1
   6    4    5 2
   7    4    8 1
   8    5   23 1
   9    6    7 1
  10    6   24 1
  11    7   13 ar
  12    7   17 ar
  13    8    9 1
  14    8   12 2
  15    9   10 2
  16    9   25 1
  17   10   11 1
  18   11   12 1
  19   11   18 1
  20   12   26 1
  21   13   14 ar
  22   14   15 ar
  23   14   27 1
  24   15   16 ar
  25   15   28 1
  26   16   17 ar
  27   16   29 1
  28   17   30 1
  29   18   19 1
  30   18   31 1
  31   18   32 1
  32   19   20 am
  33   19   33 1
  34   20   21 1
  35   20   22 2
  36   21   34 1
  37   21   35 1
  38   21   36 1
  39   23   37 1
  40   23   38 1
  41   23   39 1

#	End of record

