#	Name: ASD01510117
#	Creating user name:	WinNT
#	Creation time:	15. 06. 2019 19:21

#	Modifying user name:	WinNT
#	Modification time:	15. 06. 2019 19:21

#	Program:	/corina/corina34_cracker 3.40 0067  02.08.2006

@<TRIPOS>MOLECULE
ASD01510117
  54   57    0    0    0
SMALL
NO_CHARGES


@<TRIPOS>ATOM
   1 C1             1.3073     1.5362     0.5160 C.3     
   2 N2             1.1316     0.0799     0.4379 N.3     
   3 C3             1.7879    -0.5911     1.5687 C.3     
   4 C4             1.5151    -2.0952     1.4941 C.3     
   5 N5             2.0132    -2.6179     0.2142 N.3     
   6 C6             1.3569    -1.9470    -0.9166 C.3     
   7 C7             1.6298    -0.4428    -0.8420 C.3     
   8 C8             1.8474    -3.9927     0.1405 C.ar    
   9 N9             1.2975    -4.6305     1.1616 N.ar    
  10 C10            1.1218    -5.9438     1.1300 C.ar    
  11 C11            1.5226    -6.6530     0.0069 C.ar    
  12 C12            2.1006    -5.9467    -1.0547 C.ar    
  13 N13            2.2389    -4.6315    -0.9523 N.ar    
  14 O14            2.5082    -6.5967    -2.1727 O.3     
  15 C15            3.0879    -5.8026    -3.2098 C.3     
  16 C16            3.4774    -6.6901    -4.3638 C.ar    
  17 C17            2.5731    -6.9409    -5.3787 C.ar    
  18 C18            2.9303    -7.7551    -6.4372 C.ar    
  19 C19            4.1921    -8.3180    -6.4810 C.ar    
  20 C20            5.0968    -8.0665    -5.4665 C.ar    
  21 C21            4.7410    -7.2488    -4.4102 C.ar    
  22 S22            1.3099    -8.3999    -0.0808 S.3     
  23 C23            0.7096    -8.8072     1.5249 C.ar    
  24 C24           -0.6590    -8.8790     1.7588 C.ar    
  25 C25           -1.1302    -9.1983     3.0175 C.ar    
  26 C26           -0.2441    -9.4473     4.0478 C.ar    
  27 C27            1.1257    -9.3773     3.8211 C.ar    
  28 C28            1.6029    -9.0626     2.5571 C.ar    
  29 N29            2.0205    -9.6292     4.8635 N.pl3   
  30 H30            2.3704     1.7756     0.4951 H       
  31 H31            0.8119     2.0079    -0.3327 H       
  32 H32            0.8697     1.9058     1.4434 H       
  33 H33            2.8624    -0.4137     1.5229 H       
  34 H34            1.3934    -0.1959     2.5048 H       
  35 H35            2.0250    -2.5985     2.3156 H       
  36 H36            0.4424    -2.2743     1.5673 H       
  37 H37            1.7515    -2.3422    -1.8527 H       
  38 H38            0.2824    -2.1244    -0.8708 H       
  39 H39            1.1199     0.0604    -1.6635 H       
  40 H40            2.7025    -0.2638    -0.9152 H       
  41 H41            0.6724    -6.4556     1.9682 H       
  42 H42            2.3630    -5.0627    -3.5491 H       
  43 H43            3.9732    -5.2950    -2.8269 H       
  44 H44            1.5873    -6.5011    -5.3445 H       
  45 H45            2.2235    -7.9516    -7.2298 H       
  46 H46            4.4710    -8.9547    -7.3076 H       
  47 H47            6.0824    -8.5065    -5.5005 H       
  48 H48            5.4477    -7.0523    -3.6176 H       
  49 H49           -1.3544    -8.6846     0.9557 H       
  50 H50           -2.1938    -9.2531     3.1967 H       
  51 H51           -0.6160    -9.6963     5.0307 H       
  52 H52            2.6666    -9.0079     2.3783 H       
  53 H53            1.6863    -9.8531     5.7462 H       
  54 H54            2.9762    -9.5802     4.7048 H       
@<TRIPOS>BOND
   1    1    2 1
   2    1   30 1
   3    1   31 1
   4    1   32 1
   5    2    3 1
   6    2    7 1
   7    3    4 1
   8    3   33 1
   9    3   34 1
  10    4    5 1
  11    4   35 1
  12    4   36 1
  13    5    6 1
  14    5    8 1
  15    6    7 1
  16    6   37 1
  17    6   38 1
  18    7   39 1
  19    7   40 1
  20    8    9 ar
  21    8   13 ar
  22    9   10 ar
  23   10   11 ar
  24   10   41 1
  25   11   12 ar
  26   11   22 1
  27   12   13 ar
  28   12   14 1
  29   14   15 1
  30   15   16 1
  31   15   42 1
  32   15   43 1
  33   16   17 ar
  34   16   21 ar
  35   17   18 ar
  36   17   44 1
  37   18   19 ar
  38   18   45 1
  39   19   20 ar
  40   19   46 1
  41   20   21 ar
  42   20   47 1
  43   21   48 1
  44   22   23 1
  45   23   24 ar
  46   23   28 ar
  47   24   25 ar
  48   24   49 1
  49   25   26 ar
  50   25   50 1
  51   26   27 ar
  52   26   51 1
  53   27   28 ar
  54   27   29 1
  55   28   52 1
  56   29   53 1
  57   29   54 1

#	End of record

