#	Name: ASD08150604
#	Creating user name:	WinNT
#	Creation time:	15. 06. 2019 21:16

#	Modifying user name:	WinNT
#	Modification time:	15. 06. 2019 21:16

#	Program:	/corina/corina34_cracker 3.40 0067  02.08.2006

@<TRIPOS>MOLECULE
ASD08150604
  68   74    0    0    0
SMALL
NO_CHARGES


@<TRIPOS>ATOM
   1 N1             2.4897     1.5609     8.1851 N.am    
   2 C2             1.7454     2.3340     8.9994 C.2     
   3 C3             2.3510     3.1417     9.9833 C.2     
   4 C4             3.7011     3.1507    10.1236 C.2     
   5 C5             4.4872     2.3382     9.2689 C.ar    
   6 C6             5.8910     2.3100     9.3725 C.ar    
   7 N7             6.6137     1.5595     8.5826 N.ar    
   8 C8             6.0684     0.7795     7.6370 C.ar    
   9 C9             4.6631     0.7445     7.4616 C.ar    
  10 C10            3.8526     1.5458     8.2997 C.ar    
  11 C11            4.1048    -0.0710     6.4725 C.ar    
  12 C12            4.9354    -0.8385     5.6720 C.ar    
  13 C13            6.3252    -0.7990     5.8518 C.ar    
  14 C14            6.8830    -0.0109     6.8095 C.ar    
  15 O15            0.5316     2.3354     8.8836 O.2     
  16 C16            4.3515    -1.7062     4.6205 C.ar    
  17 C17            1.8635     0.7629     7.2186 C.ar    
  18 C18            1.3283    -0.4684     7.5752 C.ar    
  19 C19            0.7115    -1.2546     6.6234 C.ar    
  20 C20            0.6257    -0.8144     5.3083 C.ar    
  21 C21            1.1609     0.4168     4.9519 C.ar    
  22 C22            1.7728     1.2055     5.9055 C.ar    
  23 N23            0.0013    -1.6108     4.3439 N.3     
  24 C24           -1.3848    -1.1771     4.1197 C.3     
  25 C25           -2.0063    -2.0203     3.0038 C.3     
  26 C26            3.0997    -2.3108     4.8171 C.ar    
  27 C27            0.0514    -3.0305     4.7204 C.3     
  28 C28           -0.5700    -3.8737     3.6045 C.3     
  29 N29           -1.9561    -3.4399     3.3803 N.3     
  30 C30           -2.6123    -4.2768     2.3669 C.3     
  31 N31            2.5602    -3.0808     3.9066 N.ar    
  32 C32            3.1733    -3.3301     2.7446 C.ar    
  33 C33            4.4405    -2.7561     2.4711 C.ar    
  34 C34            5.0357    -1.9219     3.4329 C.ar    
  35 C35            2.5781    -4.1604     1.7789 C.ar    
  36 C36            3.2213    -4.4000     0.6038 C.ar    
  37 C37            4.4670    -3.8351     0.3370 C.ar    
  38 C38            5.0757    -3.0259     1.2469 C.ar    
  39 C39            1.0683     0.8942     3.5255 C.3     
  40 F40            2.2773     1.4927     3.1547 F       
  41 F41            0.8097    -0.1941     2.6854 F       
  42 F42            0.0321     1.8273     3.4123 F       
  43 H43            1.7388     3.7555    10.6273 H       
  44 H44            4.1696     3.7684    10.8755 H       
  45 H45            6.3799     2.9198    10.1179 H       
  46 H46            3.0342    -0.1026     6.3337 H       
  47 H47            6.9614    -1.4025     5.2213 H       
  48 H48            7.9556     0.0076     6.9340 H       
  49 H49            1.3954    -0.8107     8.5974 H       
  50 H50            0.2958    -2.2120     6.9006 H       
  51 H51            2.1850     2.1648     5.6293 H       
  52 H52           -1.9594    -1.3072     5.0368 H       
  53 H53           -1.3947    -0.1263     3.8300 H       
  54 H54           -3.0435    -1.7198     2.8557 H       
  55 H55           -1.4480    -1.8691     2.0799 H       
  56 H56            2.5696    -2.1367     5.7418 H       
  57 H57            1.0887    -3.3310     4.8685 H       
  58 H58           -0.5068    -3.1816     5.6443 H       
  59 H59            0.0046    -3.7436     2.6874 H       
  60 H60           -0.5602    -4.9244     3.8942 H       
  61 H61           -2.6205    -5.3139     2.7020 H       
  62 H62           -3.6366    -3.9341     2.2205 H       
  63 H63           -2.0666    -4.2033     1.4262 H       
  64 H64            6.0000    -1.4688     3.2562 H       
  65 H65            1.6134    -4.6071     1.9692 H       
  66 H66            2.7589    -5.0387    -0.1342 H       
  67 H67            4.9560    -4.0422    -0.6034 H       
  68 H68            6.0410    -2.5935     1.0291 H       
@<TRIPOS>BOND
   1    1    2 am
   2    1   10 1
   3    1   17 1
   4    2    3 1
   5    2   15 2
   6    3    4 2
   7    3   43 1
   8    4    5 1
   9    4   44 1
  10    5    6 ar
  11    5   10 ar
  12    6    7 ar
  13    6   45 1
  14    7    8 ar
  15    8    9 ar
  16    8   14 ar
  17    9   10 ar
  18    9   11 ar
  19   11   12 ar
  20   11   46 1
  21   12   13 ar
  22   12   16 1
  23   13   14 ar
  24   13   47 1
  25   14   48 1
  26   16   26 ar
  27   16   34 ar
  28   17   18 ar
  29   17   22 ar
  30   18   19 ar
  31   18   49 1
  32   19   20 ar
  33   19   50 1
  34   20   21 ar
  35   20   23 1
  36   21   22 ar
  37   21   39 1
  38   22   51 1
  39   23   24 1
  40   23   27 1
  41   24   25 1
  42   24   52 1
  43   24   53 1
  44   25   29 1
  45   25   54 1
  46   25   55 1
  47   26   31 ar
  48   26   56 1
  49   27   28 1
  50   27   57 1
  51   27   58 1
  52   28   29 1
  53   28   59 1
  54   28   60 1
  55   29   30 1
  56   30   61 1
  57   30   62 1
  58   30   63 1
  59   31   32 ar
  60   32   33 ar
  61   32   35 ar
  62   33   34 ar
  63   33   38 ar
  64   34   64 1
  65   35   36 ar
  66   35   65 1
  67   36   37 ar
  68   36   66 1
  69   37   38 ar
  70   37   67 1
  71   38   68 1
  72   39   40 1
  73   39   41 1
  74   39   42 1

#	End of record

