#	Name: ASD01911624
#	Creating user name:	WinNT
#	Creation time:	15. 06. 2019 19:58

#	Modifying user name:	WinNT
#	Modification time:	15. 06. 2019 19:58

#	Program:	/corina/corina34_cracker 3.40 0067  02.08.2006

@<TRIPOS>MOLECULE
ASD01911624
  37   39    0    0    0
SMALL
NO_CHARGES


@<TRIPOS>ATOM
   1 N1            -0.0105     1.2583    -0.4700 N.am    
   2 C2             0.0021    -0.0041     0.0020 C.2     
   3 C3            -1.2508    -0.7543     0.1205 C.2     
   4 C4            -1.3862    -2.1135     0.0310 C.2     
   5 S5            -2.8471    -0.0659     0.4110 S.3     
   6 C6            -3.5482    -1.6812     0.3759 C.2     
   7 N7            -2.6016    -2.5625     0.1683 N.2     
   8 C8            -4.9366    -1.9845     0.5525 C.1     
   9 C9            -6.0748    -2.2331     0.6972 C.1     
  10 C10           -7.4631    -2.5364     0.8737 C.ar    
  11 C11           -7.9044    -3.8622     0.8254 C.ar    
  12 C12          -10.1488    -3.1229     1.2147 C.ar    
  13 C13           -9.7188    -1.8086     1.2700 C.ar    
  14 C14           -8.3835    -1.5086     1.1010 C.ar    
  15 O15            1.0542    -0.5208     0.3298 O.2     
  16 C16            1.2128     2.0720    -0.4638 C.3     
  17 C17            1.4587     2.6035    -1.8793 C.3     
  18 C18            0.2119     3.3467    -2.3646 C.3     
  19 C19           -0.9742     2.3807    -2.4105 C.3     
  20 C20           -1.2463     1.8447    -1.0061 C.3     
  21 C21           -9.2429    -4.1463     0.9963 C.ar    
  22 F22            2.5491     3.4799    -1.8662 F       
  23 F23            1.7289     1.5337    -2.7394 F       
  24 H24           -0.5446    -2.7679    -0.1417 H       
  25 H25           -7.1988    -4.6618     0.6544 H       
  26 H26          -11.1958    -3.3516     1.3478 H       
  27 H27          -10.4316    -1.0154     1.4408 H       
  28 H28           -8.0494    -0.4825     1.1444 H       
  29 H29            1.0919     2.9084     0.2247 H       
  30 H30            2.0581     1.4586    -0.1518 H       
  31 H31           -0.0125     4.1649    -1.6803 H       
  32 H32            0.3930     3.7471    -3.3620 H       
  33 H33           -1.8563     2.9049    -2.7784 H       
  34 H34           -0.7408     1.5493    -3.0756 H       
  35 H35           -2.0246     1.0829    -1.0502 H       
  36 H36           -1.5676     2.6612    -0.3593 H       
  37 H37           -9.5853    -5.1699     0.9592 H       
@<TRIPOS>BOND
   1    1    2 am
   2    1   16 1
   3    1   20 1
   4    2    3 1
   5    2   15 2
   6    3    4 2
   7    3    5 1
   8    4    7 1
   9    4   24 1
  10    5    6 1
  11    6    7 2
  12    6    8 1
  13    8    9 3
  14    9   10 1
  15   10   11 ar
  16   10   14 ar
  17   11   21 ar
  18   11   25 1
  19   12   13 ar
  20   12   21 ar
  21   12   26 1
  22   13   14 ar
  23   13   27 1
  24   14   28 1
  25   16   17 1
  26   16   29 1
  27   16   30 1
  28   17   18 1
  29   17   22 1
  30   17   23 1
  31   18   19 1
  32   18   31 1
  33   18   32 1
  34   19   20 1
  35   19   33 1
  36   19   34 1
  37   20   35 1
  38   20   36 1
  39   21   37 1

#	End of record

