#	Name: ASD03170007
#	Creating user name:	WinNT
#	Creation time:	15. 06. 2019 20:33

#	Modifying user name:	WinNT
#	Modification time:	15. 06. 2019 20:33

#	Program:	/corina/corina34_cracker 3.40 0067  02.08.2006

@<TRIPOS>MOLECULE
ASD03170007
  45   48    0    0    0
SMALL
NO_CHARGES


@<TRIPOS>ATOM
   1 O1            -0.0164     1.3548     0.0095 O.3     
   2 C2             0.0021    -0.0041     0.0020 C.ar    
   3 C3             0.0230    -0.7085     1.1968 C.ar    
   4 C4             0.0492    -2.0867     1.1801 C.ar    
   5 C5             0.0554    -2.7802    -0.0249 C.ar    
   6 C6             0.0196    -2.0808    -1.2100 C.ar    
   7 C7            -0.0056    -0.6948    -1.1989 C.ar    
   8 C8            -0.0214    -2.7767    -2.5504 C.3     
   9 C9             0.7240    -1.9561    -3.6049 C.3     
  10 C10           -1.5016    -2.9401    -2.9389 C.3     
  11 C11           -2.2086    -3.6676    -1.7898 C.3     
  12 N12           -1.5983    -4.9866    -1.5967 N.3     
  13 C13           -0.1705    -4.9196    -1.3122 C.3     
  14 C14            0.1216    -4.2826     0.0353 C.3     
  15 C15            0.5988    -4.1714    -2.4168 C.3     
  16 C16            2.0763    -4.0632    -2.0341 C.3     
  17 C17           -2.3068    -5.7476    -0.5590 C.3     
  18 C18           -3.7021    -6.0640    -1.0325 C.2     
  19 C19           -4.0704    -7.1614    -1.7175 C.2     
  20 C20           -5.4600    -7.0499    -1.9534 C.2     
  21 C21           -5.8577    -5.8909    -1.3984 C.2     
  22 O22           -4.7898    -5.3008    -0.8370 O.3     
  23 H23            0.8616     1.7601     0.0033 H       
  24 H24            0.0191    -0.1785     2.1379 H       
  25 H25            0.0653    -2.6328     2.1117 H       
  26 H26           -0.0223    -0.1504    -2.1315 H       
  27 H27            1.7638    -1.8336    -3.3017 H       
  28 H28            0.6835    -2.4735    -4.5634 H       
  29 H29            0.2557    -0.9765    -3.7007 H       
  30 H30           -1.9542    -1.9600    -3.0896 H       
  31 H31           -1.5807    -3.5287    -3.8529 H       
  32 H32           -2.1094    -3.0839    -0.8746 H       
  33 H33           -3.2648    -3.7877    -2.0312 H       
  34 H34            0.2143    -5.9392    -1.2900 H       
  35 H35            1.1187    -4.5807     0.3596 H       
  36 H36           -0.6075    -4.6406     0.7622 H       
  37 H37            0.5013    -4.7077    -3.3607 H       
  38 H38            2.4951    -5.0626    -1.9158 H       
  39 H39            2.6168    -3.5332    -2.8183 H       
  40 H40            2.1694    -3.5168    -1.0956 H       
  41 H41           -1.7714    -6.6760    -0.3600 H       
  42 H42           -2.3587    -5.1551     0.3544 H       
  43 H43           -3.4279    -7.9720    -2.0283 H       
  44 H44           -6.0826    -7.7589    -2.4788 H       
  45 H45           -6.8655    -5.5028    -1.4003 H       
@<TRIPOS>BOND
   1    1    2 1
   2    1   23 1
   3    2    3 ar
   4    2    7 ar
   5    3    4 ar
   6    3   24 1
   7    4    5 ar
   8    4   25 1
   9    5    6 ar
  10    5   14 1
  11    6    7 ar
  12    6    8 1
  13    7   26 1
  14    8    9 1
  15    8   10 1
  16    8   15 1
  17    9   27 1
  18    9   28 1
  19    9   29 1
  20   10   11 1
  21   10   30 1
  22   10   31 1
  23   11   12 1
  24   11   32 1
  25   11   33 1
  26   12   13 1
  27   12   17 1
  28   13   14 1
  29   13   15 1
  30   13   34 1
  31   14   35 1
  32   14   36 1
  33   15   16 1
  34   15   37 1
  35   16   38 1
  36   16   39 1
  37   16   40 1
  38   17   18 1
  39   17   41 1
  40   17   42 1
  41   18   19 2
  42   18   22 1
  43   19   20 1
  44   19   43 1
  45   20   21 2
  46   20   44 1
  47   21   22 1
  48   21   45 1

#	End of record

