#	Name: ASD08170191
#	Creating user name:	WinNT
#	Creation time:	15. 06. 2019 21:17

#	Modifying user name:	WinNT
#	Modification time:	15. 06. 2019 21:17

#	Program:	/corina/corina34_cracker 3.40 0067  02.08.2006

@<TRIPOS>MOLECULE
ASD08170191
  75   78    0    0    0
SMALL
NO_CHARGES


@<TRIPOS>ATOM
   1 C1             2.8000     0.8692     0.2360 C.ar    
   2 C2             2.5532    -0.6174     0.2168 C.3     
   3 C3             2.4159    -1.1221     1.6302 C.2     
   4 N4             2.1893    -2.4307     1.8594 N.am    
   5 O5             2.5092    -0.3506     2.5613 O.2     
   6 C6             2.0625    -2.8965     3.1636 C.2     
   7 S7             1.7814    -4.5236     3.6200 S.3     
   8 N8             2.1434    -2.1708     4.2379 N.2     
   9 N9             2.0052    -2.7525     5.3499 N.2     
  10 C10            1.7956    -4.0301     5.3135 C.2     
  11 C11            1.6031    -4.9336     6.5042 C.3     
  12 C12            0.1151    -5.0089     6.8520 C.3     
  13 C13           -0.0803    -5.9261     8.0609 C.3     
  14 C14           -1.5684    -6.0014     8.4086 C.3     
  15 C15           -1.7609    -6.9049     9.5993 C.2     
  16 N16           -1.7560    -6.5417    10.8426 N.2     
  17 S17           -2.0409    -8.6458     9.5500 S.3     
  18 C18           -2.1101    -8.6636    11.2616 C.2     
  19 N19           -1.9355    -7.4527    11.6979 N.2     
  20 N20           -2.3235    -9.7874    12.0526 N.am    
  21 C21           -2.3565    -9.6704    13.3948 C.2     
  22 C22           -2.5877   -10.8881    14.2519 C.3     
  23 O23           -2.2001    -8.5850    13.9129 O.2     
  24 C24            4.0933     1.3544     0.2893 C.ar    
  25 C25            4.3197     2.7180     0.3070 C.ar    
  26 C26            3.2529     3.5963     0.2709 C.ar    
  27 C27            1.9596     3.1110     0.2167 C.ar    
  28 C28            1.7334     1.7475     0.1946 C.ar    
  29 C29           -2.5791   -10.4887    15.7050 C.ar    
  30 C30           -1.3810   -10.1270    17.7464 C.ar    
  31 C31           -1.3922   -10.4926    16.4146 C.ar    
  32 C32           -3.7571   -10.1136    16.3244 C.ar    
  33 C33           -3.7525    -9.7470    17.6560 C.ar    
  34 C34           -2.5633    -9.7553    18.3729 C.ar    
  35 N35           -2.5553    -9.3848    19.7224 N.am    
  36 C36           -3.5989    -9.7015    20.5143 C.2     
  37 O37           -4.5828   -10.2331    20.0391 O.2     
  38 O38           -3.5512    -9.4288    21.8321 O.3     
  39 C39           -4.7110    -9.7977    22.6240 C.3     
  40 C40           -4.9372   -11.3076    22.5245 C.3     
  41 C41           -4.4739    -9.4127    24.0856 C.3     
  42 C42           -5.9440    -9.0614    22.0962 C.3     
  43 H43            1.6363    -0.8263    -0.3343 H       
  44 H44            3.3909    -1.1185    -0.2682 H       
  45 H45            2.1146    -3.0477     1.1146 H       
  46 H46            1.9716    -5.9315     6.2665 H       
  47 H47            2.1555    -4.5355     7.3554 H       
  48 H48           -0.2534    -4.0110     7.0897 H       
  49 H49           -0.4373    -5.4070     6.0008 H       
  50 H50            0.2882    -6.9240     7.8231 H       
  51 H51            0.4720    -5.5280     8.9120 H       
  52 H52           -1.9369    -5.0035     8.6464 H       
  53 H53           -2.1207    -6.3995     7.5575 H       
  54 H54           -2.4486   -10.6555    11.6382 H       
  55 H55           -3.5522   -11.3303    14.0024 H       
  56 H56           -1.7966   -11.6157    14.0704 H       
  57 H57            4.9268     0.6682     0.3175 H       
  58 H58            5.3301     3.0971     0.3493 H       
  59 H59            3.4298     4.6616     0.2854 H       
  60 H60            1.1261     3.7973     0.1888 H       
  61 H61            0.7230     1.3684     0.1522 H       
  62 H62           -0.4537   -10.1306    18.3002 H       
  63 H63           -0.4731   -10.7821    15.9269 H       
  64 H64           -4.6817   -10.1071    15.7663 H       
  65 H65           -4.6729    -9.4538    18.1392 H       
  66 H66           -1.7988    -8.9001    20.0878 H       
  67 H67           -4.0588   -11.8321    22.9005 H       
  68 H68           -5.8079   -11.5844    23.1190 H       
  69 H69           -5.1061   -11.5818    21.4832 H       
  70 H70           -4.3127    -8.3370    24.1565 H       
  71 H71           -5.3445    -9.6896    24.6801 H       
  72 H72           -3.5955    -9.9372    24.4616 H       
  73 H73           -6.1129    -9.3356    21.0549 H       
  74 H74           -6.8146    -9.3382    22.6906 H       
  75 H75           -5.7828    -7.9857    22.1670 H       
@<TRIPOS>BOND
   1    1    2 1
   2    1   24 ar
   3    1   28 ar
   4    2    3 1
   5    2   43 1
   6    2   44 1
   7    3    4 am
   8    3    5 2
   9    4    6 1
  10    4   45 1
  11    6    8 2
  12    6    7 1
  13    7   10 1
  14    8    9 1
  15    9   10 2
  16   10   11 1
  17   11   12 1
  18   11   46 1
  19   11   47 1
  20   12   13 1
  21   12   48 1
  22   12   49 1
  23   13   14 1
  24   13   50 1
  25   13   51 1
  26   14   15 1
  27   14   52 1
  28   14   53 1
  29   15   17 1
  30   15   16 2
  31   16   19 1
  32   17   18 1
  33   18   19 2
  34   18   20 1
  35   20   21 am
  36   20   54 1
  37   21   22 1
  38   21   23 2
  39   22   29 1
  40   22   55 1
  41   22   56 1
  42   24   25 ar
  43   24   57 1
  44   25   26 ar
  45   25   58 1
  46   26   27 ar
  47   26   59 1
  48   27   28 ar
  49   27   60 1
  50   28   61 1
  51   29   32 ar
  52   29   31 ar
  53   30   31 ar
  54   30   34 ar
  55   30   62 1
  56   31   63 1
  57   32   33 ar
  58   32   64 1
  59   33   34 ar
  60   33   65 1
  61   34   35 1
  62   35   36 am
  63   35   66 1
  64   36   37 2
  65   36   38 1
  66   38   39 1
  67   39   40 1
  68   39   41 1
  69   39   42 1
  70   40   67 1
  71   40   68 1
  72   40   69 1
  73   41   70 1
  74   41   71 1
  75   41   72 1
  76   42   73 1
  77   42   74 1
  78   42   75 1

#	End of record

