#	Name: ASD00170282
#	Creating user name:	WinNT
#	Creation time:	15. 06. 2019 18:31

#	Modifying user name:	WinNT
#	Modification time:	15. 06. 2019 18:31

#	Program:	/corina/corina34_cracker 3.40 0067  02.08.2006

@<TRIPOS>MOLECULE
ASD00170282
  26   27    0    0    0
SMALL
NO_CHARGES


@<TRIPOS>ATOM
   1 C1            -0.0373     1.3715    -0.1324 C.2     
   2 C2             0.0067     0.0044    -0.0050 C.2     
   3 C3            -1.3052    -0.5843     0.1605 C.2     
   4 C4            -2.2822     0.3097     0.1559 C.2     
   5 S5            -1.6447     1.9318    -0.0462 S.3     
   6 C6             1.2473    -0.7736    -0.0334 C.2     
   7 C7             1.9507    -1.0851     1.2236 C.2     
   8 O8             1.6978    -1.1632    -1.0962 O.2     
   9 N9             1.0691     2.1811    -0.3012 N.pl3   
  10 C10           -1.5361    -2.0648     0.3211 C.3     
  11 C11            1.5684    -0.6024     2.4359 C.2     
  12 S12            2.6050    -1.1651     3.6664 S.3     
  13 C13            3.5835    -2.0758     2.5291 C.2     
  14 C14            3.1128    -1.9390     1.2948 C.2     
  15 C15           -3.7445    -0.0212     0.3091 C.3     
  16 H16            1.9601     1.7999    -0.2586 H       
  17 H17            0.9551     3.1308    -0.4623 H       
  18 H18           -1.5069    -2.3243     1.3794 H       
  19 H19           -2.5105    -2.3274    -0.0906 H       
  20 H20           -0.7577    -2.6135    -0.2091 H       
  21 H21            0.7226     0.0495     2.5973 H       
  22 H22            4.4458    -2.6686     2.7964 H       
  23 H23            3.5579    -2.4121     0.4320 H       
  24 H24           -4.0123    -0.0032     1.3655 H       
  25 H25           -4.3418     0.7143    -0.2298 H       
  26 H26           -3.9369    -1.0140    -0.0976 H       
@<TRIPOS>BOND
   1    1    2 2
   2    1    9 1
   3    1    5 1
   4    2    3 1
   5    2    6 1
   6    3    4 2
   7    3   10 1
   8    4    5 1
   9    4   15 1
  10    6    7 1
  11    6    8 2
  12    7   11 2
  13    7   14 1
  14    9   16 1
  15    9   17 1
  16   10   18 1
  17   10   19 1
  18   10   20 1
  19   11   12 1
  20   11   21 1
  21   12   13 1
  22   13   14 2
  23   13   22 1
  24   14   23 1
  25   15   24 1
  26   15   25 1
  27   15   26 1

#	End of record

