#	Name: ASD03091822
#	Creating user name:	WinNT
#	Creation time:	15. 06. 2019 20:31

#	Modifying user name:	WinNT
#	Modification time:	15. 06. 2019 20:31

#	Program:	/corina/corina34_cracker 3.40 0067  02.08.2006

@<TRIPOS>MOLECULE
ASD03091822
  50   54    0    0    0
SMALL
NO_CHARGES


@<TRIPOS>ATOM
   1 N1            -0.0178     1.4608     0.0101 N.pl3   
   2 C2            -1.3269    -2.0640     0.4733 C.3     
   3 C3            -1.2939    -0.5345     0.6219 C.3     
   4 C4             0.0021    -0.0041     0.0020 C.3     
   5 C5             0.1277    -0.5039    -1.4400 C.3     
   6 C6            -0.0017    -2.0355    -1.4488 C.3     
   7 C7             0.9201    -2.5943    -0.3405 C.3     
   8 C8             0.0444    -2.6132     0.9296 C.3     
   9 N9            -1.3749    -2.3645    -0.9824 N.3     
  10 C10           -1.6856    -3.7809    -1.2176 C.3     
  11 C11            1.1823     2.1756     0.0025 C.ar    
  12 C12            1.1639     3.5627     0.0101 C.ar    
  13 C13            2.3624     4.2706     0.0029 C.ar    
  14 C14            3.5744     3.5820    -0.0119 C.ar    
  15 C15            3.5846     2.2016    -0.0198 C.ar    
  16 C16            2.3953     1.4975    -0.0070 C.ar    
  17 N17            2.5734     9.8808     0.0276 N.pl3   
  18 C18            3.9281    10.0726     0.0169 C.2     
  19 C19            4.5583     8.8876     0.0063 C.2     
  20 C20            3.5220     7.8518     0.0106 C.ar    
  21 C21            3.5466     6.4573     0.0034 C.ar    
  22 C22            2.3500     5.7545     0.0105 C.ar    
  23 C23            1.1321     6.4425     0.0244 C.ar    
  24 C24            1.1027     7.8070     0.0311 C.ar    
  25 C25            2.2906     8.5331     0.0241 C.ar    
  26 H26           -0.8643     1.9343     0.0167 H       
  27 H27           -2.1542    -2.5122     1.0237 H       
  28 H28           -2.1500    -0.0990     0.1066 H       
  29 H29           -1.3282    -0.2695     1.6787 H       
  30 H30            0.8535    -0.3583     0.5832 H       
  31 H31           -0.6645    -0.0671    -2.0481 H       
  32 H32            1.0993    -0.2172    -1.8424 H       
  33 H33            0.2246    -2.4610    -2.4265 H       
  34 H34            1.2462    -3.6037    -0.5915 H       
  35 H35            1.7810    -1.9411    -0.1980 H       
  36 H36            0.4747    -1.9693     1.6966 H       
  37 H37           -0.0602    -3.6319     1.3031 H       
  38 H38           -2.6552    -4.0177    -0.7797 H       
  39 H39           -1.7145    -3.9732    -2.2901 H       
  40 H40           -0.9175    -4.4026    -0.7575 H       
  41 H41            0.2224     4.0918     0.0212 H       
  42 H42            4.5058     4.1287    -0.0174 H       
  43 H43            4.5247     1.6702    -0.0320 H       
  44 H44            2.4086     0.4176    -0.0088 H       
  45 H45            1.9106    10.5889     0.0401 H       
  46 H46            4.4178    11.0352     0.0164 H       
  47 H47            5.6264     8.7279    -0.0041 H       
  48 H48            4.4885     5.9291    -0.0083 H       
  49 H49            0.2053     5.8881     0.0296 H       
  50 H50            0.1552     8.3250     0.0415 H       
@<TRIPOS>BOND
   1    1    4 1
   2    1   11 1
   3    1   26 1
   4    2    3 1
   5    2    8 1
   6    2    9 1
   7    2   27 1
   8    3    4 1
   9    3   28 1
  10    3   29 1
  11    4    5 1
  12    4   30 1
  13    5    6 1
  14    5   31 1
  15    5   32 1
  16    6    7 1
  17    6    9 1
  18    6   33 1
  19    7    8 1
  20    7   34 1
  21    7   35 1
  22    8   36 1
  23    8   37 1
  24    9   10 1
  25   10   38 1
  26   10   39 1
  27   10   40 1
  28   11   12 ar
  29   11   16 ar
  30   12   13 ar
  31   12   41 1
  32   13   14 ar
  33   13   22 1
  34   14   15 ar
  35   14   42 1
  36   15   16 ar
  37   15   43 1
  38   16   44 1
  39   17   18 1
  40   17   25 1
  41   17   45 1
  42   18   19 2
  43   18   46 1
  44   19   20 1
  45   19   47 1
  46   20   21 ar
  47   20   25 ar
  48   21   22 ar
  49   21   48 1
  50   22   23 ar
  51   23   24 ar
  52   23   49 1
  53   24   25 ar
  54   24   50 1

#	End of record

