#	Name: ASD01120043
#	Creating user name:	WinNT
#	Creation time:	15. 06. 2019 18:58

#	Modifying user name:	WinNT
#	Modification time:	15. 06. 2019 18:58

#	Program:	/corina/corina34_cracker 3.40 0067  02.08.2006

@<TRIPOS>MOLECULE
ASD01120043
  54   57    0    0    0
SMALL
NO_CHARGES


@<TRIPOS>ATOM
   1 C1            -0.0901     1.3500     0.6471 C.ar    
   2 C2            -0.0520    -0.0391     0.4628 C.ar    
   3 C3            -1.1845    -0.7311     0.0944 C.ar    
   4 C4            -2.3852    -0.0371    -0.0973 C.ar    
   5 C5            -2.4160     1.3670     0.0908 C.ar    
   6 C6            -1.2521     2.0460     0.4704 C.ar    
   7 N7            -3.5162    -0.6644    -0.4568 N.ar    
   8 C8            -4.6262     0.0128    -0.6295 C.ar    
   9 N9            -4.7024     1.3239    -0.4652 N.ar    
  10 C10           -3.6441     2.0409    -0.1107 C.ar    
  11 N11           -3.7382     3.4079     0.0575 N.pl3   
  12 C12           -4.9822     4.0392    -0.0323 C.ar    
  13 C13           -6.1279     3.3761     0.3809 C.ar    
  14 C14           -7.3649     4.0094     0.2900 C.ar    
  15 C15           -7.4446     5.3059    -0.2157 C.ar    
  16 C16           -6.2991     5.9593    -0.6251 C.ar    
  17 C17           -5.0706     5.3340    -0.5304 C.ar    
  18 C18           -8.5947     3.3058     0.7297 C.2     
  19 O19            1.0410     2.0112     1.0113 O.3     
  20 O20            1.1146    -0.7099     0.6491 O.3     
  21 C21            0.9384     3.4261     1.1836 C.3     
  22 C22            2.3011     3.9905     1.5901 C.3     
  23 C23            1.0892    -2.1242     0.4461 C.3     
  24 C24            2.4834    -2.7009     0.7001 C.3     
  25 C25           -8.5755     2.0921     1.3168 C.2     
  26 S26          -10.2398     1.6368     1.6722 S.3     
  27 C27          -10.7986     3.1074     1.0042 C.2     
  28 N28           -9.8087     3.8172     0.5854 N.2     
  29 C29          -12.2461     3.5185     0.9219 C.3     
  30 C30           -6.3884     7.3610    -1.1714 C.3     
  31 F31           -6.2576     8.2790    -0.1239 F       
  32 F32           -5.3633     7.5652    -2.1013 F       
  33 F33           -7.6273     7.5399    -1.7963 F       
  34 H34           -1.1464    -1.8013    -0.0458 H       
  35 H35           -1.2709     3.1162     0.6148 H       
  36 H36           -5.5179    -0.5234    -0.9191 H       
  37 H37           -2.9411     3.9304     0.2380 H       
  38 H38           -6.0612     2.3715     0.7718 H       
  39 H39           -8.4025     5.7993    -0.2878 H       
  40 H40           -4.1777     5.8496    -0.8516 H       
  41 H41            0.6201     3.8840     0.2471 H       
  42 H42            0.2075     3.6452     1.9620 H       
  43 H43            3.0320     3.7714     0.8117 H       
  44 H44            2.2228     5.0697     1.7215 H       
  45 H45            2.6194     3.5326     2.5266 H       
  46 H46            0.3773    -2.5775     1.1358 H       
  47 H47            0.7886    -2.3387    -0.5794 H       
  48 H48            3.1953    -2.2476     0.0104 H       
  49 H49            2.7841    -2.4864     1.7256 H       
  50 H50            2.4641    -3.7797     0.5452 H       
  51 H51           -7.6957     1.5032     1.5306 H       
  52 H52          -12.8710     2.7361     1.3524 H       
  53 H53          -12.3924     4.4461     1.4754 H       
  54 H54          -12.5218     3.6708    -0.1216 H       
@<TRIPOS>BOND
   1    1    2 ar
   2    1   19 1
   3    1    6 ar
   4    2    3 ar
   5    2   20 1
   6    3    4 ar
   7    3   34 1
   8    4    5 ar
   9    4    7 ar
  10    5    6 ar
  11    5   10 ar
  12    6   35 1
  13    7    8 ar
  14    8    9 ar
  15    8   36 1
  16    9   10 ar
  17   10   11 1
  18   11   12 1
  19   11   37 1
  20   12   13 ar
  21   12   17 ar
  22   13   14 ar
  23   13   38 1
  24   14   15 ar
  25   14   18 1
  26   15   16 ar
  27   15   39 1
  28   16   17 ar
  29   16   30 1
  30   17   40 1
  31   18   25 2
  32   18   28 1
  33   19   21 1
  34   20   23 1
  35   21   22 1
  36   21   41 1
  37   21   42 1
  38   22   43 1
  39   22   44 1
  40   22   45 1
  41   23   24 1
  42   23   46 1
  43   23   47 1
  44   24   48 1
  45   24   49 1
  46   24   50 1
  47   25   26 1
  48   25   51 1
  49   26   27 1
  50   27   28 2
  51   27   29 1
  52   29   52 1
  53   29   53 1
  54   29   54 1
  55   30   31 1
  56   30   32 1
  57   30   33 1

#	End of record

