#	Name: ASD09610035
#	Creating user name:	WinNT
#	Creation time:	15. 06. 2019 21:22

#	Modifying user name:	WinNT
#	Modification time:	15. 06. 2019 21:22

#	Program:	/corina/corina34_cracker 3.40 0067  02.08.2006

@<TRIPOS>MOLECULE
ASD09610035
  45   46    0    0    0
SMALL
NO_CHARGES


@<TRIPOS>ATOM
   1 C1            -0.6888     1.4967     0.7914 C.2     
   2 N2            -0.8982     0.2322     1.0277 N.2     
   3 C3             0.2793    -0.4033     1.1382 C.2     
   4 C4             1.2632     0.4965     0.9647 C.2     
   5 N5             0.6567     1.7107     0.7431 N.am    
   6 C6             1.2746     2.8875     0.5198 C.2     
   7 O7             2.4874     2.9425     0.5015 O.2     
   8 O8             0.5476     4.0013     0.3173 O.3     
   9 C9             0.4537     6.1543    -0.8166 C.3     
  10 C10            1.2799     5.2330     0.0831 C.3     
  11 C11            1.5467     5.9297     1.4189 C.3     
  12 C12            2.5135     5.0846     2.2507 C.3     
  13 C13            2.1636     7.3060     1.1620 C.3     
  14 C14            0.2296     6.0951     2.1797 C.3     
  15 O15           -0.7577     6.5117    -0.1482 O.3     
  16 C16           -1.6119     7.3328    -0.8155 C.ar    
  17 C17           -2.8059     7.7191    -0.2249 C.ar    
  18 C18           -3.6736     8.5532    -0.9027 C.ar    
  19 C19           -3.3506     9.0047    -2.1737 C.ar    
  20 C20           -2.1562     8.6191    -2.7640 C.ar    
  21 C21           -1.2865     7.7886    -2.0844 C.ar    
  22 O22           -4.2052     9.8251    -2.8414 O.3     
  23 C23           -3.8086    10.2516    -4.1463 C.3     
  24 H24           -1.4526     2.2476     0.6527 H       
  25 H25            0.4132    -1.4570     1.3336 H       
  26 H26            2.3253     0.3030     0.9939 H       
  27 H27            1.0261     7.0552    -1.0376 H       
  28 H28            0.2168     5.6372    -1.7464 H       
  29 H29            2.2283     5.0049    -0.4035 H       
  30 H30            3.4518     4.9667     1.7087 H       
  31 H31            2.7035     5.5809     3.2024 H       
  32 H32            2.0740     4.1040     2.4337 H       
  33 H33            1.4748     7.9081     0.5694 H       
  34 H34            2.3536     7.8023     2.1137 H       
  35 H35            3.1019     7.1881     0.6200 H       
  36 H36           -0.3100     5.1480     2.1821 H       
  37 H37            0.4383     6.3969     3.2061 H       
  38 H38           -0.3778     6.8581     1.6930 H       
  39 H39           -3.0574     7.3675     0.7648 H       
  40 H40           -4.6037     8.8534    -0.4431 H       
  41 H41           -1.9049     8.9705    -3.7538 H       
  42 H42           -0.3547     7.4913    -2.5425 H       
  43 H43           -3.6765     9.3810    -4.7887 H       
  44 H44           -4.5779    10.8996    -4.5662 H       
  45 H45           -2.8688    10.7997    -4.0794 H       
@<TRIPOS>BOND
   1    1    2 2
   2    1    5 1
   3    1   24 1
   4    2    3 1
   5    3    4 2
   6    3   25 1
   7    4    5 1
   8    4   26 1
   9    5    6 am
  10    6    7 2
  11    6    8 1
  12    8   10 1
  13    9   10 1
  14    9   15 1
  15    9   27 1
  16    9   28 1
  17   10   11 1
  18   10   29 1
  19   11   12 1
  20   11   13 1
  21   11   14 1
  22   12   30 1
  23   12   31 1
  24   12   32 1
  25   13   33 1
  26   13   34 1
  27   13   35 1
  28   14   36 1
  29   14   37 1
  30   14   38 1
  31   15   16 1
  32   16   17 ar
  33   16   21 ar
  34   17   18 ar
  35   17   39 1
  36   18   19 ar
  37   18   40 1
  38   19   20 ar
  39   19   22 1
  40   20   21 ar
  41   20   41 1
  42   21   42 1
  43   22   23 1
  44   23   43 1
  45   23   44 1
  46   23   45 1

#	End of record

