#	Name: ASD01884834
#	Creating user name:	WinNT
#	Creation time:	15. 06. 2019 19:48

#	Modifying user name:	WinNT
#	Modification time:	15. 06. 2019 19:48

#	Program:	/corina/corina34_cracker 3.40 0067  02.08.2006

@<TRIPOS>MOLECULE
ASD01884834
  54   58    0    0    0
SMALL
NO_CHARGES


@<TRIPOS>ATOM
   1 C1            -2.2725     1.6271     1.6346 C.3     
   2 C2            -1.9935     0.1437     1.3846 C.3     
   3 O3            -1.4887    -0.0294     0.0590 O.3     
   4 C4            -1.1886    -1.2941    -0.3250 C.ar    
   5 N5            -1.3693    -2.3111     0.5083 N.ar    
   6 C6            -1.0776    -3.5489     0.1366 C.ar    
   7 N7            -0.5991    -3.8181    -1.0686 N.ar    
   8 C8            -0.3941    -2.8511    -1.9507 C.ar    
   9 C9            -0.6909    -1.5459    -1.6038 C.ar    
  10 Cl10          -0.4436    -0.2494    -2.7315 Cl      
  11 N11           -1.2777    -4.5869     1.0307 N.3     
  12 C12           -2.7142    -4.7137     1.3865 C.3     
  13 C13           -2.8204    -6.1641     1.9208 C.3     
  14 C14           -1.8576    -6.9444     0.9967 C.3     
  15 C15           -0.8947    -5.8838     0.4315 C.3     
  16 C16           -1.0943    -7.9754     1.7875 C.2     
  17 C17           -0.3026    -7.5823     2.8802 C.2     
  18 C18            0.3830    -8.5015     3.5917 C.2     
  19 N19            0.3174    -9.8230     3.2609 N.pl3   
  20 C20            0.8809   -10.9494     3.7758 C.2     
  21 C21            1.8102   -11.0195     4.9600 C.3     
  22 C22            0.9927   -11.2078     6.2395 C.3     
  23 C23            1.1981   -12.5049     7.0246 C.3     
  24 C24            1.7477   -11.1853     7.5700 C.3     
  25 N25            0.4682   -11.9603     3.0555 N.2     
  26 N26           -0.3167   -11.5518     2.1213 N.2     
  27 C27           -0.4477   -10.2375     2.1983 C.2     
  28 C28           -1.1733    -9.2907     1.4498 C.2     
  29 C29           -2.0227    -9.7290     0.2847 C.3     
  30 F30           -1.3881    -9.3802    -0.9123 F       
  31 F31           -2.1993   -11.1160     0.3320 F       
  32 F32           -3.2692    -9.0975     0.3528 F       
  33 H33           -1.3490     2.1947     1.5205 H       
  34 H34           -3.0097     1.9844     0.9155 H       
  35 H35           -2.6575     1.7591     2.6457 H       
  36 H36           -1.2563    -0.2136     2.1037 H       
  37 H37           -2.9170    -0.4240     1.4987 H       
  38 H38           -0.0033    -3.0801    -2.9311 H       
  39 H39           -2.9830    -3.9971     2.1626 H       
  40 H40           -3.3419    -4.5814     0.5052 H       
  41 H41           -2.4886    -6.2185     2.9577 H       
  42 H42           -3.8392    -6.5384     1.8206 H       
  43 H43           -2.4122    -7.4209     0.1883 H       
  44 H44           -0.9914    -5.8347    -0.6531 H       
  45 H45            0.1313    -6.1305     0.7047 H       
  46 H46           -0.2423    -6.5387     3.1517 H       
  47 H47            0.9885    -8.1883     4.4293 H       
  48 H48            2.4922   -11.8610     4.8374 H       
  49 H49            2.3830   -10.0946     5.0276 H       
  50 H50           -0.0108   -10.7827     6.2230 H       
  51 H51            0.3296   -12.9334     7.5247 H       
  52 H52            1.9157   -13.2240     6.6296 H       
  53 H53            2.8269   -11.0363     7.5338 H       
  54 H54            1.2408   -10.7457     8.4290 H       
@<TRIPOS>BOND
   1    1    2 1
   2    1   33 1
   3    1   34 1
   4    1   35 1
   5    2    3 1
   6    2   36 1
   7    2   37 1
   8    3    4 1
   9    4    9 ar
  10    4    5 ar
  11    5    6 ar
  12    6    7 ar
  13    6   11 1
  14    7    8 ar
  15    8    9 ar
  16    8   38 1
  17    9   10 1
  18   11   15 1
  19   11   12 1
  20   12   13 1
  21   12   39 1
  22   12   40 1
  23   13   14 1
  24   13   41 1
  25   13   42 1
  26   14   15 1
  27   14   16 1
  28   14   43 1
  29   15   44 1
  30   15   45 1
  31   16   28 2
  32   16   17 1
  33   17   18 2
  34   17   46 1
  35   18   19 1
  36   18   47 1
  37   19   27 1
  38   19   20 1
  39   20   21 1
  40   20   25 2
  41   21   22 1
  42   21   48 1
  43   21   49 1
  44   22   24 1
  45   22   23 1
  46   22   50 1
  47   23   24 1
  48   23   51 1
  49   23   52 1
  50   24   53 1
  51   24   54 1
  52   25   26 1
  53   26   27 2
  54   27   28 1
  55   28   29 1
  56   29   30 1
  57   29   31 1
  58   29   32 1

#	End of record

