#	Name: ASD06300016
#	Creating user name:	WinNT
#	Creation time:	15. 06. 2019 21:05

#	Modifying user name:	WinNT
#	Modification time:	15. 06. 2019 21:05

#	Program:	/corina/corina34_cracker 3.40 0067  02.08.2006

@<TRIPOS>MOLECULE
ASD06300016
 216  220    0    0    0
SMALL
NO_CHARGES


@<TRIPOS>ATOM
   1 N1             2.5624    -4.0202    -6.2437 N.am    
   2 C2             2.7354    -7.7777     1.5721 C.3     
   3 C3             1.7194    -8.8552     1.1877 C.3     
   4 C4             1.8531    -9.1712    -0.2797 C.2     
   5 N5             1.9712   -10.0662     1.9729 N.am    
   6 O6             2.2041   -10.2772    -0.6324 O.2     
   7 C7             2.5170    -7.3677     3.0298 C.3     
   8 C8             3.5177    -6.3063     3.4084 C.2     
   9 O9             4.3259    -5.9164     2.5926 O.2     
  10 N10            3.5144    -5.7906     4.6536 N.am    
  11 C11            0.4701    -8.8155    -3.2965 C.3     
  12 C12            1.8064    -8.4999    -2.6216 C.3     
  13 C13            2.4266    -7.2921    -3.2756 C.2     
  14 N14            1.5827    -8.2246    -1.2002 N.am    
  15 O15            2.6588    -6.2992    -2.6191 O.2     
  16 C16           -0.0963   -10.0871    -2.7190 C.2     
  17 C17            0.0625   -11.3267    -3.2090 C.2     
  18 N18           -0.5964   -12.2286    -2.4186 N.pl3   
  19 C19           -1.2108   -11.5747    -1.3743 C.ar    
  20 C20           -0.9193   -10.2055    -1.5130 C.ar    
  21 C21           -1.9925   -12.0001    -0.3049 C.ar    
  22 C22           -2.4753   -11.0793     0.5986 C.ar    
  23 C23           -2.1900    -9.7283     0.4538 C.ar    
  24 C24           -1.4126    -9.2903    -0.5810 C.ar    
  25 C25            4.1131    -6.5790    -6.4629 C.3     
  26 C26            3.3261    -6.1414    -5.2260 C.3     
  27 C27            2.2410    -5.1791    -5.6354 C.2     
  28 N28            2.7232    -7.3155    -4.5901 N.am    
  29 O29            1.0785    -5.4476    -5.4176 O.2     
  30 C30            5.2907    -7.4565    -6.0340 C.3     
  31 C31            6.0777    -7.8941    -7.2710 C.3     
  32 C32            7.2554    -8.7716    -6.8421 C.3     
  33 N33            8.0110    -9.1918    -8.0297 N.3     
  34 C34            2.0323   -20.0401    16.0201 C.2     
  35 N35           -0.2519   -20.7829    15.6738 N.am    
  36 C36            0.6003   -19.8927    16.4660 C.3     
  37 C37            0.4866   -20.2619    17.9464 C.3     
  38 C38           -0.9397   -19.9937    18.4308 C.3     
  39 C39           -1.0534   -20.3629    19.9113 C.3     
  40 C40           -2.4797   -20.0946    20.3957 C.3     
  41 O41            2.3586   -20.9823    15.3383 O.2     
  42 O42           -4.6458   -22.9036    14.3020 O.2     
  43 C43           -4.8419   -21.7182    14.4667 C.2     
  44 C44           -6.2479   -21.1763    14.4415 C.3     
  45 C45            0.8274   -12.6626     3.4580 C.3     
  46 C46            1.6341   -11.4719     3.9800 C.3     
  47 C47            1.3317   -10.2550     3.1441 C.2     
  48 N48            1.2700   -11.2092     5.3745 N.am    
  49 O49            0.5129    -9.4456     3.5253 O.2     
  50 C50            1.3098   -13.0287     2.0529 C.3     
  51 C51            2.7485   -13.5444     2.1260 C.3     
  52 C52            0.4066   -14.1181     1.4713 C.3     
  53 C53            1.6287   -11.4838     7.8065 C.3     
  54 C54            1.9248   -11.8365     6.3716 C.2     
  55 N55            2.4643   -12.2984     8.6921 N.am    
  56 O56            2.7523   -12.6849     6.1141 O.2     
  57 C57            2.4235    -9.7310    10.4794 C.ar    
  58 C58            2.0466    -9.3803    11.7623 C.ar    
  59 C59            0.7663    -8.9189    12.0048 C.ar    
  60 C60           -0.1370    -8.8077    10.9643 C.ar    
  61 C61            0.2398    -9.1589     9.6815 C.ar    
  62 C62            1.5201    -9.6204     9.4390 C.ar    
  63 C63            1.9311   -10.0023     8.0404 C.3     
  64 C64           -1.8958   -21.4965    13.2678 C.3     
  65 C65           -2.4356   -21.4121    14.6970 C.3     
  66 C66           -1.5589   -20.4965    15.5118 C.2     
  67 N67           -3.8024   -20.8854    14.6724 N.am    
  68 O68           -2.0295   -19.5018    16.0219 O.2     
  69 O69           -1.7840   -20.1804    12.7224 O.3     
  70 C70            3.1100   -14.7770    10.2542 C.3     
  71 C71            2.9234   -13.3869    10.8654 C.3     
  72 C72            2.0638   -12.5489     9.9544 C.2     
  73 N73            2.2732   -13.5113    12.1723 N.am    
  74 O74            1.0117   -12.0998    10.3572 O.2     
  75 N75            5.2003   -17.7510    11.3275 N.pl3   
  76 C76            5.5237   -19.0394    10.9728 C.2     
  77 N77            5.0018   -19.5715     9.9035 N.2     
  78 N78            6.3975   -19.7664    11.7461 N.pl3   
  79 C79            4.0825   -15.5861    11.1147 C.3     
  80 C80            4.2691   -16.9763    10.5035 C.3     
  81 C81            4.8373   -15.6749    16.8997 C.3     
  82 C82            3.7182   -15.4103    15.9257 C.2     
  83 N83            4.9443   -17.1199    17.1419 N.3     
  84 O84            3.1432   -16.3377    15.3962 O.2     
  85 C85            8.0993   -16.3534    17.3406 C.ar    
  86 C86            9.0970   -16.4569    18.2917 C.ar    
  87 C87            9.2366   -15.4768    19.2565 C.ar    
  88 C88            8.3788   -14.3928    19.2698 C.ar    
  89 C89            7.3808   -14.2896    18.3189 C.ar    
  90 C90            7.2411   -15.2697    17.3542 C.ar    
  91 C91            6.1537   -15.1567    16.3171 C.3     
  92 C92            1.6075   -12.5820    14.9460 C.3     
  93 C93            2.3439   -13.8821    14.6169 C.3     
  94 C94            3.0127   -13.7541    13.2725 C.2     
  95 N95            3.3562   -14.1432    15.6431 N.am    
  96 O96            4.2165   -13.8696    13.1807 O.2     
  97 C97            0.8414   -12.7505    16.2327 C.2     
  98 O98            0.7967   -13.8307    16.7723 O.2     
  99 O99            0.2085   -11.7006    16.7795 O.3     
 100 C100           4.4751   -19.1735    15.9733 C.3     
 101 C101           3.0431   -19.0261    16.4192 C.2     
 102 N102           5.1019   -17.8473    15.8929 N.3     
 103 O103           2.7168   -18.0839    17.1010 O.2     
 104 C104           7.6862   -19.5322    16.8835 C.ar    
 105 C105           8.9594   -19.7825    16.4068 C.ar    
 106 C106           9.1708   -20.8107    15.5073 C.ar    
 107 C107           8.1092   -21.5888    15.0849 C.ar    
 108 C108           6.8360   -21.3381    15.5612 C.ar    
 109 C109           6.6245   -20.3099    16.4607 C.ar    
 110 C110           5.2366   -20.0372    16.9807 C.3     
 111 H111           3.4921    -3.8054    -6.4179 H       
 112 H112           1.8637    -3.4026    -6.5109 H       
 113 H113           3.7449    -8.1711     1.4526 H       
 114 H114           2.6052    -6.9089     0.9268 H       
 115 H115           0.7115    -8.4934     1.3911 H       
 116 H116           2.5983   -10.7320     1.6498 H       
 117 H117           1.5075    -6.9743     3.1493 H       
 118 H118           2.6472    -8.2365     3.6751 H       
 119 H119           2.8680    -6.1025     5.3061 H       
 120 H120           4.1585    -5.1074     4.8972 H       
 121 H121          -0.2270    -7.9957    -3.1232 H       
 122 H122           0.6249    -8.9406    -4.3681 H       
 123 H123           2.4764    -9.3534    -2.7253 H       
 124 H124           1.2399    -7.3610    -0.9215 H       
 125 H125           0.6262   -11.5753    -4.0960 H       
 126 H126          -0.6265   -13.1860    -2.5715 H       
 127 H127          -2.2202   -13.0489    -0.1838 H       
 128 H128          -3.0822   -11.4115     1.4279 H       
 129 H129          -2.5766    -9.0193     1.1709 H       
 130 H130          -1.1931    -8.2381    -0.6861 H       
 131 H131           3.4605    -7.1458    -7.1270 H       
 132 H132           4.4873    -5.6987    -6.9856 H       
 133 H133           3.9988    -5.6520    -4.5216 H       
 134 H134           2.5375    -8.1096    -5.1152 H       
 135 H135           5.9433    -6.8897    -5.3700 H       
 136 H136           4.9165    -8.3367    -5.5113 H       
 137 H137           5.4252    -8.4609    -7.9350 H       
 138 H138           6.4519    -7.0139    -7.7937 H       
 139 H139           7.9080    -8.2048    -6.1780 H       
 140 H140           6.8812    -9.6518    -6.3194 H       
 141 H141           8.3139    -8.3931    -8.5668 H       
 142 H142           8.7947    -9.7730    -7.7727 H       
 143 H143           0.1245   -21.5784    15.2659 H       
 144 H144           0.2797   -18.8608    16.3232 H       
 145 H145           0.7219   -21.3183    18.0765 H       
 146 H146           1.1864   -19.6598    18.5259 H       
 147 H147          -1.1749   -18.9373    18.3007 H       
 148 H148          -1.6395   -20.5958    17.8514 H       
 149 H149          -0.8181   -21.4192    20.0414 H       
 150 H150          -0.3536   -19.7607    20.4907 H       
 151 H151          -2.7149   -19.0383    20.2656 H       
 152 H152          -3.1795   -20.6968    19.8163 H       
 153 H153          -2.5607   -20.3576    21.4504 H       
 154 H154          -6.6643   -21.1993    15.4485 H       
 155 H155          -6.2349   -20.1491    14.0770 H       
 156 H156          -6.8614   -21.7886    13.7806 H       
 157 H157           0.9657   -13.5149     4.1232 H       
 158 H158          -0.2293   -12.3977     3.4217 H       
 159 H159           2.6983   -11.6994     3.9191 H       
 160 H160           0.5576   -10.5838     5.5803 H       
 161 H161           1.2722   -12.1462     1.4144 H       
 162 H162           3.1176   -13.7354     1.1183 H       
 163 H163           3.3784   -12.7967     2.6080 H       
 164 H164           2.7744   -14.4683     2.7036 H       
 165 H165          -0.6046   -13.7279     1.3551 H       
 166 H166           0.7904   -14.4277     0.4992 H       
 167 H167           0.3903   -14.9747     2.1451 H       
 168 H168           0.5773   -11.6779     8.0189 H       
 169 H169           3.3058   -12.6576     8.3700 H       
 170 H170           3.4251   -10.0873    10.2892 H       
 171 H171           2.7523    -9.4672    12.5752 H       
 172 H172           0.4717    -8.6455    13.0072 H       
 173 H173          -1.1374    -8.4479    11.1539 H       
 174 H174          -0.4660    -9.0724     8.8687 H       
 175 H175           2.9992    -9.8252     7.9144 H       
 176 H176           1.3757    -9.4002     7.3213 H       
 177 H177          -0.9142   -21.9704    13.2776 H       
 178 H178          -2.5780   -22.0866    12.6560 H       
 179 H179          -2.4373   -22.4063    15.1440 H       
 180 H180          -3.9592   -19.9373    14.8042 H       
 181 H181          -1.4471   -20.1575    11.8163 H       
 182 H182           2.1483   -15.2884    10.2142 H       
 183 H183           3.5119   -14.6795     9.2457 H       
 184 H184           3.8960   -12.9101    10.9874 H       
 185 H185           1.3104   -13.4190    12.2457 H       
 186 H186           5.5886   -17.3550    12.1232 H       
 187 H187           5.2300   -20.4805     9.6533 H       
 188 H188           6.7859   -19.3704    12.5419 H       
 189 H189           6.6257   -20.6754    11.4959 H       
 190 H190           5.0442   -15.0747    11.1547 H       
 191 H191           3.6806   -15.6836    12.1232 H       
 192 H192           4.6710   -16.8788     9.4950 H       
 193 H193           3.3074   -17.4877    10.4635 H       
 194 H194           4.6296   -15.1634    17.8395 H       
 195 H195           5.7005   -17.3249    17.7777 H       
 196 H196           7.9930   -17.1169    16.5842 H       
 197 H197           9.7672   -17.3037    18.2813 H       
 198 H198          10.0157   -15.5580    20.0000 H       
 199 H199           8.4875   -13.6274    20.0239 H       
 200 H200           6.7103   -13.4429    18.3296 H       
 201 H201           6.4224   -15.7495    15.4427 H       
 202 H202           6.0362   -14.1128    16.0261 H       
 203 H203           2.3299   -11.7733    15.0565 H       
 204 H204           0.9147   -12.3426    14.1393 H       
 205 H205           1.6315   -14.7067    14.5912 H       
 206 H206           3.7661   -13.4041    16.1192 H       
 207 H207          -0.2697   -11.8576    17.6052 H       
 208 H208           4.5032   -19.6487    14.9928 H       
 209 H209           4.7314   -17.3187    15.1173 H       
 210 H210           7.5217   -18.7317    17.5897 H       
 211 H211           9.7888   -19.1747    16.7368 H       
 212 H212          10.1654   -21.0059    15.1343 H       
 213 H213           8.2743   -22.3916    14.3816 H       
 214 H214           6.0065   -21.9457    15.2309 H       
 215 H215           5.3023   -19.5117    17.9334 H       
 216 H216           4.7096   -20.9808    17.1219 H       
@<TRIPOS>BOND
   1    1   27 am
   2    1  111 1
   3    1  112 1
   4    2    7 1
   5    2    3 1
   6    2  113 1
   7    2  114 1
   8    3    5 1
   9    3    4 1
  10    3  115 1
  11    4    6 2
  12    4   14 am
  13    5   47 am
  14    5  116 1
  15    7    8 1
  16    7  117 1
  17    7  118 1
  18    8    9 2
  19    8   10 am
  20   10  119 1
  21   10  120 1
  22   11   16 1
  23   11   12 1
  24   11  121 1
  25   11  122 1
  26   12   13 1
  27   12   14 1
  28   12  123 1
  29   13   15 2
  30   13   28 am
  31   14  124 1
  32   16   17 2
  33   16   20 1
  34   17   18 1
  35   17  125 1
  36   18   19 1
  37   18  126 1
  38   19   20 ar
  39   19   21 ar
  40   20   24 ar
  41   21   22 ar
  42   21  127 1
  43   22   23 ar
  44   22  128 1
  45   23   24 ar
  46   23  129 1
  47   24  130 1
  48   25   30 1
  49   25   26 1
  50   25  131 1
  51   25  132 1
  52   26   28 1
  53   26   27 1
  54   26  133 1
  55   27   29 2
  56   28  134 1
  57   30   31 1
  58   30  135 1
  59   30  136 1
  60   31   32 1
  61   31  137 1
  62   31  138 1
  63   32   33 1
  64   32  139 1
  65   32  140 1
  66   33  141 1
  67   33  142 1
  68   34   41 2
  69   34   36 1
  70   34  101 1
  71   35   36 1
  72   35   66 am
  73   35  143 1
  74   36   37 1
  75   36  144 1
  76   37   38 1
  77   37  145 1
  78   37  146 1
  79   38   39 1
  80   38  147 1
  81   38  148 1
  82   39   40 1
  83   39  149 1
  84   39  150 1
  85   40  151 1
  86   40  152 1
  87   40  153 1
  88   42   43 2
  89   43   44 1
  90   43   67 am
  91   44  154 1
  92   44  155 1
  93   44  156 1
  94   45   50 1
  95   45   46 1
  96   45  157 1
  97   45  158 1
  98   46   48 1
  99   46   47 1
 100   46  159 1
 101   47   49 2
 102   48   54 am
 103   48  160 1
 104   50   51 1
 105   50   52 1
 106   50  161 1
 107   51  162 1
 108   51  163 1
 109   51  164 1
 110   52  165 1
 111   52  166 1
 112   52  167 1
 113   53   54 1
 114   53   55 1
 115   53   63 1
 116   53  168 1
 117   54   56 2
 118   55   72 am
 119   55  169 1
 120   57   58 ar
 121   57   62 ar
 122   57  170 1
 123   58   59 ar
 124   58  171 1
 125   59   60 ar
 126   59  172 1
 127   60   61 ar
 128   60  173 1
 129   61   62 ar
 130   61  174 1
 131   62   63 1
 132   63  175 1
 133   63  176 1
 134   64   69 1
 135   64   65 1
 136   64  177 1
 137   64  178 1
 138   65   67 1
 139   65   66 1
 140   65  179 1
 141   66   68 2
 142   67  180 1
 143   69  181 1
 144   70   79 1
 145   70   71 1
 146   70  182 1
 147   70  183 1
 148   71   73 1
 149   71   72 1
 150   71  184 1
 151   72   74 2
 152   73   94 am
 153   73  185 1
 154   75   80 1
 155   75   76 1
 156   75  186 1
 157   76   77 2
 158   76   78 1
 159   77  187 1
 160   78  188 1
 161   78  189 1
 162   79   80 1
 163   79  190 1
 164   79  191 1
 165   80  192 1
 166   80  193 1
 167   81   82 1
 168   81   83 1
 169   81   91 1
 170   81  194 1
 171   82   84 2
 172   82   95 am
 173   83  102 1
 174   83  195 1
 175   85   86 ar
 176   85   90 ar
 177   85  196 1
 178   86   87 ar
 179   86  197 1
 180   87   88 ar
 181   87  198 1
 182   88   89 ar
 183   88  199 1
 184   89   90 ar
 185   89  200 1
 186   90   91 1
 187   91  201 1
 188   91  202 1
 189   92   97 1
 190   92   93 1
 191   92  203 1
 192   92  204 1
 193   93   94 1
 194   93   95 1
 195   93  205 1
 196   94   96 2
 197   95  206 1
 198   97   98 2
 199   97   99 1
 200   99  207 1
 201  100  101 1
 202  100  102 1
 203  100  110 1
 204  100  208 1
 205  101  103 2
 206  102  209 1
 207  104  105 ar
 208  104  109 ar
 209  104  210 1
 210  105  106 ar
 211  105  211 1
 212  106  107 ar
 213  106  212 1
 214  107  108 ar
 215  107  213 1
 216  108  109 ar
 217  108  214 1
 218  109  110 1
 219  110  215 1
 220  110  216 1

#	End of record

