#	Name: ASD02560320
#	Creating user name:	WinNT
#	Creation time:	15. 06. 2019 20:25

#	Modifying user name:	WinNT
#	Modification time:	15. 06. 2019 20:25

#	Program:	/corina/corina34_cracker 3.40 0067  02.08.2006

@<TRIPOS>MOLECULE
ASD02560320
  31   33    0    0    0
SMALL
NO_CHARGES


@<TRIPOS>ATOM
   1 C1             0.0087     1.3188     0.2425 C.2     
   2 O2             0.0162    -0.0214     0.1291 O.3     
   3 C3            -1.2548    -0.4606     0.1142 C.2     
   4 N4            -2.0479     0.5762     0.2157 N.2     
   5 N5            -1.2377     1.7176     0.3030 N.2     
   6 N6            -1.6563    -1.7839     0.0090 N.pl3   
   7 S7             1.4301     2.3581     0.3064 S.3     
   8 C8             0.6520     3.9322     0.4526 C.ar    
   9 C9             0.3644     4.4534     1.7088 C.ar    
  10 C10           -0.2461     5.6883     1.8194 C.ar    
  11 C11           -0.5713     6.4052     0.6823 C.ar    
  12 C12           -0.2872     5.8898    -0.5692 C.ar    
  13 C13            0.3292     4.6585    -0.6878 C.ar    
  14 C14           -3.0041    -2.1140     0.1261 C.ar    
  15 C15           -3.5105    -3.2172    -0.5550 C.ar    
  16 C16           -4.8423    -3.5461    -0.4418 C.ar    
  17 C17           -5.6865    -2.7707     0.3588 C.ar    
  18 C18           -5.1744    -1.6635     1.0420 C.ar    
  19 C19           -3.8406    -1.3433     0.9285 C.ar    
  20 Cl20           0.7710     3.5539     3.1369 Cl      
  21 Cl21           0.6853     4.0126    -2.2594 Cl      
  22 C22           -7.0727    -3.1096     0.4785 C.1     
  23 N23           -8.1723    -3.3785     0.5735 N.1     
  24 H24           -0.9983    -2.4795    -0.1462 H       
  25 H25           -0.4698     6.0939     2.7950 H       
  26 H26           -1.0486     7.3698     0.7719 H       
  27 H27           -0.5429     6.4524    -1.4549 H       
  28 H28           -2.8578    -3.8157    -1.1733 H       
  29 H29           -5.2347    -4.4018    -0.9711 H       
  30 H30           -5.8239    -1.0623     1.6609 H       
  31 H31           -3.4443    -0.4882     1.4559 H       
@<TRIPOS>BOND
   1    1    2 1
   2    1    7 1
   3    1    5 2
   4    2    3 1
   5    3    4 2
   6    3    6 1
   7    4    5 1
   8    6   14 1
   9    6   24 1
  10    7    8 1
  11    8    9 ar
  12    8   13 ar
  13    9   10 ar
  14    9   20 1
  15   10   11 ar
  16   10   25 1
  17   11   12 ar
  18   11   26 1
  19   12   13 ar
  20   12   27 1
  21   13   21 1
  22   14   15 ar
  23   14   19 ar
  24   15   16 ar
  25   15   28 1
  26   16   17 ar
  27   16   29 1
  28   17   18 ar
  29   17   22 1
  30   18   19 ar
  31   18   30 1
  32   19   31 1
  33   22   23 3

#	End of record

