#	Name: ASD05940026
#	Creating user name:	WinNT
#	Creation time:	15. 06. 2019 21:04

#	Modifying user name:	WinNT
#	Modification time:	15. 06. 2019 21:04

#	Program:	/corina/corina34_cracker 3.40 0067  02.08.2006

@<TRIPOS>MOLECULE
ASD05940026
  61   64    0    0    0
SMALL
NO_CHARGES


@<TRIPOS>ATOM
   1 N1             0.1947     1.4759     0.5004 N.ar    
   2 C2             0.1660     0.1540     0.5168 C.ar    
   3 N3             1.2487    -0.5767     0.3042 N.ar    
   4 C4             2.4213     0.0039     0.0625 C.ar    
   5 C5             2.4896     1.3959     0.0332 C.ar    
   6 C6             1.3311     2.1316     0.2633 C.ar    
   7 N7             3.5584    -0.7559    -0.1517 N.3     
   8 C8             4.4512    -0.1455    -1.1417 C.3     
   9 C9             4.7061     1.2981    -0.7933 C.2     
  10 N10            3.7165     2.0285    -0.2299 N.am    
  11 N11            1.3579     3.5196     0.2453 N.pl3   
  12 O12           -1.0106    -0.4731     0.7597 O.3     
  13 C13            3.2088    -2.1303    -0.5347 C.3     
  14 O14            5.7876     1.8005    -1.0160 O.2     
  15 C15           -2.1279     0.3517     1.0962 C.3     
  16 C16           -3.3832    -0.5146     1.2173 C.3     
  17 C17           -4.5795     0.3686     1.5776 C.3     
  18 C18            2.7041    -2.1431    -1.9546 C.ar    
  19 C19            1.3551    -1.9811    -2.2103 C.ar    
  20 C20            3.5906    -2.3111    -3.0016 C.ar    
  21 C21            3.1276    -2.3229    -4.3043 C.ar    
  22 C22            1.7782    -2.1670    -4.5596 C.ar    
  23 C23            0.8922    -1.9929    -3.5126 C.ar    
  24 C24           -5.8348    -0.4977     1.6987 C.3     
  25 C25            4.0943    -2.5051    -5.4459 C.3     
  26 N26            4.1339    -3.9217    -5.8327 N.3     
  27 C27            4.7506    -4.0897    -7.1614 C.3     
  28 C28            4.9036    -4.7171    -4.8525 C.3     
  29 C29            5.5904    -5.8228    -5.6924 C.3     
  30 C30            5.9431    -5.0546    -6.9933 C.3     
  31 O31            5.6920    -0.8541    -1.1608 O.3     
  32 H32            3.9900    -0.2030    -2.1277 H       
  33 H33            3.8502     2.9645    -0.0135 H       
  34 H34            2.1901     3.9864     0.0712 H       
  35 H35            0.5443     4.0225     0.4070 H       
  36 H36            4.0916    -2.7649    -0.4571 H       
  37 H37            2.4315    -2.5063     0.1306 H       
  38 H38           -1.9379     0.8509     2.0464 H       
  39 H39           -2.2759     1.0989     0.3165 H       
  40 H40           -3.5732    -1.0138     0.2672 H       
  41 H41           -3.2352    -1.2617     1.9971 H       
  42 H42           -4.3895     0.8678     2.5278 H       
  43 H43           -4.7275     1.1157     0.7979 H       
  44 H44            0.6629    -1.8458    -1.3924 H       
  45 H45            4.6450    -2.4329    -2.8022 H       
  46 H46            1.4166    -2.1758    -5.5772 H       
  47 H47           -0.1622    -1.8711    -3.7120 H       
  48 H48           -6.0248    -0.9970     0.7486 H       
  49 H49           -5.6868    -1.2449     2.4785 H       
  50 H50           -6.6871     0.1314     1.9554 H       
  51 H51            3.7696    -1.9053    -6.2962 H       
  52 H52            5.0888    -2.1855    -5.1345 H       
  53 H53            4.0253    -4.5139    -7.8558 H       
  54 H54            5.1021    -3.1266    -7.5314 H       
  55 H55            5.6512    -4.0941    -4.3616 H       
  56 H56            4.2348    -5.1611    -4.1152 H       
  57 H57            6.4908    -6.1865    -5.1975 H       
  58 H58            4.9013    -6.6421    -5.8975 H       
  59 H59            6.0075    -5.7387    -7.8395 H       
  60 H60            6.8737    -4.4999    -6.8731 H       
  61 H61            6.3343    -0.5056    -1.7941 H       
@<TRIPOS>BOND
   1    1    2 ar
   2    1    6 ar
   3    2    3 ar
   4    2   12 1
   5    3    4 ar
   6    4    5 ar
   7    4    7 1
   8    5    6 ar
   9    5   10 1
  10    6   11 1
  11    7    8 1
  12    7   13 1
  13    8    9 1
  14    8   31 1
  15    8   32 1
  16    9   10 am
  17    9   14 2
  18   10   33 1
  19   11   34 1
  20   11   35 1
  21   12   15 1
  22   13   18 1
  23   13   36 1
  24   13   37 1
  25   15   16 1
  26   15   38 1
  27   15   39 1
  28   16   17 1
  29   16   40 1
  30   16   41 1
  31   17   24 1
  32   17   42 1
  33   17   43 1
  34   18   19 ar
  35   18   20 ar
  36   19   23 ar
  37   19   44 1
  38   20   21 ar
  39   20   45 1
  40   21   22 ar
  41   21   25 1
  42   22   23 ar
  43   22   46 1
  44   23   47 1
  45   24   48 1
  46   24   49 1
  47   24   50 1
  48   25   26 1
  49   25   51 1
  50   25   52 1
  51   26   27 1
  52   26   28 1
  53   27   30 1
  54   27   53 1
  55   27   54 1
  56   28   29 1
  57   28   55 1
  58   28   56 1
  59   29   30 1
  60   29   57 1
  61   29   58 1
  62   30   59 1
  63   30   60 1
  64   31   61 1

#	End of record

