#	Name: ASD05303027
#	Creating user name:	WinNT
#	Creation time:	15. 06. 2019 20:58

#	Modifying user name:	WinNT
#	Modification time:	15. 06. 2019 20:58

#	Program:	/corina/corina34_cracker 3.40 0067  02.08.2006

@<TRIPOS>MOLECULE
ASD05303027
  30   32    0    0    0
SMALL
NO_CHARGES


@<TRIPOS>ATOM
   1 C1             0.1210     1.5310    -0.5325 C.ar    
   2 C2             0.0889     0.1512    -0.6049 C.ar    
   3 C3             1.2503    -0.5793    -0.4241 C.ar    
   4 C4             2.4427     0.0755    -0.1709 C.ar    
   5 C5             2.4793     1.4665    -0.1006 C.ar    
   6 C6             1.3108     2.1897    -0.2813 C.ar    
   7 O7             3.6481     2.1138     0.1394 O.3     
   8 N8             3.6306    -0.6531     0.0236 N.am    
   9 C9             4.7157     1.4225     0.6135 C.ar    
  10 C10            4.7349     0.0302     0.5655 C.ar    
  11 C11            5.8275    -0.6697     1.0459 C.ar    
  12 C12            6.9047     0.0169     1.5784 C.ar    
  13 C13            6.8881     1.3979     1.6296 C.ar    
  14 C14            5.7983     2.1015     1.1501 C.ar    
  15 C15            3.7080    -1.9597    -0.2976 C.2     
  16 O16            2.6924    -2.5974    -0.4991 O.2     
  17 N17            4.9109    -2.5596    -0.3953 N.am    
  18 H18            5.7224    -2.0310    -0.3397 H       
  19 C19            4.9930    -4.0099    -0.5856 C.3     
  20 H20           -0.7869     2.0978    -0.6772 H       
  21 H21           -0.8432    -0.3574    -0.8025 H       
  22 H22            1.2261    -1.6575    -0.4800 H       
  23 H23            1.3296     3.2682    -0.2264 H       
  24 H24            5.8394    -1.7488     1.0059 H       
  25 H25            7.7587    -0.5269     1.9543 H       
  26 H26            7.7300     1.9302     2.0471 H       
  27 H27            5.7914     3.1807     1.1925 H       
  28 H28            6.0392    -4.3103    -0.6418 H       
  29 H29            4.5147    -4.5141     0.2542 H       
  30 H30            4.4860    -4.2842    -1.5107 H       
@<TRIPOS>BOND
   1    1    2 ar
   2    1    6 ar
   3    1   20 1
   4    2    3 ar
   5    2   21 1
   6    3    4 ar
   7    3   22 1
   8    4    5 ar
   9    4    8 1
  10    5    6 ar
  11    5    7 1
  12    6   23 1
  13    7    9 1
  14    8   10 1
  15    8   15 am
  16    9   10 ar
  17    9   14 ar
  18   10   11 ar
  19   11   12 ar
  20   11   24 1
  21   12   13 ar
  22   12   25 1
  23   13   14 ar
  24   13   26 1
  25   14   27 1
  26   15   16 2
  27   15   17 am
  28   17   18 1
  29   17   19 1
  30   19   28 1
  31   19   29 1
  32   19   30 1

#	End of record

