#	Name: ASD00960014
#	Creating user name:	WinNT
#	Creation time:	15. 06. 2019 18:53

#	Modifying user name:	WinNT
#	Modification time:	15. 06. 2019 18:53

#	Program:	/corina/corina34_cracker 3.40 0067  02.08.2006

@<TRIPOS>MOLECULE
ASD00960014
  34   35    0    0    0
SMALL
NO_CHARGES


@<TRIPOS>ATOM
   1 C1            -0.0189     1.5409     0.0105 C.3     
   2 C2             0.0021    -0.0041     0.0020 C.3     
   3 C3             1.5055    -0.3590    -0.0142 C.3     
   4 O4             2.1632     0.7948     0.5532 O.3     
   5 C5             1.4743     1.9366    -0.0016 C.3     
   6 C6             1.7048     3.1728     0.8698 C.3     
   7 O7             3.0827     3.5470     0.8109 O.3     
   8 O8            -0.6439    -0.5072    -1.1692 O.3     
   9 *9            -1.2605    -1.7624    -0.9896 Du      
  10 C10            1.7655    -1.5794     0.8307 C.2     
  11 O11            2.4395    -1.4902     1.8296 O.2     
  12 O12            1.2485    -2.7656     0.4737 O.3     
  13 C13            1.5401    -3.8978     1.3346 C.3     
  14 C14            0.8814    -5.1341     0.7790 C.ar    
  15 C15            1.5619    -5.9362    -0.1178 C.ar    
  16 C16            0.9576    -7.0702    -0.6275 C.ar    
  17 C17           -0.3270    -7.4024    -0.2400 C.ar    
  18 C18           -1.0073    -6.6008     0.6576 C.ar    
  19 C19           -0.4014    -5.4691     1.1706 C.ar    
  20 H20           -0.5219     1.9209    -0.8786 H       
  21 H21           -0.5048     1.9113     0.9131 H       
  22 H22           -0.4735    -0.3974     0.9004 H       
  23 H23            1.8451    -0.5248    -1.0366 H       
  24 H24            1.8092     2.1228    -1.0220 H       
  25 H25            1.0891     3.9948     0.5045 H       
  26 H26            1.4337     2.9462     1.9010 H       
  27 H27            3.3019     4.3253     1.3413 H       
  28 H28            2.6183    -4.0505     1.3814 H       
  29 H29            1.1572    -3.7009     2.3360 H       
  30 H30            2.5656    -5.6767    -0.4206 H       
  31 H31            1.4891    -7.6965    -1.3287 H       
  32 H32           -0.7994    -8.2880    -0.6387 H       
  33 H33           -2.0111    -6.8601     0.9601 H       
  34 H34           -0.9314    -4.8448     1.8747 H       
@<TRIPOS>BOND
   1    1    2 1
   2    1    5 1
   3    1   20 1
   4    1   21 1
   5    2    3 1
   6    2    8 1
   7    2   22 1
   8    3    4 1
   9    3   10 1
  10    3   23 1
  11    4    5 1
  12    5    6 1
  13    5   24 1
  14    6    7 1
  15    6   25 1
  16    6   26 1
  17    7   27 1
  18    8    9 1
  19   10   11 2
  20   10   12 1
  21   12   13 1
  22   13   14 1
  23   13   28 1
  24   13   29 1
  25   14   15 ar
  26   14   19 ar
  27   15   16 ar
  28   15   30 1
  29   16   17 ar
  30   16   31 1
  31   17   18 ar
  32   17   32 1
  33   18   19 ar
  34   18   33 1
  35   19   34 1

#	End of record

