#	Name: ASD01917238
#	Creating user name:	WinNT
#	Creation time:	15. 06. 2019 20:08

#	Modifying user name:	WinNT
#	Modification time:	15. 06. 2019 20:08

#	Program:	/corina/corina34_cracker 3.40 0067  02.08.2006

@<TRIPOS>MOLECULE
ASD01917238
  41   44    0    0    0
SMALL
NO_CHARGES


@<TRIPOS>ATOM
   1 C1            -0.0167     1.3781     0.0096 C.ar    
   2 C2             0.0021    -0.0041     0.0020 C.ar    
   3 C3             1.2084    -0.6789    -0.0132 C.ar    
   4 C4             2.3960     0.0285    -0.0212 C.ar    
   5 C5             2.3773     1.4107    -0.0145 C.ar    
   6 C6             1.1710     2.0855     0.0021 C.ar    
   7 C7             3.6720     2.1819    -0.0228 C.3     
   8 O8             4.0688     2.4320    -1.3726 O.3     
   9 C9             5.2256     3.1228    -1.5582 C.2     
  10 N10            6.0085     3.5789    -0.6023 N.2     
  11 N11            7.0848     4.2349    -1.1857 N.pl3   
  12 C12            6.9362     4.1492    -2.5518 C.2     
  13 C13            5.7842     3.4617    -2.7984 C.2     
  14 C14            8.2161     4.9347    -0.5743 C.3     
  15 C15            9.4246     4.8496    -1.5065 C.3     
  16 N16            9.0881     5.1625    -2.8908 N.am    
  17 C17            7.9387     4.7284    -3.4613 C.2     
  18 O18            7.7457     4.8121    -4.6594 O.2     
  19 C19            9.9766     5.9324    -3.6502 C.ar    
  20 C20           10.7401     8.0751    -4.4181 C.ar    
  21 C21           11.7337     7.4549    -5.1530 C.ar    
  22 C22           11.8479     6.0768    -5.1428 C.ar    
  23 C23           10.9727     5.3143    -4.3939 C.ar    
  24 C24            9.8602     7.3182    -3.6660 C.ar    
  25 F25            8.8891     7.9239    -2.9483 F       
  26 H26           -0.9592     1.9054     0.0170 H       
  27 H27           -0.9258    -0.5567     0.0083 H       
  28 H28            1.2231    -1.7588    -0.0184 H       
  29 H29            3.3386    -0.4987    -0.0324 H       
  30 H30            1.1563     3.1654     0.0069 H       
  31 H31            3.5335     3.1300     0.4968 H       
  32 H32            4.4443     1.6008     0.4812 H       
  33 H33            5.3742     3.2280    -3.7699 H       
  34 H34            7.9534     5.9802    -0.4133 H       
  35 H35            8.4594     4.4686     0.3805 H       
  36 H36           10.1852     5.5502    -1.1619 H       
  37 H37            9.8328     3.8399    -1.4627 H       
  38 H38           10.6538     9.1516    -4.4279 H       
  39 H39           12.4194     8.0479    -5.7399 H       
  40 H40           12.6251     5.5960    -5.7184 H       
  41 H41           11.0634     4.2381    -4.3867 H       
@<TRIPOS>BOND
   1    1    2 ar
   2    1    6 ar
   3    1   26 1
   4    2    3 ar
   5    2   27 1
   6    3    4 ar
   7    3   28 1
   8    4    5 ar
   9    4   29 1
  10    5    6 ar
  11    5    7 1
  12    6   30 1
  13    7    8 1
  14    7   31 1
  15    7   32 1
  16    8    9 1
  17    9   10 2
  18    9   13 1
  19   10   11 1
  20   11   12 1
  21   11   14 1
  22   12   13 2
  23   12   17 1
  24   13   33 1
  25   14   15 1
  26   14   34 1
  27   14   35 1
  28   15   16 1
  29   15   36 1
  30   15   37 1
  31   16   17 am
  32   16   19 1
  33   17   18 2
  34   19   24 ar
  35   19   23 ar
  36   20   21 ar
  37   20   24 ar
  38   20   38 1
  39   21   22 ar
  40   21   39 1
  41   22   23 ar
  42   22   40 1
  43   23   41 1
  44   24   25 1

#	End of record

