#	Name: ASD02448178
#	Creating user name:	WinNT
#	Creation time:	15. 06. 2019 20:22

#	Modifying user name:	WinNT
#	Modification time:	15. 06. 2019 20:22

#	Program:	/corina/corina34_cracker 3.40 0067  02.08.2006

@<TRIPOS>MOLECULE
ASD02448178
  81   86    0    0    0
SMALL
NO_CHARGES


@<TRIPOS>ATOM
   1 C1             3.3183    -7.4084    -1.1000 C.ar    
   2 C2             2.8028    -6.2968    -0.4641 C.ar    
   3 C3             2.1989    -5.2904    -1.2055 C.ar    
   4 C4             2.1126    -5.4016    -2.5867 C.ar    
   5 C5             2.6278    -6.5128    -3.2234 C.ar    
   6 C6             3.2326    -7.5198    -2.4820 C.ar    
   7 N7             3.7549    -8.6452    -3.1265 N.am    
   8 C8             4.8254    -9.5364    -2.6607 C.3     
   9 C9             5.0898   -10.6292    -3.6455 C.2     
  10 N10            4.3209   -10.5944    -4.7429 N.am    
  11 S11            3.3000    -9.2876    -4.5974 S.o2    
  12 O12            5.9345   -11.4808    -3.4659 O.2     
  13 O13            1.9825    -9.7992    -4.4502 O.2     
  14 O14            3.6788    -8.3468    -5.5927 O.2     
  15 N15            1.6749    -4.1604    -0.5586 N.pl3   
  16 C16            0.7438    -4.1586     0.4449 C.2     
  17 C17            2.0020    -2.8655    -0.8079 C.2     
  18 N18            1.3135    -2.0958    -0.0119 N.2     
  19 C19            0.5271    -2.8584     0.7744 C.2     
  20 C20           -0.4087    -2.3652     1.8147 C.ar    
  21 C21           -0.5335    -0.9962     2.0516 C.ar    
  22 C22           -1.1700    -3.2675     2.5545 C.ar    
  23 C23           -2.0392    -2.8038     3.5213 C.ar    
  24 C24           -2.1557    -1.4448     3.7569 C.ar    
  25 C25           -1.4061    -0.5429     3.0211 C.ar    
  26 Cl26          -3.2514    -0.8687     4.9741 Cl      
  27 Cl27           0.4065     0.1352     1.1298 Cl      
  28 C28            2.9983    -2.3956    -1.8363 C.3     
  29 C29            8.1151    -1.5793     0.6775 C.ar    
  30 C30            8.9964    -2.6482     0.8306 C.ar    
  31 C31            8.4772    -0.3112     1.1285 C.ar    
  32 C32            9.7056    -0.1175     1.7246 C.ar    
  33 C33           10.5814    -1.1841     1.8753 C.ar    
  34 C34           10.2234    -2.4485     1.4274 C.ar    
  35 O35           11.7914    -0.9901     2.4622 O.3     
  36 C36           12.6432    -2.1309     2.5852 C.3     
  37 C37           13.9508    -1.7202     3.2651 C.3     
  38 C38           14.8627    -2.9416     3.3968 C.3     
  39 C39           15.1656    -3.5042     2.0066 C.3     
  40 C40           16.1703    -2.5308     4.0767 C.3     
  41 C41           14.1642    -4.0112     4.2388 C.3     
  42 C42            5.2085    -3.2457    -1.0281 C.ar    
  43 C43            4.3370    -2.1821    -1.1780 C.ar    
  44 C44            4.6898    -0.9232    -0.7263 C.ar    
  45 C45            5.9148    -0.7218    -0.1234 C.ar    
  46 C46            6.7968    -1.7897     0.0302 C.ar    
  47 C47            6.4360    -3.0559    -0.4263 C.ar    
  48 H48            3.7920    -8.1892    -0.5236 H       
  49 H49            2.8691    -6.2103     0.6104 H       
  50 H50            1.6421    -4.6187    -3.1630 H       
  51 H51            2.5604    -6.5994    -4.2978 H       
  52 H52            5.7368    -8.9556    -2.5186 H       
  53 H53            4.5333    -9.9775    -1.7077 H       
  54 H54            4.3516   -11.2185    -5.4849 H       
  55 H55            0.2727    -5.0232     0.8887 H       
  56 H56           -1.0805    -4.3281     2.3716 H       
  57 H57           -2.6299    -3.5027     4.0948 H       
  58 H58           -1.5005     0.5164     3.2088 H       
  59 H59            3.0943    -3.1477    -2.6194 H       
  60 H60            2.6547    -1.4580    -2.2732 H       
  61 H61            8.7184    -3.6321     0.4824 H       
  62 H62            7.7965     0.5191     1.0109 H       
  63 H63            9.9866     0.8649     2.0742 H       
  64 H64           10.9068    -3.2763     1.5460 H       
  65 H65           12.1455    -2.8929     3.1850 H       
  66 H66           12.8589    -2.5317     1.5948 H       
  67 H67           14.4484    -0.9582     2.6653 H       
  68 H68           13.7350    -1.3194     4.2555 H       
  69 H69           15.6632    -2.7422     1.4068 H       
  70 H70           15.8153    -4.3744     2.1004 H       
  71 H71           14.2340    -3.7968     1.5222 H       
  72 H72           15.9546    -2.1300     5.0672 H       
  73 H73           16.8200    -3.4010     4.1706 H       
  74 H74           16.6680    -1.7688     3.4769 H       
  75 H75           13.2326    -4.3038     3.7543 H       
  76 H76           14.8139    -4.8814     4.3326 H       
  77 H77           13.9484    -3.6104     5.2292 H       
  78 H78            4.9262    -4.2275    -1.3786 H       
  79 H79            4.0054    -0.0963    -0.8459 H       
  80 H80            6.1896     0.2617     0.2283 H       
  81 H81            7.1156    -3.8871    -0.3094 H       
@<TRIPOS>BOND
   1    1    2 ar
   2    1    6 ar
   3    1   48 1
   4    2    3 ar
   5    2   49 1
   6    3    4 ar
   7    3   15 1
   8    4    5 ar
   9    4   50 1
  10    5    6 ar
  11    5   51 1
  12    6    7 1
  13    7    8 1
  14    7   11 am
  15    8    9 1
  16    8   52 1
  17    8   53 1
  18    9   10 am
  19    9   12 2
  20   10   11 am
  21   10   54 1
  22   11   13 2
  23   11   14 2
  24   15   16 1
  25   15   17 1
  26   16   19 2
  27   16   55 1
  28   17   18 2
  29   17   28 1
  30   18   19 1
  31   19   20 1
  32   20   21 ar
  33   20   22 ar
  34   21   27 1
  35   21   25 ar
  36   22   23 ar
  37   22   56 1
  38   23   24 ar
  39   23   57 1
  40   24   25 ar
  41   24   26 1
  42   25   58 1
  43   28   43 1
  44   28   59 1
  45   28   60 1
  46   29   30 ar
  47   29   31 ar
  48   29   46 1
  49   30   34 ar
  50   30   61 1
  51   31   32 ar
  52   31   62 1
  53   32   33 ar
  54   32   63 1
  55   33   34 ar
  56   33   35 1
  57   34   64 1
  58   35   36 1
  59   36   37 1
  60   36   65 1
  61   36   66 1
  62   37   38 1
  63   37   67 1
  64   37   68 1
  65   38   39 1
  66   38   40 1
  67   38   41 1
  68   39   69 1
  69   39   70 1
  70   39   71 1
  71   40   72 1
  72   40   73 1
  73   40   74 1
  74   41   75 1
  75   41   76 1
  76   41   77 1
  77   42   43 ar
  78   42   47 ar
  79   42   78 1
  80   43   44 ar
  81   44   45 ar
  82   44   79 1
  83   45   46 ar
  84   45   80 1
  85   46   47 ar
  86   47   81 1

#	End of record

