#	Name: ASD05790051
#	Creating user name:	WinNT
#	Creation time:	15. 06. 2019 21:03

#	Modifying user name:	WinNT
#	Modification time:	15. 06. 2019 21:03

#	Program:	/corina/corina34_cracker 3.40 0067  02.08.2006

@<TRIPOS>MOLECULE
ASD05790051
  45   48    0    0    0
SMALL
NO_CHARGES


@<TRIPOS>ATOM
   1 C1            -0.1653     1.4727    -0.5504 C.2     
   2 C2            -0.1413    -0.0044    -0.5475 C.ar    
   3 C3             0.9210    -0.6905    -1.1423 C.ar    
   4 C4             0.9362    -2.0714    -1.1356 C.ar    
   5 C5            -0.0968    -2.7743    -0.5425 C.ar    
   6 C6            -1.1517    -2.1006     0.0477 C.ar    
   7 C7            -1.1769    -0.7215     0.0544 C.ar    
   8 O8             0.7404     2.0944    -1.0710 O.2     
   9 N9            -1.1942     2.1310     0.0193 N.am    
  10 C10           -1.1624     3.5234     0.1194 C.ar    
  11 C11           -2.3420     4.2534     0.0194 C.ar    
  12 C12           -2.3141     5.6270     0.1182 C.ar    
  13 C13           -1.0994     6.2867     0.3189 C.ar    
  14 C14            0.0832     5.5509     0.4189 C.ar    
  15 C15            0.0477     4.1767     0.3245 C.ar    
  16 O16           -2.1323     8.5744     0.3451 O.3     
  17 C17           -1.0657     7.7599     0.4248 C.2     
  18 N18            0.0094     8.4870     0.6124 N.2     
  19 C19           -0.3525     9.7862     0.6562 C.2     
  20 C20           -1.6978     9.8415     0.4884 C.2     
  21 C21            0.5555    10.9436     0.8518 C.ar    
  22 C22            1.9246    10.7392     1.0114 C.ar    
  23 C23            2.7644    11.8193     1.1930 C.ar    
  24 C24            2.2493    13.1028     1.2168 C.ar    
  25 C25            0.8910    13.3115     1.0594 C.ar    
  26 C26            0.0428    12.2392     0.8709 C.ar    
  27 C27           -3.6520     3.5409    -0.1977 C.3     
  28 Cl28           2.2176     0.1907    -1.8881 Cl      
  29 H29            1.7563    -2.6036    -1.5947 H       
  30 H30           -0.0803    -3.8542    -0.5402 H       
  31 H31           -1.9550    -2.6562     0.5087 H       
  32 H32           -1.9987    -0.1976     0.5198 H       
  33 H33           -1.9567     1.6376     0.3598 H       
  34 H34           -3.2304     6.1933     0.0401 H       
  35 H35            1.0240     6.0580     0.5741 H       
  36 H36            0.9614     3.6066     0.4062 H       
  37 H37           -2.3060    10.7338     0.4720 H       
  38 H38            2.3277     9.7374     0.9933 H       
  39 H39            3.8256    11.6620     1.3171 H       
  40 H40            2.9101    13.9451     1.3592 H       
  41 H41            0.4940    14.3157     1.0795 H       
  42 H42           -1.0170    12.4036     0.7429 H       
  43 H43           -4.0979     3.2982     0.7669 H       
  44 H44           -4.3281     4.1863    -0.7584 H       
  45 H45           -3.4776     2.6227    -0.7586 H       
@<TRIPOS>BOND
   1    1    2 1
   2    1    8 2
   3    1    9 am
   4    2    3 ar
   5    2    7 ar
   6    3    4 ar
   7    3   28 1
   8    4    5 ar
   9    4   29 1
  10    5    6 ar
  11    5   30 1
  12    6    7 ar
  13    6   31 1
  14    7   32 1
  15    9   10 1
  16    9   33 1
  17   10   11 ar
  18   10   15 ar
  19   11   12 ar
  20   11   27 1
  21   12   13 ar
  22   12   34 1
  23   13   14 ar
  24   13   17 1
  25   14   15 ar
  26   14   35 1
  27   15   36 1
  28   16   17 1
  29   16   20 1
  30   17   18 2
  31   18   19 1
  32   19   20 2
  33   19   21 1
  34   20   37 1
  35   21   22 ar
  36   21   26 ar
  37   22   23 ar
  38   22   38 1
  39   23   24 ar
  40   23   39 1
  41   24   25 ar
  42   24   40 1
  43   25   26 ar
  44   25   41 1
  45   26   42 1
  46   27   43 1
  47   27   44 1
  48   27   45 1

#	End of record

