#	Name: ASD01151040
#	Creating user name:	WinNT
#	Creation time:	15. 06. 2019 19:05

#	Modifying user name:	WinNT
#	Modification time:	15. 06. 2019 19:05

#	Program:	/corina/corina34_cracker 3.40 0067  02.08.2006

@<TRIPOS>MOLECULE
ASD01151040
  36   38    0    0    0
SMALL
NO_CHARGES


@<TRIPOS>ATOM
   1 C1            -0.0255     1.5181     0.0141 C.3     
   2 C2            -0.0019    -0.0116     0.0049 C.3     
   3 C3             0.7646    -0.5478     1.2139 C.2     
   4 O4             0.4796    -0.3500     2.3713 O.2     
   5 O5             1.8239    -1.2872     0.7715 O.3     
   6 C6             1.4289    -1.8039    -0.5136 C.3     
   7 C7             0.8134    -0.5321    -1.1773 C.3     
   8 C8             0.0670    -1.0013    -2.4058 C.3     
   9 C9             1.1151    -1.4842    -3.4245 C.3     
  10 C10            1.9784    -2.6081    -2.8591 C.3     
  11 C11            2.4736    -2.2824    -1.4717 C.2     
  12 C12            3.7405    -2.3909    -1.1114 C.2     
  13 C13            4.1444    -2.0675     0.3040 C.3     
  14 C14            4.7605    -2.8250    -2.0794 C.2     
  15 O15            5.9209    -2.9653    -1.7412 O.2     
  16 C16            4.3427    -3.0860    -3.4674 C.2     
  17 C17            3.0678    -2.9777    -3.8053 C.2     
  18 C18            1.0782    -3.8389    -2.7335 C.3     
  19 H19            0.9964     1.8973     0.0061 H       
  20 H20           -0.5537     1.8787    -0.8685 H       
  21 H21           -0.5360     1.8682     0.9113 H       
  22 H22           -1.0158    -0.4113    -0.0169 H       
  23 H23            0.6592    -2.5651    -0.3862 H       
  24 H24            1.5961     0.1786    -1.4425 H       
  25 H25           -0.6000    -1.8224    -2.1431 H       
  26 H26           -0.5074    -0.1767    -2.8279 H       
  27 H27            0.6034    -1.8441    -4.3171 H       
  28 H28            1.7568    -0.6467    -3.6979 H       
  29 H29            3.5486    -2.6619     0.9967 H       
  30 H30            5.2006    -2.2988     0.4423 H       
  31 H31            3.9762    -1.0080     0.4968 H       
  32 H32            5.0764    -3.3652    -4.2090 H       
  33 H33            2.7999    -3.1697    -4.8338 H       
  34 H34            0.6900    -4.1069    -3.7161 H       
  35 H35            1.6553    -4.6716    -2.3313 H       
  36 H36            0.2480    -3.6150    -2.0636 H       
@<TRIPOS>BOND
   1    1    2 1
   2    1   19 1
   3    1   20 1
   4    1   21 1
   5    2    3 1
   6    2    7 1
   7    2   22 1
   8    3    4 2
   9    3    5 1
  10    5    6 1
  11    6    7 1
  12    6   11 1
  13    6   23 1
  14    7    8 1
  15    7   24 1
  16    8    9 1
  17    8   25 1
  18    8   26 1
  19    9   10 1
  20    9   27 1
  21    9   28 1
  22   10   11 1
  23   10   18 1
  24   10   17 1
  25   11   12 2
  26   12   13 1
  27   12   14 1
  28   13   29 1
  29   13   30 1
  30   13   31 1
  31   14   15 2
  32   14   16 1
  33   16   17 2
  34   16   32 1
  35   17   33 1
  36   18   34 1
  37   18   35 1
  38   18   36 1

#	End of record

