#	Name: ASD03240799
#	Creating user name:	WinNT
#	Creation time:	15. 06. 2019 20:35

#	Modifying user name:	WinNT
#	Modification time:	15. 06. 2019 20:35

#	Program:	/corina/corina34_cracker 3.40 0067  02.08.2006

@<TRIPOS>MOLECULE
ASD03240799
  71   78    0    0    0
SMALL
NO_CHARGES


@<TRIPOS>ATOM
   1 C1            -0.0470     1.2459     0.1175 C.3     
   2 C2             0.1513    -0.2777     0.0552 C.3     
   3 C3             1.5491    -0.0412     0.6511 C.3     
   4 C4             1.4840     1.3693     0.0418 C.3     
   5 O5            -0.7216     1.7825    -1.0222 O.3     
   6 C6             2.6191    -0.9120     0.0447 C.ar    
   7 C7             3.7104    -1.2927     0.8051 C.ar    
   8 C8             4.6934    -2.0898     0.2555 C.ar    
   9 C9             4.5853    -2.5119    -1.0696 C.ar    
  10 C10            3.4825    -2.1247    -1.8311 C.ar    
  11 C11            2.5033    -1.3320    -1.2684 C.ar    
  12 C12           10.1751    -4.5168    -1.9755 C.2     
  13 N13            9.9126    -5.4785    -2.8730 N.2     
  14 C14            8.6961    -5.7291    -3.2875 C.2     
  15 C15            7.5894    -4.9371    -2.7563 C.ar    
  16 C16            7.8734    -3.9268    -1.8122 C.ar    
  17 N17            9.1894    -3.7366    -1.4359 N.pl3   
  18 C18            6.2678    -5.1564    -3.1588 C.ar    
  19 C19            5.2760    -4.3555    -2.6017 C.ar    
  20 C20            5.6369    -3.3672    -1.6657 C.ar    
  21 N21            6.9002    -3.1888    -1.3082 N.ar    
  22 N22            9.7858    -2.8384    -0.5431 N.2     
  23 C23           11.0780    -3.0445    -0.5238 C.2     
  24 C24           11.3816    -4.0861    -1.4102 C.2     
  25 C25           13.2921    -4.5060    -2.9642 C.ar    
  26 C26           12.7290    -4.6326    -1.6944 C.ar    
  27 C27           13.4577    -5.2835    -0.6938 C.ar    
  28 C28           14.7121    -5.7757    -1.0103 C.ar    
  29 C29           15.2003    -5.6098    -2.2935 C.ar    
  30 N30           14.4898    -4.9916    -3.2174 N.ar    
  31 C31            3.8568    -4.5398    -2.9890 C.ar    
  32 C32            3.5000    -4.5907    -4.3356 C.ar    
  33 C33            2.1774    -4.7629    -4.6902 C.ar    
  34 C34            1.2066    -4.8845    -3.7123 C.ar    
  35 C35            1.5548    -4.8347    -2.3745 C.ar    
  36 C36            2.8749    -4.6686    -2.0080 C.ar    
  37 C37           12.0758    -2.2825     0.3098 C.3     
  38 C38           -0.6363     1.7336     1.4426 C.3     
  39 C39           -0.7319     3.2451     1.6595 C.3     
  40 C40           -1.9987     2.4284     1.3967 C.3     
  41 N41            1.5713    -0.0472     2.1199 N.3     
  42 H42           -0.5163    -0.8323     0.7146 H       
  43 H43            0.1708    -0.6744    -0.9599 H       
  44 H44            1.8678     1.4229    -0.9770 H       
  45 H45            1.8922     2.1444     0.6903 H       
  46 H46           -0.3465     1.5035    -1.8687 H       
  47 H47            3.7932    -0.9649     1.8308 H       
  48 H48            5.5450    -2.3861     0.8500 H       
  49 H49            3.3932    -2.4483    -2.8576 H       
  50 H50            1.6467    -1.0354    -1.8555 H       
  51 H51            8.5137    -6.5095    -4.0114 H       
  52 H52            6.0250    -5.9234    -3.8794 H       
  53 H53           12.7390    -4.0097    -3.7479 H       
  54 H54           13.0522    -5.3988     0.3005 H       
  55 H55           15.3035    -6.2836    -0.2629 H       
  56 H56           16.1787    -5.9928    -2.5435 H       
  57 H57            4.2570    -4.4952    -5.0999 H       
  58 H58            1.8998    -4.8025    -5.7332 H       
  59 H59            0.1727    -5.0184    -3.9945 H       
  60 H60            0.7926    -4.9302    -1.6153 H       
  61 H61            3.1461    -4.6344    -0.9632 H       
  62 H62           12.1971    -2.7771     1.2735 H       
  63 H63           13.0349    -2.2542    -0.2073 H       
  64 H64           11.7171    -1.2652     0.4661 H       
  65 H65           -0.4163     1.1134     2.3115 H       
  66 H66           -0.5752     3.6193     2.6712 H       
  67 H67           -0.3749     3.8921     0.8582 H       
  68 H68           -2.4751     2.5381     0.4225 H       
  69 H69           -2.6754     2.2653     2.2355 H       
  70 H70            2.5187    -0.0574     2.4672 H       
  71 H71            1.0581     0.7376     2.4925 H       
@<TRIPOS>BOND
   1    1    2 1
   2    1    4 1
   3    1    5 1
   4    1   38 1
   5    2    3 1
   6    2   42 1
   7    2   43 1
   8    3    4 1
   9    3    6 1
  10    3   41 1
  11    4   44 1
  12    4   45 1
  13    5   46 1
  14    6    7 ar
  15    6   11 ar
  16    7    8 ar
  17    7   47 1
  18    8    9 ar
  19    8   48 1
  20    9   10 ar
  21    9   20 1
  22   10   11 ar
  23   10   49 1
  24   11   50 1
  25   12   13 1
  26   12   17 1
  27   12   24 2
  28   13   14 2
  29   14   15 1
  30   14   51 1
  31   15   16 ar
  32   15   18 ar
  33   16   17 1
  34   16   21 ar
  35   17   22 1
  36   18   19 ar
  37   18   52 1
  38   19   20 ar
  39   19   31 1
  40   20   21 ar
  41   22   23 2
  42   23   24 1
  43   23   37 1
  44   24   26 1
  45   25   26 ar
  46   25   30 ar
  47   25   53 1
  48   26   27 ar
  49   27   28 ar
  50   27   54 1
  51   28   29 ar
  52   28   55 1
  53   29   30 ar
  54   29   56 1
  55   31   32 ar
  56   31   36 ar
  57   32   33 ar
  58   32   57 1
  59   33   34 ar
  60   33   58 1
  61   34   35 ar
  62   34   59 1
  63   35   36 ar
  64   35   60 1
  65   36   61 1
  66   37   62 1
  67   37   63 1
  68   37   64 1
  69   38   39 1
  70   38   40 1
  71   38   65 1
  72   39   40 1
  73   39   66 1
  74   39   67 1
  75   40   68 1
  76   40   69 1
  77   41   70 1
  78   41   71 1

#	End of record

