#	Name: ASD01884767
#	Creating user name:	WinNT
#	Creation time:	15. 06. 2019 19:48

#	Modifying user name:	WinNT
#	Modification time:	15. 06. 2019 19:48

#	Program:	/corina/corina34_cracker 3.40 0067  02.08.2006

@<TRIPOS>MOLECULE
ASD01884767
  38   40    0    0    0
SMALL
NO_CHARGES


@<TRIPOS>ATOM
   1 C1            -0.0163     1.3517     0.0095 C.2     
   2 C2             0.0021    -0.0041     0.0020 C.2     
   3 C3             1.2974    -0.6864    -0.0140 C.ar    
   4 C4             2.4749     0.0845    -0.0211 C.ar    
   5 N5             2.3874     1.4618    -0.0129 N.am    
   6 C6             1.1931     2.0790     0.0018 C.2     
   7 C7             1.3777    -2.0830    -0.0218 C.ar    
   8 C8             2.6152    -2.6940    -0.0364 C.ar    
   9 C9             3.7782    -1.9271    -0.0434 C.ar    
  10 C10            3.7119    -0.5516    -0.0359 C.ar    
  11 C11           -1.2828    -0.7915     0.0105 C.3     
  12 O12            1.1539     3.2973     0.0088 O.2     
  13 C13            3.6139     2.2630    -0.0198 C.3     
  14 C14            4.0214     2.5454    -1.4429 C.ar    
  15 C15            3.5535     3.6773    -2.0839 C.ar    
  16 C16            3.9269     3.9368    -3.3891 C.ar    
  17 C17            4.7692     3.0636    -4.0540 C.ar    
  18 C18            5.2372     1.9309    -3.4119 C.ar    
  19 C19            4.8676     1.6754    -2.1048 C.ar    
  20 Cl20           5.2382     3.3886    -5.6936 Cl      
  21 O21            2.6996    -4.0509    -0.0436 O.3     
  22 C22            4.0107    -4.6193    -0.0587 C.3     
  23 H23           -0.9599     1.8770     0.0168 H       
  24 H24            0.4772    -2.6792    -0.0160 H       
  25 H25            4.7411    -2.4161    -0.0549 H       
  26 H26            4.6200     0.0331    -0.0418 H       
  27 H27           -2.1295    -0.1051     0.0226 H       
  28 H28           -1.3330    -1.4147    -0.8824 H       
  29 H29           -1.3153    -1.4242     0.8975 H       
  30 H30            3.4361     3.2040     0.5008 H       
  31 H31            4.4094     1.7139     0.4839 H       
  32 H32            2.8957     4.3587    -1.5649 H       
  33 H33            3.5610     4.8210    -3.8899 H       
  34 H34            5.8947     1.2489    -3.9305 H       
  35 H35            5.2328     0.7913    -1.6035 H       
  36 H36            4.5399    -4.2882    -0.9523 H       
  37 H37            4.5569    -4.2966     0.8276 H       
  38 H38            3.9352    -5.7067    -0.0631 H       
@<TRIPOS>BOND
   1    1    2 2
   2    1    6 1
   3    1   23 1
   4    2    3 1
   5    2   11 1
   6    3    4 ar
   7    3    7 ar
   8    4    5 1
   9    4   10 ar
  10    5    6 am
  11    5   13 1
  12    6   12 2
  13    7    8 ar
  14    7   24 1
  15    8    9 ar
  16    8   21 1
  17    9   10 ar
  18    9   25 1
  19   10   26 1
  20   11   27 1
  21   11   28 1
  22   11   29 1
  23   13   14 1
  24   13   30 1
  25   13   31 1
  26   14   15 ar
  27   14   19 ar
  28   15   16 ar
  29   15   32 1
  30   16   17 ar
  31   16   33 1
  32   17   18 ar
  33   17   20 1
  34   18   19 ar
  35   18   34 1
  36   19   35 1
  37   21   22 1
  38   22   36 1
  39   22   37 1
  40   22   38 1

#	End of record

