#	Name: ASD01880462
#	Creating user name:	WinNT
#	Creation time:	15. 06. 2019 19:40

#	Modifying user name:	WinNT
#	Modification time:	15. 06. 2019 19:40

#	Program:	/corina/corina34_cracker 3.40 0067  02.08.2006

@<TRIPOS>MOLECULE
ASD01880462
  37   40    0    0    0
SMALL
NO_CHARGES


@<TRIPOS>ATOM
   1 C1            -0.0169     1.3927     0.0097 C.ar    
   2 C2             0.0021    -0.0041     0.0020 C.ar    
   3 C3             1.2136    -0.6908    -0.0127 C.ar    
   4 C4             2.4022     0.0191    -0.0202 C.ar    
   5 C5             2.3727     1.4243    -0.0129 C.ar    
   6 C6             1.1522     2.0998     0.0023 C.ar    
   7 N7             3.6290    -0.6374    -0.0344 N.pl3   
   8 C8             4.7923     0.0686    -0.0413 C.2     
   9 N9             4.8015     1.4553    -0.0342 N.am    
  10 C10            3.6502     2.1580    -0.0208 C.2     
  11 N11            3.9548    -2.0010    -0.0439 N.2     
  12 C12            5.2587    -2.1148    -0.0562 C.2     
  13 C13            5.8156    -0.8354    -0.0549 C.2     
  14 C14            6.0815     2.1681    -0.0423 C.3     
  15 O15            3.6665     3.3746    -0.0154 O.2     
  16 C16           -1.2740    -0.7593     0.0101 C.ar    
  17 C17            6.0291    -3.4099    -0.0694 C.3     
  18 C18           -2.4900    -0.0777     0.0253 C.ar    
  19 C19           -3.6745    -0.7851     0.0328 C.ar    
  20 C20           -3.6569    -2.1696     0.0252 C.ar    
  21 C21           -2.4519    -2.8513     0.0106 C.ar    
  22 C22           -1.2618    -2.1532    -0.0033 C.ar    
  23 Cl23          -5.1509    -3.0537     0.0347 Cl      
  24 H24           -0.9612     1.9168     0.0170 H       
  25 H25            1.2258    -1.7707    -0.0179 H       
  26 H26            1.1315     3.1796     0.0076 H       
  27 H27            6.8699    -0.6014    -0.0637 H       
  28 H28            6.3894     2.3502    -1.0719 H       
  29 H29            5.9707     3.1197     0.4775 H       
  30 H30            6.8366     1.5646     0.4614 H       
  31 H31            6.2060    -3.7169    -1.1002 H       
  32 H32            6.9841    -3.2698     0.4370 H       
  33 H33            5.4543    -4.1798     0.4455 H       
  34 H34           -2.5048     1.0021     0.0315 H       
  35 H35           -4.6171    -0.2581     0.0449 H       
  36 H36           -2.4435    -3.9312     0.0051 H       
  37 H37           -0.3224    -2.6858    -0.0147 H       
@<TRIPOS>BOND
   1    1    2 ar
   2    1    6 ar
   3    1   24 1
   4    2    3 ar
   5    2   16 1
   6    3    4 ar
   7    3   25 1
   8    4    5 ar
   9    4    7 1
  10    5    6 ar
  11    5   10 1
  12    6   26 1
  13    7    8 1
  14    7   11 1
  15    8    9 1
  16    8   13 2
  17    9   10 am
  18    9   14 1
  19   10   15 2
  20   11   12 2
  21   12   13 1
  22   12   17 1
  23   13   27 1
  24   14   28 1
  25   14   29 1
  26   14   30 1
  27   16   18 ar
  28   16   22 ar
  29   17   31 1
  30   17   32 1
  31   17   33 1
  32   18   19 ar
  33   18   34 1
  34   19   20 ar
  35   19   35 1
  36   20   21 ar
  37   20   23 1
  38   21   22 ar
  39   21   36 1
  40   22   37 1

#	End of record

