#	Name: ASD09116198
#	Creating user name:	WinNT
#	Creation time:	15. 06. 2019 21:21

#	Modifying user name:	WinNT
#	Modification time:	15. 06. 2019 21:21

#	Program:	/corina/corina34_cracker 3.40 0067  02.08.2006

@<TRIPOS>MOLECULE
ASD09116198
  74   80    0    0    0
SMALL
NO_CHARGES


@<TRIPOS>ATOM
   1 N1            -0.0590     1.5275    -0.5288 N.2     
   2 N2            -0.0821     0.2487    -1.1086 N.pl3   
   3 C3             1.1949     1.9112    -0.4981 C.2     
   4 N4             1.9590     0.9472    -1.0251 N.2     
   5 C5             1.2030    -0.0630    -1.3983 C.2     
   6 N6             1.6572     3.1282     0.0023 N.pl3   
   7 C7             3.0332     3.3746     0.0833 C.ar    
   8 C8             3.5136     4.6731    -0.0243 C.ar    
   9 C9             5.7565     3.8596     0.2448 C.ar    
  10 C10            5.2744     2.5630     0.3574 C.ar    
  11 C11            3.9169     2.3209     0.2769 C.ar    
  12 C12           -1.2076    -0.5442    -1.3400 C.ar    
  13 N13           -1.1865    -1.4615    -2.2954 N.ar    
  14 N14           -2.1983    -2.2106    -2.5553 N.ar    
  15 C15           -3.3304    -2.1070    -1.8779 C.ar    
  16 C16           -3.4380    -1.1807    -0.8367 C.ar    
  17 C17           -2.3543    -0.3743    -0.5600 C.ar    
  18 C18           -4.5154    -2.9311    -2.2108 C.ar    
  19 C19           -5.7516    -2.3024    -2.3685 C.ar    
  20 C20           -5.8380    -0.8053    -2.2522 C.3     
  21 C21           -5.7904    -0.3563    -0.7943 C.3     
  22 C22           -4.7029    -1.1086    -0.0319 C.3     
  23 C23           -4.4116    -4.3095    -2.3620 C.ar    
  24 C24           -5.5401    -5.0526    -2.6498 C.ar    
  25 C25           -6.7669    -4.4283    -2.7842 C.ar    
  26 C26           -6.8729    -3.0554    -2.6433 C.ar    
  27 N27            1.6431    -1.2352    -1.9832 N.pl3   
  28 C28            4.8722     4.9159     0.0562 C.ar    
  29 N29            7.1339     4.1047     0.3266 N.3     
  30 C30            7.6714     3.6634     1.6211 C.3     
  31 C31            9.1871     3.8747     1.6399 C.3     
  32 C32            7.4308     5.5249     0.0929 C.3     
  33 C33            8.9465     5.7362     0.1116 C.3     
  34 N34            9.4841     5.2948     1.4062 N.3     
  35 C35           10.9279     5.5518     1.4919 C.3     
  36 F36            5.3404     6.1788    -0.0488 F       
  37 C37            9.7360     3.4603     2.9808 C.ar    
  38 C38           10.3372     2.2244     3.1296 C.ar    
  39 C39           10.8406     1.8443     4.3596 C.ar    
  40 C40           10.7432     2.7002     5.4408 C.ar    
  41 C41           10.1429     3.9365     5.2917 C.ar    
  42 C42            9.6433     4.3183     4.0607 C.ar    
  43 H43            1.0255     3.8040     0.2943 H       
  44 H44            2.8261     5.4930    -0.1711 H       
  45 H45            5.9613     1.7425     0.5039 H       
  46 H46            3.5425     1.3117     0.3650 H       
  47 H47           -2.3931     0.3664     0.2251 H       
  48 H48           -5.0030    -0.3570    -2.7908 H       
  49 H49           -6.7725    -0.4663    -2.6994 H       
  50 H50           -5.5822     0.7129    -0.7547 H       
  51 H51           -6.7559    -0.5507    -0.3272 H       
  52 H52           -5.0495    -2.1195     0.1825 H       
  53 H53           -4.5014    -0.5929     0.9071 H       
  54 H54           -3.4536    -4.7965    -2.2555 H       
  55 H55           -5.4641    -6.1232    -2.7704 H       
  56 H56           -7.6473    -5.0154    -3.0003 H       
  57 H57           -7.8340    -2.5743    -2.7487 H       
  58 H58            2.5890    -1.3672    -2.1529 H       
  59 H59            1.0061    -1.9259    -2.2242 H       
  60 H60            7.2134     4.2438     2.4220 H       
  61 H61            7.4498     2.6059     1.7654 H       
  62 H62            9.6479     3.2728     0.8566 H       
  63 H63            7.0338     5.8246    -0.8770 H       
  64 H64            6.9701     6.1265     0.8764 H       
  65 H65            9.4046     5.1558    -0.6893 H       
  66 H66            9.1681     6.7936    -0.0326 H       
  67 H67           11.1087     6.6260     1.4527 H       
  68 H68           11.3129     5.1526     2.4303 H       
  69 H69           11.4334     5.0675     0.6564 H       
  70 H70           10.4132     1.5557     2.2850 H       
  71 H71           11.3096     0.8785     4.4761 H       
  72 H72           11.1359     2.4030     6.4019 H       
  73 H73           10.0665     4.6050     6.1365 H       
  74 H74            9.1743     5.2842     3.9442 H       
@<TRIPOS>BOND
   1    1    2 1
   2    1    3 2
   3    2   12 1
   4    2    5 1
   5    3    4 1
   6    3    6 1
   7    4    5 2
   8    5   27 1
   9    6    7 1
  10    6   43 1
  11    7    8 ar
  12    7   11 ar
  13    8   28 ar
  14    8   44 1
  15    9   10 ar
  16    9   28 ar
  17    9   29 1
  18   10   11 ar
  19   10   45 1
  20   11   46 1
  21   12   13 ar
  22   12   17 ar
  23   13   14 ar
  24   14   15 ar
  25   15   16 ar
  26   15   18 1
  27   16   17 ar
  28   16   22 1
  29   17   47 1
  30   18   19 ar
  31   18   23 ar
  32   19   20 1
  33   19   26 ar
  34   20   21 1
  35   20   48 1
  36   20   49 1
  37   21   22 1
  38   21   50 1
  39   21   51 1
  40   22   52 1
  41   22   53 1
  42   23   24 ar
  43   23   54 1
  44   24   25 ar
  45   24   55 1
  46   25   26 ar
  47   25   56 1
  48   26   57 1
  49   27   58 1
  50   27   59 1
  51   28   36 1
  52   29   30 1
  53   29   32 1
  54   30   31 1
  55   30   60 1
  56   30   61 1
  57   31   37 1
  58   31   34 1
  59   31   62 1
  60   32   33 1
  61   32   63 1
  62   32   64 1
  63   33   34 1
  64   33   65 1
  65   33   66 1
  66   34   35 1
  67   35   67 1
  68   35   68 1
  69   35   69 1
  70   37   38 ar
  71   37   42 ar
  72   38   39 ar
  73   38   70 1
  74   39   40 ar
  75   39   71 1
  76   40   41 ar
  77   40   72 1
  78   41   42 ar
  79   41   73 1
  80   42   74 1

#	End of record

