#	Name: ASD03740210
#	Creating user name:	WinNT
#	Creation time:	15. 06. 2019 20:46

#	Modifying user name:	WinNT
#	Modification time:	15. 06. 2019 20:46

#	Program:	/corina/corina34_cracker 3.40 0067  02.08.2006

@<TRIPOS>MOLECULE
ASD03740210
  72   75    0    0    0
SMALL
NO_CHARGES


@<TRIPOS>ATOM
   1 C1            -0.2305     1.3287    -0.1030 C.2     
   2 N2            -2.3864     0.5811    -6.3192 N.pl3   
   3 O3            -0.2379     0.1350    -0.3376 O.2     
   4 S4            -3.0106     1.3561    -0.4716 S.3     
   5 C5            -2.5333     0.7634    -4.9390 C.ar    
   6 O6             0.9344     2.0052     0.0711 O.3     
   7 C7             0.9113     2.9596     1.1425 C.3     
   8 O8            -2.6012     4.0553     0.5599 O.3     
   9 C9            -0.1515     4.0180     0.8417 C.3     
  10 O10            0.6028    -1.1560     7.7658 O.3     
  11 C11           -1.4474     3.3601     0.4533 C.2     
  12 C12           -1.4800     2.0931    -0.0037 C.2     
  13 C13            0.5701     2.2493     2.4539 C.3     
  14 C14            1.6206     1.1745     2.7401 C.3     
  15 C15           -5.9324    -0.7828    -3.2371 C.3     
  16 C16           -4.5911    -1.0912    -1.1519 C.3     
  17 C17           -0.3426     1.9849    -4.9275 C.3     
  18 C18           -1.5586     1.4436    -4.2210 C.ar    
  19 C19            2.6495     4.3502    -0.0590 C.3     
  20 C20            0.5251    -0.5560     4.1782 C.ar    
  21 C21           -3.6567     0.2685    -4.2890 C.ar    
  22 C22            3.1248     5.8958     1.7675 C.3     
  23 C23            1.9219     1.0869     5.2230 C.ar    
  24 C24           -3.8024     0.4488    -2.9282 C.ar    
  25 C25            2.2412     4.7593     2.3109 C.3     
  26 C26            1.6737     0.5173     6.4568 C.ar    
  27 C27           -2.8248     1.1252    -2.2085 C.ar    
  28 C28            2.2818     3.6292     1.2616 C.3     
  29 C29            0.8482    -0.5935     6.5532 C.ar    
  30 C30           -1.7037     1.6243    -2.8598 C.ar    
  31 C31            0.2740    -1.1296     5.4097 C.ar    
  32 C32           -5.0217    -0.0874    -2.2233 C.3     
  33 C33           -5.7793     1.0675    -1.5651 C.3     
  34 C34            3.6716     5.4166     0.4069 C.3     
  35 C35            1.3481     0.5511     4.0848 C.ar    
  36 H36           -1.6037     0.9299    -6.7738 H       
  37 H37           -3.0672     0.1060    -6.8209 H       
  38 H38           -3.3930     3.5355     0.3653 H       
  39 H39           -0.3100     4.6322     1.7281 H       
  40 H40            0.1913     4.6513     0.0234 H       
  41 H41           -0.1681    -0.7897     8.2205 H       
  42 H42            0.5607     2.9741     3.2679 H       
  43 H43           -0.4122     1.7842     2.3703 H       
  44 H44            1.5747     0.4068     1.9677 H       
  45 H45            2.6121     1.6273     2.7438 H       
  46 H46           -6.8143    -1.1706    -2.7272 H       
  47 H47           -6.2391    -0.0677    -4.0004 H       
  48 H48           -5.3926    -1.6055    -3.7060 H       
  49 H49           -4.0514    -1.9139    -1.6207 H       
  50 H50           -3.9423    -0.5957    -0.4296 H       
  51 H51           -5.4730    -1.4790    -0.6420 H       
  52 H52           -0.5423     3.0011    -5.2677 H       
  53 H53            0.5038     1.9914    -4.2407 H       
  54 H54           -0.1097     1.3539    -5.7852 H       
  55 H55            3.1089     3.6564    -0.7630 H       
  56 H56            1.7711     4.8230    -0.4985 H       
  57 H57            0.0816    -0.9753     3.2872 H       
  58 H58           -4.4164    -0.2572    -4.8484 H       
  59 H59            2.5304     6.7995     1.6337 H       
  60 H60            3.9491     6.0887     2.4541 H       
  61 H61            2.5644     1.9517     5.1474 H       
  62 H62            2.6366     4.4007     3.2613 H       
  63 H63            1.2179     5.1115     2.4409 H       
  64 H64            2.1221     0.9362     7.3455 H       
  65 H65            3.0436     2.8936     1.5195 H       
  66 H66           -0.9459     2.1540    -2.3015 H       
  67 H67           -0.3692    -1.9941     5.4822 H       
  68 H68           -6.6612     0.6797    -1.0553 H       
  69 H69           -5.1305     1.5629    -0.8429 H       
  70 H70           -6.0861     1.7826    -2.3284 H       
  71 H71            4.6591     4.9713     0.5280 H       
  72 H72            3.7095     6.2440    -0.3018 H       
@<TRIPOS>BOND
   1    1    3 2
   2    1    6 1
   3    1   12 1
   4    2    5 1
   5    2   36 1
   6    2   37 1
   7    4   12 1
   8    4   27 1
   9    5   18 ar
  10    5   21 ar
  11    6    7 1
  12    7    9 1
  13    7   13 1
  14    7   28 1
  15    8   11 1
  16    8   38 1
  17    9   11 1
  18    9   39 1
  19    9   40 1
  20   10   29 1
  21   10   41 1
  22   11   12 2
  23   13   14 1
  24   13   42 1
  25   13   43 1
  26   14   35 1
  27   14   44 1
  28   14   45 1
  29   15   32 1
  30   15   46 1
  31   15   47 1
  32   15   48 1
  33   16   32 1
  34   16   49 1
  35   16   50 1
  36   16   51 1
  37   17   18 1
  38   17   52 1
  39   17   53 1
  40   17   54 1
  41   18   30 ar
  42   19   28 1
  43   19   34 1
  44   19   55 1
  45   19   56 1
  46   20   31 ar
  47   20   35 ar
  48   20   57 1
  49   21   24 ar
  50   21   58 1
  51   22   25 1
  52   22   34 1
  53   22   59 1
  54   22   60 1
  55   23   26 ar
  56   23   35 ar
  57   23   61 1
  58   24   27 ar
  59   24   32 1
  60   25   28 1
  61   25   62 1
  62   25   63 1
  63   26   29 ar
  64   26   64 1
  65   27   30 ar
  66   28   65 1
  67   29   31 ar
  68   30   66 1
  69   31   67 1
  70   32   33 1
  71   33   68 1
  72   33   69 1
  73   33   70 1
  74   34   71 1
  75   34   72 1

#	End of record

