#	Name: ASD03092050
#	Creating user name:	WinNT
#	Creation time:	15. 06. 2019 20:31

#	Modifying user name:	WinNT
#	Modification time:	15. 06. 2019 20:31

#	Program:	/corina/corina34_cracker 3.40 0067  02.08.2006

@<TRIPOS>MOLECULE
ASD03092050
  43   45    0    0    0
SMALL
NO_CHARGES


@<TRIPOS>ATOM
   1 N1             0.1283     1.3367     0.0448 N.am    
   2 C2            -0.0107    -0.0259    -0.0085 C.2     
   3 C3            -1.3459    -0.2973    -0.0522 C.2     
   4 C4            -2.0343     0.9263    -0.0249 C.2     
   5 N5            -1.1549     1.8981     0.0385 N.2     
   6 N6            -3.4226     1.0825    -0.0548 N.pl3   
   7 C7            -3.9866     2.3531     0.0964 C.ar    
   8 C8            -5.2415     2.6240    -0.4334 C.ar    
   9 C9            -5.7982     3.8815    -0.2831 C.ar    
  10 C10           -5.1042     4.8708     0.3959 C.ar    
  11 C11           -3.2949     3.3436     0.7814 C.ar    
  12 C12            1.0855    -1.0185    -0.0171 C.ar    
  13 C13            1.2917     2.0150     0.0995 C.2     
  14 F14           -7.0187     4.1455    -0.7987 F       
  15 C15            0.9620    -2.2324     0.6683 C.ar    
  16 C16            2.0094    -3.1294     0.6336 C.ar    
  17 N17            3.1146    -2.8551    -0.0326 N.ar    
  18 C18            3.2722    -1.7229    -0.6919 C.ar    
  19 C19            2.2734    -0.7723    -0.7158 C.ar    
  20 C20            4.5587    -1.4680    -1.4342 C.3     
  21 N21            1.2907     3.3611     0.0336 N.am    
  22 O22            2.3415     1.4128     0.2081 O.2     
  23 C23            2.5553     4.0984     0.0931 C.3     
  24 C24            2.2754     5.5996    -0.0014 C.3     
  25 F25           -5.6491     6.0984     0.5419 F       
  26 C26           -3.8518     4.6017     0.9256 C.ar    
  27 F27           -3.1769     5.5669     1.5875 F       
  28 H28           -1.7945    -1.2786    -0.0998 H       
  29 H29           -3.9951     0.3096    -0.1804 H       
  30 H30           -5.7823     1.8535    -0.9628 H       
  31 H31           -2.3210     3.1328     1.1981 H       
  32 H32            0.0605    -2.4632     1.2163 H       
  33 H33            1.9237    -4.0689     1.1594 H       
  34 H34            2.4093     0.1520    -1.2575 H       
  35 H35            4.4695    -1.8409    -2.4545 H       
  36 H36            4.7600    -0.3970    -1.4551 H       
  37 H37            5.3771    -1.9818    -0.9298 H       
  38 H38            0.4527     3.8418    -0.0531 H       
  39 H39            3.0585     3.8812     1.0352 H       
  40 H40            3.1923     3.7946    -0.7376 H       
  41 H41            3.2163     6.1481     0.0428 H       
  42 H42            1.7721     5.8168    -0.9435 H       
  43 H43            1.6383     5.9034     0.8293 H       
@<TRIPOS>BOND
   1    1    2 1
   2    1   13 am
   3    1    5 1
   4    2    3 2
   5    2   12 1
   6    3    4 1
   7    3   28 1
   8    4    5 2
   9    4    6 1
  10    6    7 1
  11    6   29 1
  12    7    8 ar
  13    7   11 ar
  14    8    9 ar
  15    8   30 1
  16    9   10 ar
  17    9   14 1
  18   10   26 ar
  19   10   25 1
  20   11   26 ar
  21   11   31 1
  22   12   15 ar
  23   12   19 ar
  24   13   21 am
  25   13   22 2
  26   15   16 ar
  27   15   32 1
  28   16   17 ar
  29   16   33 1
  30   17   18 ar
  31   18   19 ar
  32   18   20 1
  33   19   34 1
  34   20   35 1
  35   20   36 1
  36   20   37 1
  37   21   23 1
  38   21   38 1
  39   23   24 1
  40   23   39 1
  41   23   40 1
  42   24   41 1
  43   24   42 1
  44   24   43 1
  45   26   27 1

#	End of record

