#	Name: ASD04910508
#	Creating user name:	WinNT
#	Creation time:	15. 06. 2019 20:56

#	Modifying user name:	WinNT
#	Modification time:	15. 06. 2019 20:56

#	Program:	/corina/corina34_cracker 3.40 0067  02.08.2006

@<TRIPOS>MOLECULE
ASD04910508
  48   49    0    0    0
SMALL
NO_CHARGES


@<TRIPOS>ATOM
   1 N1             0.0935     1.7064     0.2185 N.3     
   2 C2             0.1208     0.2472     0.0510 C.3     
   3 C3             0.9036    -0.1062    -1.2152 C.3     
   4 C4             0.7877    -0.3832     1.2463 C.ar    
   5 C5             0.2332     0.5315    -2.4446 C.3     
   6 C6             0.2848    -1.5565     1.7780 C.ar    
   7 C7             0.8942    -2.1369     2.8732 C.ar    
   8 C8             2.0126    -1.5411     3.4404 C.ar    
   9 C9             2.5152    -0.3631     2.9043 C.ar    
  10 C10            1.9046     0.2098     1.8058 C.ar    
  11 C11            0.3452    -3.4153     3.4523 C.3     
  12 C12            3.7287     0.2871     3.5172 C.3     
  13 N13            2.6330    -2.1275     4.5523 N.pl3   
  14 N14            2.0117    -2.4598     5.7631 N.2     
  15 C15            2.9119    -2.9861     6.5539 C.2     
  16 C16            4.1344    -3.0064     5.8737 C.2     
  17 C17            3.9358    -2.4780     4.6439 C.2     
  18 C18            2.3284     0.4800    -1.1364 C.3     
  19 C19            2.6363     0.9261    -2.5874 C.3     
  20 C20            1.2740     1.4830    -3.0701 C.3     
  21 C21            5.4406    -3.5295     6.4135 C.3     
  22 F22            5.2512    -4.0014     7.7168 F       
  23 F23            5.8962    -4.5735     5.6012 F       
  24 F24            6.3871    -2.4993     6.4234 F       
  25 H25            1.0277     2.0784     0.3013 H       
  26 H26           -0.4058     2.1480    -0.5391 H       
  27 H27           -0.8990    -0.1277    -0.0358 H       
  28 H28            0.9505    -1.1886    -1.3349 H       
  29 H29           -0.0444    -0.2413    -3.1614 H       
  30 H30           -0.6498     1.0929    -2.1393 H       
  31 H31           -0.5854    -2.0193     1.3366 H       
  32 H32            2.2951     1.1261     1.3884 H       
  33 H33            0.7859    -4.2673     2.9346 H       
  34 H34            0.5903    -3.4683     4.5131 H       
  35 H35           -0.7375    -3.4350     3.3281 H       
  36 H36            4.6306    -0.1612     3.1004 H       
  37 H37            3.7188     1.3547     3.2978 H       
  38 H38            3.7145     0.1379     4.5969 H       
  39 H39            2.7406    -3.3431     7.5587 H       
  40 H40            4.6846    -2.3532     3.8757 H       
  41 H41            2.3522     1.3353    -0.4612 H       
  42 H42            3.0372    -0.2824    -0.8131 H       
  43 H43            3.3981     1.7056    -2.5984 H       
  44 H44            2.9435     0.0756    -3.1960 H       
  45 H45            1.2134     1.4527    -4.1580 H       
  46 H46            1.1276     2.5003    -2.7072 H       
  47 Cl47          11.3871     7.5003    12.7168 Cl      
  48 H48           11.3871     8.8703    12.7168 H       
@<TRIPOS>BOND
   1    1    2 1
   2    1   25 1
   3    1   26 1
   4    2    3 1
   5    2    4 1
   6    2   27 1
   7    3    5 1
   8    3   18 1
   9    3   28 1
  10    4    6 ar
  11    4   10 ar
  12    5   20 1
  13    5   29 1
  14    5   30 1
  15    6    7 ar
  16    6   31 1
  17    7    8 ar
  18    7   11 1
  19    8    9 ar
  20    8   13 1
  21    9   10 ar
  22    9   12 1
  23   10   32 1
  24   11   33 1
  25   11   34 1
  26   11   35 1
  27   12   36 1
  28   12   37 1
  29   12   38 1
  30   13   14 1
  31   13   17 1
  32   14   15 2
  33   15   16 1
  34   15   39 1
  35   16   17 2
  36   16   21 1
  37   17   40 1
  38   18   19 1
  39   18   41 1
  40   18   42 1
  41   19   20 1
  42   19   43 1
  43   19   44 1
  44   20   45 1
  45   20   46 1
  46   21   22 1
  47   21   23 1
  48   21   24 1
  49   47   48 1

#	End of record

