#	Name: ASD01910032
#	Creating user name:	WinNT
#	Creation time:	15. 06. 2019 19:55

#	Modifying user name:	WinNT
#	Modification time:	15. 06. 2019 19:55

#	Program:	/corina/corina34_cracker 3.40 0067  02.08.2006

@<TRIPOS>MOLECULE
ASD01910032
  44   47    0    0    0
SMALL
NO_CHARGES


@<TRIPOS>ATOM
   1 C1            -0.0167     1.3769     0.0096 C.ar    
   2 C2             0.0021    -0.0041     0.0020 C.ar    
   3 C3             1.2080    -0.6806    -0.0131 C.ar    
   4 C4             2.3987     0.0227    -0.0207 C.ar    
   5 C5             2.3866     1.4038    -0.0132 C.ar    
   6 C6             1.1772     2.0861     0.0020 C.ar    
   7 N7             1.1616     3.4868     0.0097 N.pl3   
   8 C8             0.2442     4.2807    -0.6093 C.2     
   9 C9             0.5821     5.5734    -0.3600 C.2     
  10 C10            1.7426     5.5689     0.4366 C.2     
  11 N11            2.0832     4.3169     0.6603 N.2     
  12 N12           -0.8443     3.8461    -1.3628 N.am    
  13 C13           -1.6781     4.7447    -1.9229 C.2     
  14 C14           -2.8332     4.2835    -2.7225 C.ar    
  15 C15           -3.6970     5.2147    -3.3029 C.ar    
  16 C16           -4.7732     4.7853    -4.0472 C.ar    
  17 C17           -5.0003     3.4182    -4.2222 C.ar    
  18 C18           -4.1359     2.4869    -3.6420 C.ar    
  19 C19           -3.0568     2.9167    -2.9021 C.ar    
  20 C20            2.4555     6.7682     0.9420 C.ar    
  21 C21            3.5990     6.6236     1.7250 C.ar    
  22 C22            4.2584     7.7425     2.1921 C.ar    
  23 C23            3.7858     9.0056     1.8847 C.ar    
  24 C24            2.6509     9.1550     1.1082 C.ar    
  25 C25            1.9872     8.0431     0.6307 C.ar    
  26 O26           -1.4805     5.9345    -1.7708 O.2     
  27 C27           -6.1195     2.9715    -4.9958 C.1     
  28 N28           -7.0074     2.6171    -5.6095 N.1     
  29 H29           -0.9589     1.9047     0.0169 H       
  30 H30           -0.9261    -0.5562     0.0083 H       
  31 H31            1.2201    -1.7605    -0.0187 H       
  32 H32            3.3389    -0.5085    -0.0322 H       
  33 H33            3.3168     1.9525    -0.0188 H       
  34 H34            0.0544     6.4480    -0.7107 H       
  35 H35           -1.0020     2.8967    -1.4843 H       
  36 H36           -3.5214     6.2717    -3.1676 H       
  37 H37           -5.4416     5.5055    -4.4954 H       
  38 H38           -4.3116     1.4298    -3.7769 H       
  39 H39           -2.3884     2.1967    -2.4535 H       
  40 H40            3.9685     5.6379     1.9662 H       
  41 H41            5.1449     7.6316     2.7990 H       
  42 H42            4.3047     9.8785     2.2526 H       
  43 H43            2.2860    10.1435     0.8715 H       
  44 H44            1.1013     8.1608     0.0242 H       
@<TRIPOS>BOND
   1    1    2 ar
   2    1    6 ar
   3    1   29 1
   4    2    3 ar
   5    2   30 1
   6    3    4 ar
   7    3   31 1
   8    4    5 ar
   9    4   32 1
  10    5    6 ar
  11    5   33 1
  12    6    7 1
  13    7    8 1
  14    7   11 1
  15    8    9 2
  16    8   12 1
  17    9   10 1
  18    9   34 1
  19   10   11 2
  20   10   20 1
  21   12   13 am
  22   12   35 1
  23   13   14 1
  24   13   26 2
  25   14   15 ar
  26   14   19 ar
  27   15   16 ar
  28   15   36 1
  29   16   17 ar
  30   16   37 1
  31   17   18 ar
  32   17   27 1
  33   18   19 ar
  34   18   38 1
  35   19   39 1
  36   20   21 ar
  37   20   25 ar
  38   21   22 ar
  39   21   40 1
  40   22   23 ar
  41   22   41 1
  42   23   24 ar
  43   23   42 1
  44   24   25 ar
  45   24   43 1
  46   25   44 1
  47   27   28 3

#	End of record

