#	Name: ASD03430891
#	Creating user name:	WinNT
#	Creation time:	15. 06. 2019 20:41

#	Modifying user name:	WinNT
#	Modification time:	15. 06. 2019 20:41

#	Program:	/corina/corina34_cracker 3.40 0067  02.08.2006

@<TRIPOS>MOLECULE
ASD03430891
  35   39    0    0    0
SMALL
NO_CHARGES


@<TRIPOS>ATOM
   1 O1            -0.0175     1.4361     0.0099 O.3     
   2 C2             0.0021    -0.0041     0.0020 C.3     
   3 C3             1.3449    -0.3157    -0.6722 C.3     
   4 C4             2.1584     0.9234    -0.4096 C.ar    
   5 C5             1.2627     1.9063     0.0002 C.ar    
   6 C6             1.7495     3.1679     0.3277 C.ar    
   7 C7             3.1033     3.4440     0.2359 C.ar    
   8 C8             3.9874     2.4562    -0.1823 C.ar    
   9 C9             3.5066     1.1963    -0.5042 C.ar    
  10 N10            2.1625    -2.4006    -1.1294 N.am    
  11 C11            1.9854    -1.5478    -0.1007 C.2     
  12 C12            1.1867    -0.5930    -2.1377 C.ar    
  13 C13            0.6728     0.1288    -3.1940 C.ar    
  14 C14            0.6690    -0.4154    -4.4689 C.ar    
  15 C15            1.1812    -1.6822    -4.6770 C.ar    
  16 C16            1.6962    -2.4077    -3.6224 C.ar    
  17 C17            1.7039    -1.8704    -2.3377 C.ar    
  18 O18            2.2851    -1.7381     1.0591 O.2     
  19 O19            5.3220     2.7081    -0.2782 O.3     
  20 O20            3.5532     4.6893     0.5535 O.3     
  21 C21            5.7154     4.0846    -0.3075 C.3     
  22 C22            4.9564     4.8235     0.8031 C.3     
  23 F23            0.1725     1.3665    -2.9864 F       
  24 H24           -0.0209    -0.3969     1.0185 H       
  25 H25           -0.8268    -0.3990    -0.5855 H       
  26 H26            1.0664     3.9376     0.6554 H       
  27 H27            4.1902     0.4263    -0.8299 H       
  28 H28            2.5623    -3.2800    -1.0410 H       
  29 H29            0.2665     0.1488    -5.2972 H       
  30 H30            1.1786    -2.1061    -5.6703 H       
  31 H31            2.0948    -3.3967    -3.7939 H       
  32 H32            6.7887     4.1641    -0.1352 H       
  33 H33            5.4646     4.5182    -1.2756 H       
  34 H34            5.2315     5.8782     0.7973 H       
  35 H35            5.2013     4.3846     1.7704 H       
@<TRIPOS>BOND
   1    1    2 1
   2    1    5 1
   3    2    3 1
   4    2   24 1
   5    2   25 1
   6    3    4 1
   7    3   11 1
   8    3   12 1
   9    4    5 ar
  10    4    9 ar
  11    5    6 ar
  12    6    7 ar
  13    6   26 1
  14    7    8 ar
  15    7   20 1
  16    8    9 ar
  17    8   19 1
  18    9   27 1
  19   10   11 am
  20   10   17 1
  21   10   28 1
  22   11   18 2
  23   12   13 ar
  24   12   17 ar
  25   13   14 ar
  26   13   23 1
  27   14   15 ar
  28   14   29 1
  29   15   16 ar
  30   15   30 1
  31   16   17 ar
  32   16   31 1
  33   19   21 1
  34   20   22 1
  35   21   22 1
  36   21   32 1
  37   21   33 1
  38   22   34 1
  39   22   35 1

#	End of record

