#	Name: ASD01883073
#	Creating user name:	WinNT
#	Creation time:	15. 06. 2019 19:45

#	Modifying user name:	WinNT
#	Modification time:	15. 06. 2019 19:45

#	Program:	/corina/corina34_cracker 3.40 0067  02.08.2006

@<TRIPOS>MOLECULE
ASD01883073
  40   42    0    0    0
SMALL
NO_CHARGES


@<TRIPOS>ATOM
   1 N1            -0.0162     1.3417     0.0094 N.am    
   2 C2             0.0021    -0.0041     0.0020 C.2     
   3 C3            -1.2161    -0.7274     0.0102 C.2     
   4 C4            -2.4261    -0.0112     0.0261 C.2     
   5 C5            -2.3786     1.3968     0.0332 C.2     
   6 C6            -1.1850     2.0325     0.0299 C.2     
   7 O7             1.0657    -0.6000    -0.0122 O.2     
   8 C8            -1.2151    -2.1594     0.0021 C.1     
   9 N9            -1.2144    -3.2953    -0.0044 N.1     
  10 C10            1.2513     2.0764     0.0013 C.3     
  11 C11            1.6723     2.3359    -1.4223 C.ar    
  12 C12            1.2649     3.4908    -2.0636 C.ar    
  13 C13            1.6507     3.7294    -3.3692 C.ar    
  14 C14            2.4448     2.8122    -4.0342 C.ar    
  15 C15            2.8522     1.6565    -3.3918 C.ar    
  16 C16            2.4704     1.4217    -2.0843 C.ar    
  17 C17           -3.7218    -0.7213     0.0347 C.ar    
  18 C18           -4.5708    -0.6162     1.1391 C.ar    
  19 C19           -5.7778    -1.2797     1.1433 C.ar    
  20 C20           -6.1513    -2.0534     0.0510 C.ar    
  21 C21           -5.3094    -2.1609    -1.0494 C.ar    
  22 C22           -4.1037    -1.4950    -1.0640 C.ar    
  23 O23           -7.3417    -2.7063     0.0591 O.3     
  24 C24           -7.6630    -3.4838    -1.0960 C.3     
  25 Cl25           2.9293     3.1109    -5.6742 Cl      
  26 H26           -3.2949     1.9683     0.0453 H       
  27 H27           -1.1610     3.1122     0.0354 H       
  28 H28            1.1242     3.0258     0.5214 H       
  29 H29            2.0168     1.4859     0.5046 H       
  30 H30            0.6447     4.2066    -1.5445 H       
  31 H31            1.3321     4.6315    -3.8703 H       
  32 H32            3.4721     0.9401    -3.9104 H       
  33 H33            2.7883     0.5197    -1.5828 H       
  34 H34           -4.2809    -0.0157     1.9887 H       
  35 H35           -6.4347    -1.1990     1.9968 H       
  36 H36           -5.6031    -2.7634    -1.8962 H       
  37 H37           -3.4501    -1.5788    -1.9197 H       
  38 H38           -7.6895    -2.8373    -1.9733 H       
  39 H39           -6.9064    -4.2558    -1.2363 H       
  40 H40           -8.6382    -3.9512    -0.9596 H       
@<TRIPOS>BOND
   1    1    2 am
   2    1   10 1
   3    1    6 1
   4    2    3 1
   5    2    7 2
   6    3    4 2
   7    3    8 1
   8    4    5 1
   9    4   17 1
  10    5    6 2
  11    5   26 1
  12    6   27 1
  13    8    9 3
  14   10   11 1
  15   10   28 1
  16   10   29 1
  17   11   12 ar
  18   11   16 ar
  19   12   13 ar
  20   12   30 1
  21   13   14 ar
  22   13   31 1
  23   14   15 ar
  24   14   25 1
  25   15   16 ar
  26   15   32 1
  27   16   33 1
  28   17   18 ar
  29   17   22 ar
  30   18   19 ar
  31   18   34 1
  32   19   20 ar
  33   19   35 1
  34   20   21 ar
  35   20   23 1
  36   21   22 ar
  37   21   36 1
  38   22   37 1
  39   23   24 1
  40   24   38 1
  41   24   39 1
  42   24   40 1

#	End of record

