#	Name: ASD03081127
#	Creating user name:	WinNT
#	Creation time:	15. 06. 2019 20:27

#	Modifying user name:	WinNT
#	Modification time:	15. 06. 2019 20:27

#	Program:	/corina/corina34_cracker 3.40 0067  02.08.2006

@<TRIPOS>MOLECULE
ASD03081127
  25   27    0    0    0
SMALL
NO_CHARGES


@<TRIPOS>ATOM
   1 O1            -0.0144     1.2085     0.0087 O.3     
   2 N2             0.0021    -0.0041     0.0020 N.2     
   3 C3             1.2344    -0.4424    -0.0121 C.2     
   4 N4             2.0457     0.6355    -0.0141 N.2     
   5 C5             1.2414     1.6827    -0.0008 C.2     
   6 C6             1.6457     3.1027     0.0026 C.ar    
   7 C7             0.6755     4.1094     0.0173 C.ar    
   8 C8             1.0632     5.4380     0.0208 C.ar    
   9 C9             2.4077     5.7700     0.0093 C.ar    
  10 C10            3.3720     4.7788    -0.0057 C.ar    
  11 C11            3.0008     3.4475    -0.0031 C.ar    
  12 F12            3.9450     2.4813    -0.0117 F       
  13 F13            0.1281     6.4130     0.0350 F       
  14 F14           -0.6362     3.7863     0.0276 F       
  15 C15            3.0142    -2.2121    -0.0374 C.ar    
  16 C16            1.6617    -1.8647    -0.0231 C.ar    
  17 C17            0.7227    -2.9022    -0.0189 C.ar    
  18 C18            1.1964    -4.2030    -0.0293 C.ar    
  19 N19            2.4961    -4.4309    -0.0426 N.ar    
  20 N20            3.3614    -3.4839    -0.0465 N.ar    
  21 H21            2.7047     6.8084     0.0118 H       
  22 H22            4.4185     5.0458    -0.0150 H       
  23 H23            3.7720    -1.4426    -0.0456 H       
  24 H24           -0.3372    -2.6949    -0.0076 H       
  25 H25            0.5027    -5.0308    -0.0262 H       
@<TRIPOS>BOND
   1    1    2 1
   2    1    5 1
   3    2    3 2
   4    3    4 1
   5    3   16 1
   6    4    5 2
   7    5    6 1
   8    6    7 ar
   9    6   11 ar
  10    7    8 ar
  11    7   14 1
  12    8    9 ar
  13    8   13 1
  14    9   10 ar
  15    9   21 1
  16   10   11 ar
  17   10   22 1
  18   11   12 1
  19   15   16 ar
  20   15   20 ar
  21   15   23 1
  22   16   17 ar
  23   17   18 ar
  24   17   24 1
  25   18   19 ar
  26   18   25 1
  27   19   20 ar

#	End of record

