#	Name: ASD00310071
#	Creating user name:	WinNT
#	Creation time:	15. 06. 2019 18:33

#	Modifying user name:	WinNT
#	Modification time:	15. 06. 2019 18:33

#	Program:	/corina/corina34_cracker 3.40 0067  02.08.2006

@<TRIPOS>MOLECULE
ASD00310071
  39   42    0    0    0
SMALL
NO_CHARGES


@<TRIPOS>ATOM
   1 N1             0.3851     3.4086    -3.4002 N.pl3   
   2 C2             0.2068     2.1029    -3.6810 C.2     
   3 C3             1.3564     1.4042    -3.3824 C.2     
   4 C4             2.3207     2.3989    -2.8698 C.ar    
   5 C5             3.6321     2.3223    -2.4096 C.ar    
   6 C6             4.2792     3.4785    -1.9846 C.ar    
   7 C7             3.6103     4.7076    -2.0220 C.ar    
   8 C8             2.3126     4.7832    -2.4768 C.ar    
   9 C9             1.6535     3.6332    -2.9056 C.ar    
  10 C10            1.5703     0.0118    -3.5357 C.2     
  11 O11            0.6842    -0.6941    -3.9723 O.2     
  12 C12            5.6765     3.4086    -1.4919 C.ar    
  13 C13            6.6981     4.0466    -2.1930 C.ar    
  14 C14            7.9963     3.9786    -1.7296 C.ar    
  15 C15            8.2844     3.2789    -0.5717 C.ar    
  16 C16            7.2745     2.6433     0.1280 C.ar    
  17 C17            5.9718     2.7095    -0.3229 C.ar    
  18 C18            9.7040     3.2083    -0.0708 C.3     
  19 C19           10.4079     4.5293     0.2458 C.3     
  20 C20            9.9608     3.6089     1.3833 C.3     
  21 C21           10.5536     2.0768    -0.6529 C.3     
  22 O22           10.0201     0.8181    -0.2370 O.3     
  23 F23            4.2423     5.8278    -1.6084 F       
  24 F24            4.2724     1.1331    -2.3755 F       
  25 H25           -0.2853     4.0972    -3.5317 H       
  26 H26           -0.6991     1.6699    -4.0788 H       
  27 H27            1.8050     5.7361    -2.5015 H       
  28 H28            2.5216    -0.4216    -3.2642 H       
  29 H29            6.4744     4.5928    -3.0974 H       
  30 H30            8.7889     4.4723    -2.2723 H       
  31 H31            7.5051     2.0981     1.0313 H       
  32 H32            5.1833     2.2166     0.2265 H       
  33 H33           11.4764     4.5922     0.0398 H       
  34 H34            9.8442     5.4494     0.0919 H       
  35 H35            9.1029     3.9235     1.9777 H       
  36 H36           10.7351     3.0663     1.9256 H       
  37 H37           10.5402     2.1354    -1.7412 H       
  38 H38           11.5793     2.1724    -0.2965 H       
  39 H39           10.5103     0.0539    -0.5699 H       
@<TRIPOS>BOND
   1    1    2 1
   2    1    9 1
   3    1   25 1
   4    2    3 2
   5    2   26 1
   6    3    4 1
   7    3   10 1
   8    4    5 ar
   9    4    9 ar
  10    5    6 ar
  11    5   24 1
  12    6    7 ar
  13    6   12 1
  14    7    8 ar
  15    7   23 1
  16    8    9 ar
  17    8   27 1
  18   10   11 2
  19   10   28 1
  20   12   13 ar
  21   12   17 ar
  22   13   14 ar
  23   13   29 1
  24   14   15 ar
  25   14   30 1
  26   15   16 ar
  27   15   18 1
  28   16   17 ar
  29   16   31 1
  30   17   32 1
  31   18   19 1
  32   18   20 1
  33   18   21 1
  34   19   20 1
  35   19   33 1
  36   19   34 1
  37   20   35 1
  38   20   36 1
  39   21   22 1
  40   21   37 1
  41   21   38 1
  42   22   39 1

#	End of record

