#	Name: ASD07930313
#	Creating user name:	WinNT
#	Creation time:	15. 06. 2019 21:12

#	Modifying user name:	WinNT
#	Modification time:	15. 06. 2019 21:12

#	Program:	/corina/corina34_cracker 3.40 0067  02.08.2006

@<TRIPOS>MOLECULE
ASD07930313
  47   48    0    0    0
SMALL
NO_CHARGES


@<TRIPOS>ATOM
   1 N1            -0.0058     1.4468     0.2169 N.pl3   
   2 C2             0.0021    -0.0041     0.0020 C.3     
   3 C3             0.8305    -0.6733     1.1081 C.3     
   4 N4             2.1538     1.7084     1.1103 N.am    
   5 C5             1.1734     2.1401     0.2463 C.2     
   6 C6            -1.4106    -0.5271     0.0446 C.ar    
   7 C7            -2.1698    -0.3779     1.1927 C.ar    
   8 C8             2.8667     2.6382     1.9899 C.3     
   9 C9             0.6230    -0.3156    -1.3612 C.3     
  10 C10           -1.9505    -1.1506    -1.0642 C.ar    
  11 C11           -3.2466    -1.6304    -1.0262 C.ar    
  12 C12           -4.0044    -1.4877     0.1208 C.ar    
  13 C13           -3.4684    -0.8593     1.2304 C.ar    
  14 F14           -1.6446     0.2361     2.2755 F       
  15 Cl15          -4.4197    -0.6803     2.6715 Cl      
  16 N16            1.3656     3.1934    -0.5327 N.2     
  17 O17            0.5937     4.6689    -2.1594 O.3     
  18 C18           -0.4818     5.0417    -3.0233 C.3     
  19 C19           -1.7188     5.3704    -2.1851 C.3     
  20 C20           -0.0776     6.2708    -3.8398 C.3     
  21 C21           -0.8006     3.8828    -3.9701 C.3     
  22 C22            0.3979     3.5953    -1.3655 C.2     
  23 O23           -0.6589     2.9925    -1.4067 O.2     
  24 S24            2.4898     0.0764     1.1075 S.o2    
  25 O25            3.1484    -0.1554     2.3452 O.2     
  26 O26            3.1459    -0.1516    -0.1321 O.2     
  27 H27           -0.8470     1.9152     0.3342 H       
  28 H28            0.3535    -0.5102     2.0745 H       
  29 H29            0.9099    -1.7426     0.9122 H       
  30 H30            2.4917     3.6492     1.8303 H       
  31 H31            2.7060     2.3509     3.0290 H       
  32 H32            3.9327     2.6063     1.7648 H       
  33 H33            1.6455     0.0609    -1.3893 H       
  34 H34            0.6284    -1.3940    -1.5201 H       
  35 H35            0.0374     0.1642    -2.1454 H       
  36 H36           -1.3596    -1.2629    -1.9612 H       
  37 H37           -3.6674    -2.1169    -1.8938 H       
  38 H38           -5.0169    -1.8625     0.1491 H       
  39 H39           -1.4917     6.1960    -1.5106 H       
  40 H40           -2.5392     5.6548    -2.8441 H       
  41 H41           -2.0068     4.4948    -1.6034 H       
  42 H42            0.8037     6.0366    -4.4369 H       
  43 H43           -0.8979     6.5552    -4.4987 H       
  44 H44            0.1495     7.0964    -3.1653 H       
  45 H45           -1.0886     3.0071    -3.3884 H       
  46 H46           -1.6210     4.1672    -4.6291 H       
  47 H47            0.0806     3.6486    -4.5673 H       
@<TRIPOS>BOND
   1    1    2 1
   2    1    5 1
   3    1   27 1
   4    2    3 1
   5    2    6 1
   6    2    9 1
   7    3   24 1
   8    3   28 1
   9    3   29 1
  10    4    5 1
  11    4    8 1
  12    4   24 am
  13    5   16 2
  14    6   10 ar
  15    6    7 ar
  16    7   14 1
  17    7   13 ar
  18    8   30 1
  19    8   31 1
  20    8   32 1
  21    9   33 1
  22    9   34 1
  23    9   35 1
  24   10   11 ar
  25   10   36 1
  26   11   12 ar
  27   11   37 1
  28   12   13 ar
  29   12   38 1
  30   13   15 1
  31   16   22 1
  32   17   18 1
  33   17   22 1
  34   18   19 1
  35   18   20 1
  36   18   21 1
  37   19   39 1
  38   19   40 1
  39   19   41 1
  40   20   42 1
  41   20   43 1
  42   20   44 1
  43   21   45 1
  44   21   46 1
  45   21   47 1
  46   22   23 2
  47   24   25 2
  48   24   26 2

#	End of record

