#	Name: ASD01913099
#	Creating user name:	WinNT
#	Creation time:	15. 06. 2019 20:00

#	Modifying user name:	WinNT
#	Modification time:	15. 06. 2019 20:00

#	Program:	/corina/corina34_cracker 3.40 0067  02.08.2006

@<TRIPOS>MOLECULE
ASD01913099
  45   46    0    0    0
SMALL
NO_CHARGES


@<TRIPOS>ATOM
   1 C1            -0.0168     1.3858     0.0097 C.ar    
   2 C2             0.0021    -0.0041     0.0020 C.ar    
   3 C3             1.2130    -0.6863    -0.0132 C.ar    
   4 C4             2.3993     0.0128    -0.0203 C.ar    
   5 C5             2.3846     1.4101    -0.0126 C.ar    
   6 C6             1.1652     2.0922     0.0022 C.ar    
   7 N7             3.6376     3.5111    -0.0123 N.am    
   8 C8             3.6538     2.1635    -0.0197 C.2     
   9 O9             4.7140     1.5683    -0.0322 O.2     
  10 O10           -1.1649    -0.6967     0.0099 O.3     
  11 C11           -1.0730    -2.1228     0.0013 C.3     
  12 C12            4.8974     4.2589    -0.0193 C.3     
  13 C13            4.6634     5.6467    -0.6195 C.3     
  14 C14            5.9791     6.4276    -0.6268 C.3     
  15 C15            6.4944     6.5721     0.8065 C.3     
  16 C16            6.7284     5.1843     1.4067 C.3     
  17 C17            5.4127     4.4033     1.4140 C.3     
  18 C18           -2.4796    -2.7246     0.0120 C.3     
  19 C19           -2.3812    -4.2514     0.0029 C.3     
  20 C20           -3.7878    -4.8532     0.0136 C.3     
  21 H21           -0.9597     1.9123     0.0170 H       
  22 H22            1.2235    -1.7663    -0.0191 H       
  23 H23            3.3397    -0.5180    -0.0314 H       
  24 H24            1.1497     3.1721     0.0078 H       
  25 H25            2.7919     3.9859    -0.0024 H       
  26 H26           -0.5457    -2.4475    -0.8957 H       
  27 H27           -0.5280    -2.4570     0.8841 H       
  28 H28            5.6343     3.7236    -0.6181 H       
  29 H29            4.2963     5.5437    -1.6406 H       
  30 H30            3.9265     6.1819    -0.0207 H       
  31 H31            6.7160     5.8923    -1.2256 H       
  32 H32            5.8124     7.4163    -1.0544 H       
  33 H33            7.4317     7.1284     0.8013 H       
  34 H34            5.7575     7.1073     1.4053 H       
  35 H35            7.4653     4.6490     0.8079 H       
  36 H36            7.0955     5.2872     2.4278 H       
  37 H37            4.6758     4.9386     2.0128 H       
  38 H38            5.5794     3.4146     1.8416 H       
  39 H39           -3.0069    -2.3999     0.9090 H       
  40 H40           -3.0245    -2.3903    -0.8708 H       
  41 H41           -1.8539    -4.5761    -0.8942 H       
  42 H42           -1.8362    -4.5856     0.8857 H       
  43 H43           -4.3151    -4.5285     0.9106 H       
  44 H44           -4.3327    -4.5189    -0.8693 H       
  45 H45           -3.7177    -5.9409     0.0070 H       
@<TRIPOS>BOND
   1    1    2 ar
   2    1    6 ar
   3    1   21 1
   4    2    3 ar
   5    2   10 1
   6    3    4 ar
   7    3   22 1
   8    4    5 ar
   9    4   23 1
  10    5    6 ar
  11    5    8 1
  12    6   24 1
  13    7    8 am
  14    7   12 1
  15    7   25 1
  16    8    9 2
  17   10   11 1
  18   11   18 1
  19   11   26 1
  20   11   27 1
  21   12   13 1
  22   12   17 1
  23   12   28 1
  24   13   14 1
  25   13   29 1
  26   13   30 1
  27   14   15 1
  28   14   31 1
  29   14   32 1
  30   15   16 1
  31   15   33 1
  32   15   34 1
  33   16   17 1
  34   16   35 1
  35   16   36 1
  36   17   37 1
  37   17   38 1
  38   18   19 1
  39   18   39 1
  40   18   40 1
  41   19   20 1
  42   19   41 1
  43   19   42 1
  44   20   43 1
  45   20   44 1
  46   20   45 1

#	End of record

