#	Name: ASD00191009
#	Creating user name:	WinNT
#	Creation time:	15. 06. 2019 18:33

#	Modifying user name:	WinNT
#	Modification time:	15. 06. 2019 18:33

#	Program:	/corina/corina34_cracker 3.40 0067  02.08.2006

@<TRIPOS>MOLECULE
ASD00191009
  48   50    0    0    0
SMALL
NO_CHARGES


@<TRIPOS>ATOM
   1 C1             0.2251     1.4885     0.2875 C.3     
   2 C2             0.0468     0.0068     0.0778 C.2     
   3 O3             0.5552    -0.5355    -0.8804 O.2     
   4 N4            -0.6776    -0.7156     0.9552 N.am    
   5 N5            -1.0089    -4.8381     0.4714 N.ar    
   6 C6             0.0526    -4.1975     0.0221 C.ar    
   7 C7             0.1918    -2.8139     0.1698 C.ar    
   8 C8            -0.7921    -2.0931     0.7952 C.ar    
   9 C9            -1.9289    -2.7900     1.2746 C.ar    
  10 C10           -2.9735    -2.1187     1.9231 C.ar    
  11 C11           -4.0522    -2.8220     2.3707 C.ar    
  12 C12           -4.1290    -4.2002     2.1919 C.ar    
  13 C13           -3.1306    -4.8830     1.5656 C.ar    
  14 C14           -2.0041    -4.1911     1.0908 C.ar    
  15 N15            1.0573    -4.9147    -0.6129 N.pl3   
  16 C16            1.0306    -6.3121    -0.6046 C.ar    
  17 C17            2.2134    -7.0316    -0.7182 C.ar    
  18 C18            2.1834    -8.4123    -0.7097 C.ar    
  19 C19            0.9777    -9.0785    -0.5888 C.ar    
  20 C20           -0.2017    -8.3653    -0.4760 C.ar    
  21 C21           -0.1782    -6.9845    -0.4771 C.ar    
  22 C22            1.0822     2.0639    -0.8417 C.3     
  23 C23            1.2632     3.5682    -0.6288 C.3     
  24 C24            2.1203     4.1436    -1.7581 C.3     
  25 C25            2.3013     5.6479    -1.5452 C.3     
  26 H26           -0.7501     1.9754     0.2877 H       
  27 H27            0.7187     1.6634     1.2435 H       
  28 H28           -1.1191    -0.2753     1.6982 H       
  29 H29            1.0721    -2.3148    -0.2075 H       
  30 H30           -2.9244    -1.0496     2.0680 H       
  31 H31           -4.8570    -2.3034     2.8706 H       
  32 H32           -4.9931    -4.7363     2.5557 H       
  33 H33           -3.2046    -5.9525     1.4348 H       
  34 H34            1.7779    -4.4460    -1.0624 H       
  35 H35            3.1554    -6.5119    -0.8133 H       
  36 H36            3.1027    -8.9723    -0.7979 H       
  37 H37            0.9570   -10.1583    -0.5827 H       
  38 H38           -1.1417    -8.8887    -0.3821 H       
  39 H39           -1.0996    -6.4280    -0.3887 H       
  40 H40            2.0574     1.5771    -0.8419 H       
  41 H41            0.5886     1.8891    -1.7977 H       
  42 H42            0.2880     4.0550    -0.6287 H       
  43 H43            1.7568     3.7430     0.3272 H       
  44 H44            3.0955     3.6567    -1.7583 H       
  45 H45            1.6267     3.9687    -2.7141 H       
  46 H46            2.7948     5.8227    -0.5892 H       
  47 H47            2.9119     6.0578    -2.3497 H       
  48 H48            1.3261     6.1347    -1.5450 H       
@<TRIPOS>BOND
   1    1    2 1
   2    1   22 1
   3    1   26 1
   4    1   27 1
   5    2    3 2
   6    2    4 am
   7    4    8 1
   8    4   28 1
   9    5    6 ar
  10    5   14 ar
  11    6    7 ar
  12    6   15 1
  13    7    8 ar
  14    7   29 1
  15    8    9 ar
  16    9   10 ar
  17    9   14 ar
  18   10   11 ar
  19   10   30 1
  20   11   12 ar
  21   11   31 1
  22   12   13 ar
  23   12   32 1
  24   13   14 ar
  25   13   33 1
  26   15   16 1
  27   15   34 1
  28   16   17 ar
  29   16   21 ar
  30   17   18 ar
  31   17   35 1
  32   18   19 ar
  33   18   36 1
  34   19   20 ar
  35   19   37 1
  36   20   21 ar
  37   20   38 1
  38   21   39 1
  39   22   23 1
  40   22   40 1
  41   22   41 1
  42   23   24 1
  43   23   42 1
  44   23   43 1
  45   24   25 1
  46   24   44 1
  47   24   45 1
  48   25   46 1
  49   25   47 1
  50   25   48 1

#	End of record

