#	Name: ASD06140032
#	Creating user name:	WinNT
#	Creation time:	15. 06. 2019 21:05

#	Modifying user name:	WinNT
#	Modification time:	15. 06. 2019 21:05

#	Program:	/corina/corina34_cracker 3.40 0067  02.08.2006

@<TRIPOS>MOLECULE
ASD06140032
  35   37    0    0    0
SMALL
NO_CHARGES


@<TRIPOS>ATOM
   1 C1            -0.0159     1.3214     0.0093 C.2     
   2 C2             0.0021    -0.0041     0.0020 C.2     
   3 C3            -1.2926    -0.7753     0.0102 C.3     
   4 N4            -1.3984    -1.6255    -1.1845 N.am    
   5 C5            -1.1402    -2.9210    -1.0516 C.2     
   6 C6            -0.7666    -3.3939     0.3391 C.3     
   7 S7            -1.3163    -1.9892     1.3889 S.3     
   8 O8            -1.2004    -3.6846    -1.9920 O.2     
   9 C9            -1.7607    -1.0857    -2.4241 C.ar    
  10 C10           -0.7833    -0.6118    -3.2889 C.ar    
  11 C11           -3.0989    -1.0282    -2.7941 C.ar    
  12 C12           -3.4535    -0.4945    -4.0189 C.ar    
  13 C13           -2.4785    -0.0187    -4.8757 C.ar    
  14 C14           -1.1443    -0.0793    -4.5123 C.ar    
  15 Cl15          -4.3240    -1.6264    -1.7195 Cl      
  16 Cl16           0.0764     0.5195    -5.5916 Cl      
  17 C17            1.2540     2.0779     0.0012 C.ar    
  18 C18            1.2385     3.4731     0.0089 C.ar    
  19 C19            2.4274     4.1732     0.0012 C.ar    
  20 C20            3.6330     3.4949    -0.0140 C.ar    
  21 C21            3.6552     2.1117    -0.0221 C.ar    
  22 C22            2.4734     1.3997    -0.0083 C.ar    
  23 H23           -0.9584     1.8487     0.0166 H       
  24 H24            0.9446    -0.5313    -0.0098 H       
  25 H25           -2.1431    -0.0967     0.0765 H       
  26 H26           -1.3060    -4.3053     0.5969 H       
  27 H27            0.3101    -3.5424     0.4222 H       
  28 H28            0.2578    -0.6589    -3.0058 H       
  29 H29           -4.4934    -0.4495    -4.3070 H       
  30 H30           -2.7581     0.3972    -5.8324 H       
  31 H31            0.2980     4.0038     0.0204 H       
  32 H32            2.4168     5.2532     0.0068 H       
  33 H33            4.5608     4.0476    -0.0199 H       
  34 H34            4.5997     1.5880    -0.0343 H       
  35 H35            2.4920     0.3199    -0.0146 H       
@<TRIPOS>BOND
   1    1    2 2
   2    1   17 1
   3    1   23 1
   4    2    3 1
   5    2   24 1
   6    3    4 1
   7    3    7 1
   8    3   25 1
   9    4    5 am
  10    4    9 1
  11    5    6 1
  12    5    8 2
  13    6    7 1
  14    6   26 1
  15    6   27 1
  16    9   10 ar
  17    9   11 ar
  18   10   14 ar
  19   10   28 1
  20   11   12 ar
  21   11   15 1
  22   12   13 ar
  23   12   29 1
  24   13   14 ar
  25   13   30 1
  26   14   16 1
  27   17   18 ar
  28   17   22 ar
  29   18   19 ar
  30   18   31 1
  31   19   20 ar
  32   19   32 1
  33   20   21 ar
  34   20   33 1
  35   21   22 ar
  36   21   34 1
  37   22   35 1

#	End of record

