#	Name: ASD01811251
#	Creating user name:	WinNT
#	Creation time:	15. 06. 2019 19:26

#	Modifying user name:	WinNT
#	Modification time:	15. 06. 2019 19:26

#	Program:	/corina/corina34_cracker 3.40 0067  02.08.2006

@<TRIPOS>MOLECULE
ASD01811251
  61   65    0    0    0
SMALL
NO_CHARGES


@<TRIPOS>ATOM
   1 C1             0.1012     1.5970    -0.5353 C.2     
   2 N2             0.2706     0.2907    -0.5475 N.2     
   3 C3             1.5307     0.0034    -0.8632 C.2     
   4 C4             2.2012     1.1911    -1.0632 C.2     
   5 N5             1.2800     2.1988    -0.8515 N.pl3   
   6 C6             3.5793     1.3492    -1.4190 C.1     
   7 N7             4.6725     1.4746    -1.7013 N.1     
   8 C8            -1.1659     2.2959    -0.2334 C.ar    
   9 C9            -2.3504     1.5685    -0.0929 C.ar    
  10 C10           -3.5346     2.2198     0.1891 C.ar    
  11 C11           -3.5571     3.5930     0.3343 C.ar    
  12 C12           -2.3803     4.3323     0.1965 C.ar    
  13 C13           -1.1806     3.6808    -0.0825 C.ar    
  14 C14           -4.8546     4.2952     0.6416 C.3     
  15 C15           -2.3356     0.0698    -0.2501 C.3     
  16 C16           -2.6234    -0.6894     1.0558 C.3     
  17 C17           -3.4657    -1.6615     0.2129 C.3     
  18 C18           -3.6574    -0.5067    -0.7844 C.3     
  19 C19           -2.4066     5.8026     0.3514 C.2     
  20 O20           -2.9592     6.3028     1.3115 O.2     
  21 N21           -1.8177     6.5881    -0.5720 N.am    
  22 C22           -1.7307     8.0412    -0.3730 C.3     
  23 C23           -2.3207     8.7431    -1.6002 C.3     
  24 C24           -1.6146     8.2379    -2.8605 C.3     
  25 C25           -1.8455     6.7322    -3.0078 C.3     
  26 C26           -1.2451     6.0068    -1.7939 C.3     
  27 C27           -2.1690     8.9512    -4.0667 C.ar    
  28 C28           -1.3299     9.7076    -4.8654 C.ar    
  29 C29           -1.8307    10.3632    -5.9710 C.ar    
  30 C30           -3.1878    10.2616    -6.2836 C.ar    
  31 C31           -4.0288     9.4961    -5.4735 C.ar    
  32 C32           -3.5138     8.8419    -4.3736 C.ar    
  33 C33           -3.7147    10.9397    -7.4295 C.1     
  34 N34           -4.1327    11.4777    -8.3385 N.1     
  35 H35            1.9540    -0.9866    -0.9480 H       
  36 H36            1.4425     3.1529    -0.9161 H       
  37 H37           -4.4475     1.6528     0.2963 H       
  38 H38           -0.2670     4.2475    -0.1859 H       
  39 H39           -5.0187     4.3001     1.7192 H       
  40 H40           -4.8077     5.3213     0.2767 H       
  41 H41           -5.6757     3.7724     0.1513 H       
  42 H42           -1.4543    -0.2914    -0.7801 H       
  43 H43           -1.7391    -1.1484     1.4980 H       
  44 H44           -3.2080    -0.1155     1.7748 H       
  45 H45           -2.8941    -2.4970    -0.1912 H       
  46 H46           -4.3887    -1.9752     0.7004 H       
  47 H47           -4.5247     0.1172    -0.5685 H       
  48 H48           -3.6078    -0.8180    -1.8278 H       
  49 H49           -2.2954     8.3228     0.5157 H       
  50 H50           -0.6870     8.3316    -0.2526 H       
  51 H51           -3.3863     8.5238    -1.6675 H       
  52 H52           -2.1754     9.8195    -1.5085 H       
  53 H53           -0.5456     8.4353    -2.7817 H       
  54 H54           -2.9156     6.5318    -3.0618 H       
  55 H55           -1.3620     6.3773    -3.9179 H       
  56 H56           -0.1627     6.1348    -1.7869 H       
  57 H57           -1.4894     4.9457    -1.8430 H       
  58 H58           -0.2804     9.7854    -4.6225 H       
  59 H59           -1.1747    10.9539    -6.5933 H       
  60 H60           -5.0795     9.4133    -5.7095 H       
  61 H61           -4.1624     8.2461    -3.7484 H       
@<TRIPOS>BOND
   1    1    2 2
   2    1    5 1
   3    1    8 1
   4    2    3 1
   5    3    4 2
   6    3   35 1
   7    4    5 1
   8    4    6 1
   9    5   36 1
  10    6    7 3
  11    8    9 ar
  12    8   13 ar
  13    9   10 ar
  14    9   15 1
  15   10   11 ar
  16   10   37 1
  17   11   12 ar
  18   11   14 1
  19   12   13 ar
  20   12   19 1
  21   13   38 1
  22   14   39 1
  23   14   40 1
  24   14   41 1
  25   15   16 1
  26   15   18 1
  27   15   42 1
  28   16   17 1
  29   16   43 1
  30   16   44 1
  31   17   18 1
  32   17   45 1
  33   17   46 1
  34   18   47 1
  35   18   48 1
  36   19   20 2
  37   19   21 am
  38   21   22 1
  39   21   26 1
  40   22   23 1
  41   22   49 1
  42   22   50 1
  43   23   24 1
  44   23   51 1
  45   23   52 1
  46   24   25 1
  47   24   27 1
  48   24   53 1
  49   25   26 1
  50   25   54 1
  51   25   55 1
  52   26   56 1
  53   26   57 1
  54   27   28 ar
  55   27   32 ar
  56   28   29 ar
  57   28   58 1
  58   29   30 ar
  59   29   59 1
  60   30   31 ar
  61   30   33 1
  62   31   32 ar
  63   31   60 1
  64   32   61 1
  65   33   34 3

#	End of record

