#	Name: ASD03090794
#	Creating user name:	WinNT
#	Creation time:	15. 06. 2019 20:29

#	Modifying user name:	WinNT
#	Modification time:	15. 06. 2019 20:29

#	Program:	/corina/corina34_cracker 3.40 0067  02.08.2006

@<TRIPOS>MOLECULE
ASD03090794
  35   36    0    0    0
SMALL
NO_CHARGES


@<TRIPOS>ATOM
   1 C1            -1.3963     0.6315     1.9473 C.ar    
   2 N2            -1.7429    -0.6404     1.9341 N.ar    
   3 C3            -2.8612    -1.0548     1.3699 C.ar    
   4 C4            -3.7234    -0.1599     0.7633 C.ar    
   5 C5            -3.3943     1.1980     0.7546 C.ar    
   6 C6            -2.2023     1.5924     1.3688 C.ar    
   7 C7            -4.2885     2.1947     0.1158 C.2     
   8 N8            -5.4276     1.7978    -0.4624 N.2     
   9 C9            -6.2740     2.6968    -0.9462 C.2     
  10 N10           -6.6827     2.6193    -2.2475 N.pl3   
  11 C11           -7.6712     3.4882    -2.7234 C.ar    
  12 C12           -7.5373     4.0747    -3.9746 C.ar    
  13 C13           -9.6291     5.2067    -3.6628 C.ar    
  14 C14           -9.7656     4.6174    -2.4176 C.ar    
  15 C15           -8.7902     3.7602    -1.9469 C.ar    
  16 F16          -10.5845     6.0448    -4.1210 F       
  17 C17           -8.5159     4.9327    -4.4429 C.ar    
  18 F18           -8.3869     5.5042    -5.6603 F       
  19 S19           -6.8713     3.9913     0.0892 S.3     
  20 O20           -3.9854     3.3744     0.1178 O.2     
  21 Cl21          -3.2551    -2.7454     1.3888 Cl      
  22 C22           -0.1061     1.0435     2.6081 C.3     
  23 C23           -5.3957     5.0365     0.1687 C.3     
  24 H24           -4.6372    -0.5054     0.3028 H       
  25 H25           -1.9120     2.6325     1.3840 H       
  26 H26           -6.2877     1.9621    -2.8416 H       
  27 H27           -6.6697     3.8615    -4.5814 H       
  28 H28          -10.6355     4.8286    -1.8133 H       
  29 H29           -8.8978     3.3011    -0.9753 H       
  30 H30            0.7015     1.0167     1.8766 H       
  31 H31           -0.2064     2.0549     3.0019 H       
  32 H32            0.1197     0.3567     3.4239 H       
  33 H33           -5.6825     6.0802     0.0407 H       
  34 H34           -4.9117     4.9087     1.1369 H       
  35 H35           -4.7043     4.7498    -0.6237 H       
@<TRIPOS>BOND
   1    1    2 ar
   2    1   22 1
   3    1    6 ar
   4    2    3 ar
   5    3    4 ar
   6    3   21 1
   7    4    5 ar
   8    4   24 1
   9    5    6 ar
  10    5    7 1
  11    6   25 1
  12    7    8 1
  13    7   20 2
  14    8    9 2
  15    9   10 1
  16    9   19 1
  17   10   11 1
  18   10   26 1
  19   11   12 ar
  20   11   15 ar
  21   12   17 ar
  22   12   27 1
  23   13   14 ar
  24   13   16 1
  25   13   17 ar
  26   14   15 ar
  27   14   28 1
  28   15   29 1
  29   17   18 1
  30   19   23 1
  31   22   30 1
  32   22   31 1
  33   22   32 1
  34   23   33 1
  35   23   34 1
  36   23   35 1

#	End of record

