#	Name: ASD05730065
#	Creating user name:	WinNT
#	Creation time:	15. 06. 2019 21:02

#	Modifying user name:	WinNT
#	Modification time:	15. 06. 2019 21:02

#	Program:	/corina/corina34_cracker 3.40 0067  02.08.2006

@<TRIPOS>MOLECULE
ASD05730065
  78   85    0    0    0
SMALL
NO_CHARGES


@<TRIPOS>ATOM
   1 C1            12.2415    -0.8811     4.2019 C.3     
   2 C2            11.0186    -1.5361     3.6133 C.ar    
   3 C3             9.7645    -1.0136     3.8710 C.ar    
   4 C4             8.6417    -1.6117     3.3335 C.ar    
   5 C5             8.7733    -2.7391     2.5328 C.ar    
   6 C6            10.0345    -3.2611     2.2755 C.ar    
   7 C7            11.1536    -2.6551     2.8119 C.ar    
   8 N8             7.6388    -3.3474     1.9875 N.pl3   
   9 C9             7.6882    -3.8886     0.7171 C.ar    
  10 N10            6.6377    -4.5579     0.2677 N.ar    
  11 C11            6.6479    -5.0924    -0.9480 C.ar    
  12 C12            7.7991    -4.9327    -1.7493 C.ar    
  13 C13            8.8859    -4.2151    -1.2274 C.ar    
  14 N14            8.7859    -3.7138    -0.0106 N.ar    
  15 N15            5.5624    -5.7891    -1.4227 N.am    
  16 C16            5.5796    -6.3295    -2.6564 C.2     
  17 C17            6.7580    -6.1818    -3.5122 C.2     
  18 C18            7.8439    -5.4881    -3.0484 C.2     
  19 C19            4.4348    -5.9381    -0.6209 C.2     
  20 S20            3.0145    -6.7751    -1.0741 S.3     
  21 O21            4.6096    -6.9448    -3.0620 O.2     
  22 C22            6.7753    -6.7767    -4.8691 C.ar    
  23 C23            5.9017    -6.3085    -5.8498 C.ar    
  24 C24           13.0172    -1.8844     5.0754 C.3     
  25 C25            7.6694    -7.8034    -5.1721 C.ar    
  26 C26            7.6811    -8.3531    -6.4374 C.ar    
  27 C27            6.8083    -7.8878    -7.4050 C.ar    
  28 C28            5.9229    -6.8663    -7.1120 C.ar    
  29 S29            8.8104    -9.6497    -6.8223 S.o     
  30 C30            8.2130   -10.9958    -5.8548 C.2     
  31 O31            8.4382   -10.0160    -8.1439 O.2     
  32 N32            7.6187   -12.1086    -6.3366 N.am    
  33 N33           14.3507    -2.0559     4.4591 N.3     
  34 C34           14.6083    -0.8072     3.6972 C.3     
  35 C35           13.2259    -0.4766     3.0805 C.3     
  36 N36            4.3106    -5.4672     0.5803 N.2     
  37 C37            3.1698    -5.7020     1.1993 C.2     
  38 C38            2.2872    -6.4075     0.4879 C.2     
  39 N39            8.2766   -11.0850    -4.5545 N.2     
  40 C40            7.7255   -12.2435    -4.1631 C.2     
  41 C41            7.3076   -12.8986    -5.2630 C.2     
  42 S42            7.3217   -12.4531    -7.9289 S.o2    
  43 C43            8.8838   -12.6415    -8.7220 C.ar    
  44 C44            9.6920   -13.7186    -8.4097 C.ar    
  45 C45            9.2986   -11.7153    -9.6605 C.ar    
  46 C46           10.5242   -11.8631   -10.2827 C.ar    
  47 C47           11.3351   -12.9369    -9.9660 C.ar    
  48 C48           10.9176   -13.8664    -9.0319 C.ar    
  49 O49            6.7021   -13.7317    -7.9541 O.2     
  50 O50            6.7262   -11.2898    -8.4868 O.2     
  51 H51           11.9566    -0.0087     4.7900 H       
  52 H52            9.6629    -0.1370     4.4937 H       
  53 H53            7.6625    -1.2036     3.5358 H       
  54 H54           10.1403    -4.1376     1.6534 H       
  55 H55           12.1345    -3.0602     2.6120 H       
  56 H56            6.8169    -3.3894     2.5010 H       
  57 H57            9.7835    -4.0721    -1.8107 H       
  58 H58            8.7222    -5.3688    -3.6654 H       
  59 H59            5.2097    -5.5112    -5.6221 H       
  60 H60           13.1232    -1.4919     6.0867 H       
  61 H61           12.4930    -2.8398     5.0981 H       
  62 H62            8.3514    -8.1671    -4.4178 H       
  63 H63            6.8214    -8.3210    -8.3942 H       
  64 H64            5.2439    -6.5073    -7.8713 H       
  65 H65           15.0583    -2.2024     5.1632 H       
  66 H66           14.9325    -0.0090     4.3649 H       
  67 H67           15.3473    -0.9795     2.9147 H       
  68 H68           13.0523    -1.0695     2.1826 H       
  69 H69           13.1455     0.5883     2.8624 H       
  70 H70            2.9669    -5.3537     2.2013 H       
  71 H71            1.3006    -6.7024     0.8135 H       
  72 H72            7.6358   -12.5915    -3.1446 H       
  73 H73            6.8207   -13.8622    -5.2923 H       
  74 H74            9.3661   -14.4445    -7.6795 H       
  75 H75            8.6651   -10.8763    -9.9080 H       
  76 H76           10.8480   -11.1398   -11.0165 H       
  77 H77           12.2924   -13.0526   -10.4523 H       
  78 H78           11.5511   -14.7054    -8.7844 H       
@<TRIPOS>BOND
   1    1    2 1
   2    1   24 1
   3    1   35 1
   4    1   51 1
   5    2    3 ar
   6    2    7 ar
   7    3    4 ar
   8    3   52 1
   9    4    5 ar
  10    4   53 1
  11    5    6 ar
  12    5    8 1
  13    6    7 ar
  14    6   54 1
  15    7   55 1
  16    8    9 1
  17    8   56 1
  18    9   10 ar
  19    9   14 ar
  20   10   11 ar
  21   11   12 ar
  22   11   15 1
  23   12   13 ar
  24   12   18 1
  25   13   14 ar
  26   13   57 1
  27   15   16 am
  28   15   19 1
  29   16   17 1
  30   16   21 2
  31   17   18 2
  32   17   22 1
  33   18   58 1
  34   19   20 1
  35   19   36 2
  36   20   38 1
  37   22   25 ar
  38   22   23 ar
  39   23   28 ar
  40   23   59 1
  41   24   33 1
  42   24   60 1
  43   24   61 1
  44   25   26 ar
  45   25   62 1
  46   26   27 ar
  47   26   29 1
  48   27   28 ar
  49   27   63 1
  50   28   64 1
  51   29   30 1
  52   29   31 2
  53   30   32 1
  54   30   39 2
  55   32   42 am
  56   32   41 1
  57   33   34 1
  58   33   65 1
  59   34   35 1
  60   34   66 1
  61   34   67 1
  62   35   68 1
  63   35   69 1
  64   36   37 1
  65   37   38 2
  66   37   70 1
  67   38   71 1
  68   39   40 1
  69   40   41 2
  70   40   72 1
  71   41   73 1
  72   42   43 1
  73   42   49 2
  74   42   50 2
  75   43   44 ar
  76   43   45 ar
  77   44   48 ar
  78   44   74 1
  79   45   46 ar
  80   45   75 1
  81   46   47 ar
  82   46   76 1
  83   47   48 ar
  84   47   77 1
  85   48   78 1

#	End of record

