#	Name: ASD05380076
#	Creating user name:	WinNT
#	Creation time:	15. 06. 2019 20:59

#	Modifying user name:	WinNT
#	Modification time:	15. 06. 2019 20:59

#	Program:	/corina/corina34_cracker 3.40 0067  02.08.2006

@<TRIPOS>MOLECULE
ASD05380076
  57   61    0    0    0
SMALL
NO_CHARGES


@<TRIPOS>ATOM
   1 C1            -0.1522     1.5357    -0.4229 C.ar    
   2 C2             0.0168     0.2204     0.0649 C.ar    
   3 C3             0.9436     2.2465    -0.9075 C.ar    
   4 C4             2.1893     1.6574    -0.9067 C.ar    
   5 C5             2.3588     0.3649    -0.4285 C.ar    
   6 C6             1.2890    -0.3543     0.0556 C.ar    
   7 N7            -1.0645    -0.4523     0.5322 N.2     
   8 C8            -2.2474     0.0829     0.5416 C.2     
   9 N9            -2.5022     1.3415     0.0921 N.am    
  10 C10           -1.5032     2.1148    -0.3935 C.2     
  11 C11           -3.8090     1.8434     0.1372 C.ar    
  12 C12           -4.6673     1.6468    -0.9366 C.ar    
  13 C13           -4.2510     2.5335     1.2582 C.ar    
  14 C14           -5.5404     3.0268     1.2998 C.ar    
  15 C15           -6.3911     2.8335     0.2269 C.ar    
  16 C16           -5.9555     2.1425    -0.8889 C.ar    
  17 C17           -3.3967    -0.7317     1.0771 C.3     
  18 N18           -3.2090    -2.1385     0.7142 N.pl3   
  19 C19           -4.3032    -2.9797     0.6166 C.ar    
  20 N20           -5.5301    -2.5267     0.8490 N.ar    
  21 O21           -1.7166     3.2426    -0.7988 O.2     
  22 C22           -4.1409    -4.3306     0.2638 C.ar    
  23 C23           -5.2866    -5.1390     0.1792 C.ar    
  24 N24           -6.4767    -4.6044     0.4334 N.ar    
  25 C25           -6.5852    -3.3261     0.7573 C.ar    
  26 N26           -3.0762    -5.1132    -0.0398 N.2     
  27 C27           -3.4861    -6.3204    -0.2989 C.2     
  28 N28           -4.8434    -6.3875    -0.1772 N.pl3   
  29 C29            0.7678     3.6494    -1.4291 C.3     
  30 C30           -3.4486    -0.6005     2.6005 C.3     
  31 C31           -4.6868    -1.3245     3.1329 C.3     
  32 C32           -4.7387    -1.1934     4.6564 C.3     
  33 N33           -7.8433    -2.8046     1.0100 N.pl3   
  34 H34            3.0410     2.2055    -1.2816 H       
  35 H35            3.3421    -0.0817    -0.4360 H       
  36 H36            1.4333    -1.3587     0.4256 H       
  37 H37           -4.3276     1.1072    -1.8083 H       
  38 H38           -3.5873     2.6842     2.0967 H       
  39 H39           -5.8847     3.5636     2.1713 H       
  40 H40           -7.3991     3.2195     0.2621 H       
  41 H41           -6.6221     1.9935    -1.7255 H       
  42 H42           -4.3306    -0.3675     0.6490 H       
  43 H43           -2.3176    -2.4803     0.5422 H       
  44 H44           -2.8465    -7.1471    -0.5705 H       
  45 H45           -5.3940    -7.1739    -0.3165 H       
  46 H46            0.7870     4.3519    -0.5959 H       
  47 H47            1.5770     3.8839    -2.1207 H       
  48 H48           -0.1876     3.7271    -1.9480 H       
  49 H49           -2.5530    -1.0455     3.0342 H       
  50 H50           -3.4989     0.4537     2.8730 H       
  51 H51           -5.5824    -0.8795     2.6992 H       
  52 H52           -4.6365    -2.3787     2.8605 H       
  53 H53           -3.8432    -1.6383     5.0901 H       
  54 H54           -4.7891    -0.1391     4.9288 H       
  55 H55           -5.6209    -1.7091     5.0356 H       
  56 H56           -7.9417    -1.8697     1.2493 H       
  57 H57           -8.6259    -3.3743     0.9478 H       
@<TRIPOS>BOND
   1    1    2 ar
   2    1    3 ar
   3    1   10 1
   4    2    7 1
   5    2    6 ar
   6    3    4 ar
   7    3   29 1
   8    4    5 ar
   9    4   34 1
  10    5    6 ar
  11    5   35 1
  12    6   36 1
  13    7    8 2
  14    8    9 1
  15    8   17 1
  16    9   10 am
  17    9   11 1
  18   10   21 2
  19   11   12 ar
  20   11   13 ar
  21   12   16 ar
  22   12   37 1
  23   13   14 ar
  24   13   38 1
  25   14   15 ar
  26   14   39 1
  27   15   16 ar
  28   15   40 1
  29   16   41 1
  30   17   18 1
  31   17   30 1
  32   17   42 1
  33   18   19 1
  34   18   43 1
  35   19   20 ar
  36   19   22 ar
  37   20   25 ar
  38   22   23 ar
  39   22   26 1
  40   23   24 ar
  41   23   28 1
  42   24   25 ar
  43   25   33 1
  44   26   27 2
  45   27   28 1
  46   27   44 1
  47   28   45 1
  48   29   46 1
  49   29   47 1
  50   29   48 1
  51   30   31 1
  52   30   49 1
  53   30   50 1
  54   31   32 1
  55   31   51 1
  56   31   52 1
  57   32   53 1
  58   32   54 1
  59   32   55 1
  60   33   56 1
  61   33   57 1

#	End of record

