#	Name: ASD01916602
#	Creating user name:	WinNT
#	Creation time:	15. 06. 2019 20:07

#	Modifying user name:	WinNT
#	Modification time:	15. 06. 2019 20:07

#	Program:	/corina/corina34_cracker 3.40 0067  02.08.2006

@<TRIPOS>MOLECULE
ASD01916602
  47   50    0    0    0
SMALL
NO_CHARGES


@<TRIPOS>ATOM
   1 C1            -0.0175     1.4097     0.0416 C.ar    
   2 C2             0.0018    -0.0042     0.0336 C.ar    
   3 C3            -1.1918    -0.7257     0.0035 C.ar    
   4 C4            -2.3845    -0.0643    -0.0207 C.ar    
   5 C5            -2.4221     1.3384    -0.0132 C.ar    
   6 C6            -1.2412     2.0762     0.0192 C.ar    
   7 N7             1.1584     2.0861     0.0651 N.2     
   8 C8             2.3035     1.4742     0.0643 C.2     
   9 N9             2.4088     0.1105     0.0603 N.am    
  10 C10            1.3113    -0.6725     0.0530 C.2     
  11 C11           -3.6834     2.0159    -0.0395 C.1     
  12 O12            1.4011    -1.8866     0.0625 O.2     
  13 C13           -4.7174     2.5715    -0.0611 C.1     
  14 C14           -5.9787     3.2490    -0.0875 C.ar    
  15 N15           -6.0142     4.5781    -0.0803 N.ar    
  16 C16           -7.1538     5.2376    -0.1043 C.ar    
  17 C17           -8.3631     4.5668    -0.1380 C.ar    
  18 C18           -8.3732     3.1785    -0.1466 C.ar    
  19 C19           -7.1632     2.5087    -0.1263 C.ar    
  20 C20            3.5849     2.2786     0.0550 C.3     
  21 C21            4.2200     2.1878    -1.3304 C.3     
  22 C22            5.1335     0.9795    -1.4369 C.3     
  23 C23            4.3700    -0.3291    -1.3247 C.3     
  24 C24            3.7497    -0.4865     0.0623 C.3     
  25 C25            5.8545     1.0196    -2.7857 C.3     
  26 C26           -1.1635    -2.2325    -0.0026 C.3     
  27 H27           -3.3073    -0.6247    -0.0463 H       
  28 H28           -1.2736     3.1557     0.0274 H       
  29 H29           -7.1441     6.3176    -0.0972 H       
  30 H30           -9.2914     5.1183    -0.1570 H       
  31 H31           -9.3052     2.6336    -0.1727 H       
  32 H32           -7.1345     1.4291    -0.1323 H       
  33 H33            3.3632     3.3204     0.2868 H       
  34 H34            4.2731     1.8768     0.7986 H       
  35 H35            3.4326     2.1076    -2.0799 H       
  36 H36            4.7997     3.0916    -1.5178 H       
  37 H37            5.8754     1.0257    -0.6397 H       
  38 H38            3.5789    -0.3470    -2.0743 H       
  39 H39            5.0532    -1.1586    -1.5071 H       
  40 H40            4.3728     0.0198     0.7996 H       
  41 H41            3.6768    -1.5452     0.3108 H       
  42 H42            6.4438     1.9339    -2.8557 H       
  43 H43            6.5132     0.1553    -2.8714 H       
  44 H44            5.1203     0.9980    -3.5910 H       
  45 H45           -1.0634    -2.5981     1.0193 H       
  46 H46           -2.0895    -2.6115    -0.4350 H       
  47 H47           -0.3172    -2.5776    -0.5966 H       
@<TRIPOS>BOND
   1    1    2 ar
   2    1    7 1
   3    1    6 ar
   4    2    3 ar
   5    2   10 1
   6    3    4 ar
   7    3   26 1
   8    4    5 ar
   9    4   27 1
  10    5    6 ar
  11    5   11 1
  12    6   28 1
  13    7    8 2
  14    8    9 1
  15    8   20 1
  16    9   10 am
  17    9   24 1
  18   10   12 2
  19   11   13 3
  20   13   14 1
  21   14   15 ar
  22   14   19 ar
  23   15   16 ar
  24   16   17 ar
  25   16   29 1
  26   17   18 ar
  27   17   30 1
  28   18   19 ar
  29   18   31 1
  30   19   32 1
  31   20   21 1
  32   20   33 1
  33   20   34 1
  34   21   22 1
  35   21   35 1
  36   21   36 1
  37   22   23 1
  38   22   25 1
  39   22   37 1
  40   23   24 1
  41   23   38 1
  42   23   39 1
  43   24   40 1
  44   24   41 1
  45   25   42 1
  46   25   43 1
  47   25   44 1
  48   26   45 1
  49   26   46 1
  50   26   47 1

#	End of record

