#	Name: ASD03090795
#	Creating user name:	WinNT
#	Creation time:	15. 06. 2019 20:29

#	Modifying user name:	WinNT
#	Modification time:	15. 06. 2019 20:29

#	Program:	/corina/corina34_cracker 3.40 0067  02.08.2006

@<TRIPOS>MOLECULE
ASD03090795
  39   40    0    0    0
SMALL
NO_CHARGES


@<TRIPOS>ATOM
   1 C1            -0.1429     0.8317     1.3738 C.ar    
   2 N2            -0.1267    -0.4052     0.9183 N.ar    
   3 C3            -1.2164    -1.0020     0.4749 C.ar    
   4 C4            -2.4334    -0.3451     0.4705 C.ar    
   5 C5            -2.4959     0.9686     0.9450 C.ar    
   6 C6            -1.3166     1.5591     1.4106 C.ar    
   7 C7            -3.7764     1.7121     0.9599 C.2     
   8 N8            -4.9029     1.1232     0.5119 N.am    
   9 C9            -6.0683     1.7999     0.5254 C.2     
  10 N10           -7.1948     1.2109     0.0774 N.am    
  11 C11           -8.4234     1.8684     0.1983 C.ar    
  12 C12           -9.3350     1.8353    -0.8475 C.ar    
  13 C13          -10.8551     3.1730     0.4442 C.ar    
  14 C14           -9.9483     3.2001     1.4870 C.ar    
  15 C15           -8.7351     2.5509     1.3677 C.ar    
  16 C16          -10.5516     2.4882    -0.7239 C.ar    
  17 O17          -11.4463     2.4580    -1.7464 O.3     
  18 S18           -6.1179     3.4076     1.1116 S.2     
  19 O19           -3.8116     2.8530     1.3759 O.2     
  20 Cl20          -1.1214    -2.6333    -0.1114 Cl      
  21 C21            1.1356     1.4587     1.8669 C.3     
  22 C22          -11.0672     1.7346    -2.9190 C.3     
  23 C23          -10.2814     3.9449     2.7540 C.3     
  24 F24          -11.5509     4.5208     2.6364 F       
  25 F25          -10.2709     3.0557     3.8341 F       
  26 F26           -9.3315     4.9495     2.9679 F       
  27 H27           -3.3218    -0.8391     0.1058 H       
  28 H28           -1.3219     2.5719     1.7854 H       
  29 H29           -4.8748     0.2122     0.1797 H       
  30 H30           -7.1535     0.3311    -0.3289 H       
  31 H31           -9.0969     1.3021    -1.7560 H       
  32 H32          -11.8031     3.6813     0.5405 H       
  33 H33           -8.0284     2.5734     2.1842 H       
  34 H34            1.6368     1.9609     1.0394 H       
  35 H35            0.9069     2.1844     2.6474 H       
  36 H36            1.7879     0.6843     2.2706 H       
  37 H37          -10.1595     2.1700    -3.3369 H       
  38 H38          -10.8839     0.6920    -2.6594 H       
  39 H39          -11.8691     1.7901    -3.6553 H       
@<TRIPOS>BOND
   1    1    2 ar
   2    1   21 1
   3    1    6 ar
   4    2    3 ar
   5    3    4 ar
   6    3   20 1
   7    4    5 ar
   8    4   27 1
   9    5    6 ar
  10    5    7 1
  11    6   28 1
  12    7    8 am
  13    7   19 2
  14    8    9 am
  15    8   29 1
  16    9   10 am
  17    9   18 2
  18   10   11 1
  19   10   30 1
  20   11   12 ar
  21   11   15 ar
  22   12   16 ar
  23   12   31 1
  24   13   14 ar
  25   13   16 ar
  26   13   32 1
  27   14   15 ar
  28   14   23 1
  29   15   33 1
  30   16   17 1
  31   17   22 1
  32   21   34 1
  33   21   35 1
  34   21   36 1
  35   22   37 1
  36   22   38 1
  37   22   39 1
  38   23   24 1
  39   23   25 1
  40   23   26 1

#	End of record

