#	Name: ASD01883888
#	Creating user name:	WinNT
#	Creation time:	15. 06. 2019 19:47

#	Modifying user name:	WinNT
#	Modification time:	15. 06. 2019 19:47

#	Program:	/corina/corina34_cracker 3.40 0067  02.08.2006

@<TRIPOS>MOLECULE
ASD01883888
  50   53    0    0    0
SMALL
NO_CHARGES


@<TRIPOS>ATOM
   1 C1             1.6518     1.2372    -0.9182 C.ar    
   2 C2             2.0372    -0.0605    -1.0903 C.ar    
   3 C3             3.3949    -0.4030    -1.0329 C.ar    
   4 C4             4.3560     0.5970    -0.7973 C.ar    
   5 C5             3.9496     1.9085    -0.6247 C.ar    
   6 C6             2.6007     2.2291    -0.6848 C.ar    
   7 C7             3.8112    -1.7954    -1.2170 C.2     
   8 O8             4.9876    -2.0886    -1.1667 O.2     
   9 C9             2.7785    -2.8637    -1.4687 C.3     
  10 O10            5.6726     0.2775    -0.7392 O.3     
  11 O11            2.2046     3.5156    -0.5157 O.3     
  12 C12            0.8017     3.7776    -0.5899 C.3     
  13 C13            0.5537     5.2491    -0.3797 C.ar    
  14 C14            0.1204     7.0893     1.0928 C.ar    
  15 C15            0.3488     5.7396     0.8965 C.ar    
  16 C16            0.5369     6.1077    -1.4620 C.ar    
  17 C17            0.3085     7.4623    -1.2678 C.ar    
  18 C18            0.0975     7.9511     0.0138 C.ar    
  19 O19            0.2920     8.3090    -2.3305 O.3     
  20 C20           -0.8071     8.3117    -3.1255 C.ar    
  21 C21           -2.9491     7.5540    -3.5276 C.ar    
  22 N22           -1.8587     7.5832    -2.7878 N.ar    
  23 C23           -0.8158     9.0844    -4.2812 C.ar    
  24 C24           -1.9389     9.0826    -5.0856 C.ar    
  25 C25           -3.0307     8.2968    -4.7015 C.ar    
  26 C26            4.9708     2.9874    -0.3712 C.3     
  27 C27           -4.2608     8.2604    -5.5314 C.2     
  28 N28           -5.3570     7.5709    -5.2846 N.2     
  29 N29           -6.1928     7.8049    -6.2372 N.pl3   
  30 N30           -5.6613     8.6206    -7.0794 N.2     
  31 N31           -4.4754     8.9267    -6.6747 N.2     
  32 F32            6.1751     2.6456    -0.9956 F       
  33 F33            4.5052     4.2010    -0.8886 F       
  34 F34            5.1799     3.1172     1.0060 F       
  35 H35            0.6047     1.4971    -0.9677 H       
  36 H36            1.2953    -0.8243    -1.2706 H       
  37 H37            2.6123    -2.9627    -2.5414 H       
  38 H38            3.1323    -3.8130    -1.0666 H       
  39 H39            1.8440    -2.5879    -0.9801 H       
  40 H40            6.1259     0.3212    -1.5922 H       
  41 H41            0.4284     3.4827    -1.5706 H       
  42 H42            0.2844     3.2080     0.1821 H       
  43 H43           -0.0401     7.4698     2.0907 H       
  44 H44            0.3667     5.0674     1.7416 H       
  45 H45            0.7018     5.7248    -2.4583 H       
  46 H46           -0.0812     9.0051     0.1675 H       
  47 H47           -3.7879     6.9473    -3.2197 H       
  48 H48            0.0454     9.6796    -4.5468 H       
  49 H49           -1.9733     9.6736    -5.9889 H       
  50 H50           -7.0827     7.4256    -6.3086 H       
@<TRIPOS>BOND
   1    1    2 ar
   2    1    6 ar
   3    1   35 1
   4    2    3 ar
   5    2   36 1
   6    3    4 ar
   7    3    7 1
   8    4    5 ar
   9    4   10 1
  10    5    6 ar
  11    5   26 1
  12    6   11 1
  13    7    8 2
  14    7    9 1
  15    9   37 1
  16    9   38 1
  17    9   39 1
  18   10   40 1
  19   11   12 1
  20   12   13 1
  21   12   41 1
  22   12   42 1
  23   13   16 ar
  24   13   15 ar
  25   14   15 ar
  26   14   18 ar
  27   14   43 1
  28   15   44 1
  29   16   17 ar
  30   16   45 1
  31   17   18 ar
  32   17   19 1
  33   18   46 1
  34   19   20 1
  35   20   23 ar
  36   20   22 ar
  37   21   22 ar
  38   21   25 ar
  39   21   47 1
  40   23   24 ar
  41   23   48 1
  42   24   25 ar
  43   24   49 1
  44   25   27 1
  45   26   32 1
  46   26   33 1
  47   26   34 1
  48   27   28 2
  49   27   31 1
  50   28   29 1
  51   29   30 1
  52   29   50 1
  53   30   31 2

#	End of record

