#	Name: ASD03331639
#	Creating user name:	WinNT
#	Creation time:	15. 06. 2019 20:39

#	Modifying user name:	WinNT
#	Modification time:	15. 06. 2019 20:39

#	Program:	/corina/corina34_cracker 3.40 0067  02.08.2006

@<TRIPOS>MOLECULE
ASD03331639
  51   53    0    0    0
SMALL
NO_CHARGES


@<TRIPOS>ATOM
   1 C1             0.2791     1.4938     0.1341 C.3     
   2 N2             0.2010     0.0273     0.0801 N.3     
   3 C3             0.5969    -0.4794    -1.2464 C.3     
   4 C4             1.9125     0.1573    -1.6134 C.2     
   5 N5             2.4250     1.2536    -0.9799 N.pl3   
   6 C6             1.7477     1.9376     0.1252 C.3     
   7 C7             2.7967    -0.1983    -2.5766 C.2     
   8 N8             3.8339     0.6710    -2.5243 N.2     
   9 C9             3.6156     1.5445    -1.5662 C.2     
  10 C10            4.5147     2.6568    -1.1902 C.2     
  11 C11            4.2105     3.7330    -0.4153 C.2     
  12 C12            2.6556    -1.3279    -3.5118 C.2     
  13 O13            1.6724    -2.0419    -3.4591 O.2     
  14 N14            3.6161    -1.5701    -4.4257 N.am    
  15 C15            3.4758    -2.6933    -5.3557 C.3     
  16 C16            2.6431    -2.2556    -6.5623 C.3     
  17 C17            4.8400    -3.1343    -5.8202 C.2     
  18 N18            5.0417    -4.4110    -6.2021 N.am    
  19 O19            5.7563    -2.3404    -5.8503 O.2     
  20 C20            6.3893    -4.8666    -6.5522 C.3     
  21 C21            3.2761    -1.0151    -7.1958 C.3     
  22 C22            2.6005    -3.3879    -7.5904 C.3     
  23 C23            1.2200    -1.9260    -6.1072 C.3     
  24 O24            5.3009     4.5055    -0.3164 O.3     
  25 C25            6.3243     3.9754    -1.0034 C.2     
  26 C26            5.9231     2.8260    -1.5704 C.2     
  27 H27           -0.2321     1.9159    -0.7311 H       
  28 H28           -0.2011     1.8488     1.0460 H       
  29 H29            0.7594    -0.3916     0.8087 H       
  30 H30            0.7097    -1.5628    -1.2084 H       
  31 H31           -0.1601    -0.2125    -1.9838 H       
  32 H32            1.8051     3.0164    -0.0194 H       
  33 H33            2.2195     1.6668     1.0698 H       
  34 H34            3.2525     3.9313     0.0423 H       
  35 H35            4.4002    -1.0007    -4.4678 H       
  36 H36            2.9780    -3.5220    -4.8521 H       
  37 H37            4.2946    -5.0282    -6.2451 H       
  38 H38            7.0497    -4.7410    -5.6942 H       
  39 H39            6.3553    -5.9192    -6.8335 H       
  40 H40            6.7655    -4.2788    -7.3894 H       
  41 H41            4.2900    -1.2498    -7.5199 H       
  42 H42            2.6829    -0.7032    -8.0553 H       
  43 H43            3.3065    -0.2084    -6.4633 H       
  44 H44            2.2456    -4.3004    -7.1114 H       
  45 H45            1.9247    -3.1168    -8.4015 H       
  46 H46            3.6008    -3.5530    -7.9906 H       
  47 H47            1.2504    -1.1193    -5.3748 H       
  48 H48            0.6268    -1.6141    -6.9668 H       
  49 H49            0.7690    -2.8098    -5.6559 H       
  50 H50            7.3131     4.4022    -1.0837 H       
  51 H51            6.5141     2.1639    -2.1858 H       
@<TRIPOS>BOND
   1    1    2 1
   2    1    6 1
   3    1   27 1
   4    1   28 1
   5    2    3 1
   6    2   29 1
   7    3    4 1
   8    3   30 1
   9    3   31 1
  10    4    5 1
  11    4    7 2
  12    5    6 1
  13    5    9 1
  14    6   32 1
  15    6   33 1
  16    7    8 1
  17    7   12 1
  18    8    9 2
  19    9   10 1
  20   10   11 2
  21   10   26 1
  22   11   24 1
  23   11   34 1
  24   12   13 2
  25   12   14 am
  26   14   15 1
  27   14   35 1
  28   15   16 1
  29   15   17 1
  30   15   36 1
  31   16   21 1
  32   16   22 1
  33   16   23 1
  34   17   18 am
  35   17   19 2
  36   18   20 1
  37   18   37 1
  38   20   38 1
  39   20   39 1
  40   20   40 1
  41   21   41 1
  42   21   42 1
  43   21   43 1
  44   22   44 1
  45   22   45 1
  46   22   46 1
  47   23   47 1
  48   23   48 1
  49   23   49 1
  50   24   25 1
  51   25   26 2
  52   25   50 1
  53   26   51 1

#	End of record

