#	Name: ASD01510112
#	Creating user name:	WinNT
#	Creation time:	15. 06. 2019 19:21

#	Modifying user name:	WinNT
#	Modification time:	15. 06. 2019 19:21

#	Program:	/corina/corina34_cracker 3.40 0067  02.08.2006

@<TRIPOS>MOLECULE
ASD01510112
  59   62    0    0    0
SMALL
NO_CHARGES


@<TRIPOS>ATOM
   1 C1            -0.3639     1.1197     0.2058 C.3     
   2 O2            -0.1555    -0.2918     0.1266 O.3     
   3 C3             0.4854    -0.7600    -0.9765 C.ar    
   4 C4             0.7211    -2.1197    -1.1185 C.ar    
   5 C5             1.3729    -2.5931    -2.2408 C.ar    
   6 C6             1.7903    -1.7129    -3.2220 C.ar    
   7 C7             1.5571    -0.3572    -3.0826 C.ar    
   8 C8             0.9002     0.1205    -1.9651 C.ar    
   9 C9             2.5012    -2.2320    -4.4452 C.3     
  10 O10            1.5424    -2.5355    -5.4604 O.3     
  11 C11            2.0210    -3.0175    -6.6359 C.ar    
  12 N12            3.3233    -3.1840    -6.7936 N.ar    
  13 C13            3.8322    -3.6516    -7.9241 C.ar    
  14 C14            3.0080    -3.9855    -8.9908 C.ar    
  15 C15            1.6375    -3.8252    -8.8643 C.ar    
  16 C16            1.1345    -3.3375    -7.6627 C.ar    
  17 S17           -0.5998    -3.1139    -7.4464 S.3     
  18 C18           -1.2489    -3.4806    -9.0429 C.ar    
  19 C19           -1.6820    -4.7680    -9.3393 C.ar    
  20 C20           -2.1914    -5.0560   -10.5907 C.ar    
  21 C21           -2.2719    -4.0667   -11.5517 C.ar    
  22 C22           -1.8403    -2.7773   -11.2625 C.ar    
  23 C23           -1.3339    -2.4827   -10.0050 C.ar    
  24 N24           -1.9218    -1.7781   -12.2350 N.pl3   
  25 N25            5.2109    -3.8097    -8.0444 N.3     
  26 C26            5.8974    -3.4011    -6.8109 C.3     
  27 C27            7.3983    -3.6641    -6.9545 C.3     
  28 N28            7.9147    -2.9206    -8.1122 N.3     
  29 C29            7.2282    -3.3292    -9.3457 C.3     
  30 C30            5.7273    -3.0662    -9.2021 C.3     
  31 C31            9.3687    -3.0874    -8.2390 C.3     
  32 H32            0.5987     1.6307     0.1875 H       
  33 H33           -0.9649     1.4464    -0.6429 H       
  34 H34           -0.8845     1.3587     1.1331 H       
  35 H35            0.3956    -2.8076    -0.3522 H       
  36 H36            1.5569    -3.6515    -2.3517 H       
  37 H37            1.8847     0.3284    -3.8501 H       
  38 H38            0.7182     1.1795    -1.8567 H       
  39 H39            3.1922    -1.4735    -4.8132 H       
  40 H40            3.0557    -3.1344    -4.1877 H       
  41 H41            3.4306    -4.3657    -9.9090 H       
  42 H42            0.9745    -4.0775    -9.6787 H       
  43 H43           -1.6198    -5.5439    -8.5906 H       
  44 H44           -2.5271    -6.0569   -10.8184 H       
  45 H45           -2.6704    -4.2955   -12.5291 H       
  46 H46           -0.9979    -1.4817    -9.7777 H       
  47 H47           -2.2798    -1.9838   -13.1128 H       
  48 H48           -1.6205    -0.8786   -12.0326 H       
  49 H49            5.7295    -2.3384    -6.6362 H       
  50 H50            5.5066    -3.9743    -5.9703 H       
  51 H51            7.9132    -3.3350    -6.0519 H       
  52 H52            7.5682    -4.7306    -7.1021 H       
  53 H53            7.6190    -2.7559   -10.1864 H       
  54 H54            7.3961    -4.3919    -9.5204 H       
  55 H55            5.2124    -3.3953   -10.1047 H       
  56 H56            5.5575    -1.9997    -9.0545 H       
  57 H57            9.6033    -4.1438    -8.3692 H       
  58 H58            9.7246    -2.5269    -9.1035 H       
  59 H59            9.8570    -2.7150    -7.3385 H       
@<TRIPOS>BOND
   1    1    2 1
   2    1   32 1
   3    1   33 1
   4    1   34 1
   5    2    3 1
   6    3    4 ar
   7    3    8 ar
   8    4    5 ar
   9    4   35 1
  10    5    6 ar
  11    5   36 1
  12    6    7 ar
  13    6    9 1
  14    7    8 ar
  15    7   37 1
  16    8   38 1
  17    9   10 1
  18    9   39 1
  19    9   40 1
  20   10   11 1
  21   11   12 ar
  22   11   16 ar
  23   12   13 ar
  24   13   14 ar
  25   13   25 1
  26   14   15 ar
  27   14   41 1
  28   15   16 ar
  29   15   42 1
  30   16   17 1
  31   17   18 1
  32   18   19 ar
  33   18   23 ar
  34   19   20 ar
  35   19   43 1
  36   20   21 ar
  37   20   44 1
  38   21   22 ar
  39   21   45 1
  40   22   23 ar
  41   22   24 1
  42   23   46 1
  43   24   47 1
  44   24   48 1
  45   25   26 1
  46   25   30 1
  47   26   27 1
  48   26   49 1
  49   26   50 1
  50   27   28 1
  51   27   51 1
  52   27   52 1
  53   28   29 1
  54   28   31 1
  55   29   30 1
  56   29   53 1
  57   29   54 1
  58   30   55 1
  59   30   56 1
  60   31   57 1
  61   31   58 1
  62   31   59 1

#	End of record

