#	Name: ASD08150028
#	Creating user name:	WinNT
#	Creation time:	15. 06. 2019 21:15

#	Modifying user name:	WinNT
#	Modification time:	15. 06. 2019 21:15

#	Program:	/corina/corina34_cracker 3.40 0067  02.08.2006

@<TRIPOS>MOLECULE
ASD08150028
  43   47    0    0    0
SMALL
NO_CHARGES


@<TRIPOS>ATOM
   1 N1            -0.0155     1.2939     0.0092 N.2     
   2 C2             0.0021    -0.0041     0.0020 C.2     
   3 N3             1.1492    -0.7366    -0.0129 N.am    
   4 C4             2.3564    -0.1248    -0.0211 C.2     
   5 C5             2.3704     1.3451    -0.0133 C.ar    
   6 C6             3.5599     2.0708    -0.0203 C.ar    
   7 C7             3.5105     3.4526    -0.0120 C.ar    
   8 C8             2.2849     4.1149     0.0037 C.ar    
   9 C9             1.1103     3.4176     0.0112 C.ar    
  10 C10            1.1301     2.0212     0.0021 C.ar    
  11 O11            3.3906    -0.7669    -0.0340 O.2     
  12 C12           -1.3146    -0.7372     0.0112 C.3     
  13 S13           -2.6717     0.4602     0.0311 S.3     
  14 N14           -5.9164     1.0939     0.0666 N.2     
  15 C15           -7.2136     0.9895     0.0790 C.2     
  16 N16           -7.5749    -0.3250     0.0761 N.pl3   
  17 C17           -6.4218    -1.0683     0.0610 C.ar    
  18 N18           -6.1430    -2.3679     0.0515 N.ar    
  19 C19           -4.8949    -2.7867     0.0367 C.ar    
  20 N20           -3.8687    -1.9562     0.0300 N.ar    
  21 C21           -4.0491    -0.6386     0.0389 C.ar    
  22 C22           -5.3646    -0.1430     0.0550 C.ar    
  23 O23            4.6654     4.1695    -0.0187 O.3     
  24 C24            1.0796    -2.1358    -0.0193 C.ar    
  25 C25            1.0568    -2.8375     1.1803 C.ar    
  26 C26            0.9882    -4.2177     1.1699 C.ar    
  27 C27            0.9423    -4.9000    -0.0322 C.ar    
  28 C28            0.9649    -4.2043    -1.2267 C.ar    
  29 C29            1.0277    -2.8242    -1.2235 C.ar    
  30 Cl30           1.1149    -1.9814     2.6894 Cl      
  31 H31            4.5109     1.5591    -0.0317 H       
  32 H32            2.2632     5.1947     0.0103 H       
  33 H33            0.1681     3.9452     0.0240 H       
  34 H34           -1.3909    -1.3581    -0.8815 H       
  35 H35           -1.3732    -1.3676     0.8984 H       
  36 H36           -7.9022     1.8214     0.0899 H       
  37 H37           -8.4810    -0.6713     0.0834 H       
  38 H38           -4.7033    -3.8495     0.0297 H       
  39 H39            4.9913     4.3820    -0.9040 H       
  40 H40            0.9707    -4.7641     2.1014 H       
  41 H41            0.8891    -5.9787    -0.0378 H       
  42 H42            0.9294    -4.7403    -2.1637 H       
  43 H43            1.0407    -2.2815    -2.1572 H       
@<TRIPOS>BOND
   1    1    2 2
   2    1   10 1
   3    2    3 1
   4    2   12 1
   5    3    4 am
   6    3   24 1
   7    4    5 1
   8    4   11 2
   9    5    6 ar
  10    5   10 ar
  11    6    7 ar
  12    6   31 1
  13    7    8 ar
  14    7   23 1
  15    8    9 ar
  16    8   32 1
  17    9   10 ar
  18    9   33 1
  19   12   13 1
  20   12   34 1
  21   12   35 1
  22   13   21 1
  23   14   15 2
  24   14   22 1
  25   15   16 1
  26   15   36 1
  27   16   17 1
  28   16   37 1
  29   17   18 ar
  30   17   22 ar
  31   18   19 ar
  32   19   20 ar
  33   19   38 1
  34   20   21 ar
  35   21   22 ar
  36   23   39 1
  37   24   25 ar
  38   24   29 ar
  39   25   26 ar
  40   25   30 1
  41   26   27 ar
  42   26   40 1
  43   27   28 ar
  44   27   41 1
  45   28   29 ar
  46   28   42 1
  47   29   43 1

#	End of record

