#	Name: ASD01914305
#	Creating user name:	WinNT
#	Creation time:	15. 06. 2019 20:03

#	Modifying user name:	WinNT
#	Modification time:	15. 06. 2019 20:03

#	Program:	/corina/corina34_cracker 3.40 0067  02.08.2006

@<TRIPOS>MOLECULE
ASD01914305
  15   15    0    0    0
SMALL
NO_CHARGES


@<TRIPOS>ATOM
   1 C1            -0.0184     1.5028     0.0103 C.2     
   2 C2             0.0021    -0.0041     0.0020 C.3     
   3 O3             1.0197     2.1211     0.0037 O.2     
   4 O4            -1.1898     2.1580     0.0194 O.3     
   5 C5             2.1598    -0.7369     1.0654 C.2     
   6 N6             3.3344    -1.1333     0.6550 N.2     
   7 C7             3.3569    -1.1374    -0.6871 C.2     
   8 C8             2.1500    -0.7279    -1.1257 C.2     
   9 N9             1.3897    -0.4735    -0.0138 N.pl3   
  10 Br10           1.6098    -0.5395    -2.9281 Br      
  11 Br11           4.8248    -1.6307    -1.7724 Br      
  12 Br12           1.6226    -0.5673     2.8705 Br      
  13 H13           -0.4983    -0.3791     0.8948 H       
  14 H14           -0.5153    -0.3696    -0.8850 H       
  15 H15           -1.1523     3.1243     0.0245 H       
@<TRIPOS>BOND
   1    1    2 1
   2    1    3 2
   3    1    4 1
   4    2    9 1
   5    2   13 1
   6    2   14 1
   7    4   15 1
   8    5    6 2
   9    5    9 1
  10    5   12 1
  11    6    7 1
  12    7    8 2
  13    7   11 1
  14    8    9 1
  15    8   10 1

#	End of record

