#	Name: ASD01910884
#	Creating user name:	WinNT
#	Creation time:	15. 06. 2019 19:56

#	Modifying user name:	WinNT
#	Modification time:	15. 06. 2019 19:56

#	Program:	/corina/corina34_cracker 3.40 0067  02.08.2006

@<TRIPOS>MOLECULE
ASD01910884
  47   50    0    0    0
SMALL
NO_CHARGES


@<TRIPOS>ATOM
   1 C1             0.1979     1.4962    -0.2528 C.2     
   2 N2             0.1396     0.1115    -0.1985 N.3     
   3 C3             1.4869    -0.4700    -0.1326 C.3     
   4 C4             1.3771    -1.9794     0.1080 C.3     
   5 N5             0.5014    -2.5545    -0.9244 N.am    
   6 C6            -0.8150    -1.9361    -1.1436 C.3     
   7 C7            -0.6188    -0.4284    -1.3349 C.3     
   8 C8             0.8949    -3.6195    -1.6505 C.2     
   9 C9            -0.0462    -4.2591    -2.5948 C.ar    
  10 C10            0.4073    -4.7123    -3.8356 C.ar    
  11 C11           -0.4697    -5.3100    -4.7194 C.ar    
  12 C12           -1.7997    -5.4640    -4.3843 C.ar    
  13 C13           -2.2681    -5.0146    -3.1457 C.ar    
  14 C14           -1.3859    -4.4159    -2.2464 C.ar    
  15 C15           -3.6482    -5.1744    -2.7990 C.1     
  16 O16            2.0234    -4.0544    -1.5290 O.2     
  17 C17           -4.7798    -5.3054    -2.5148 C.1     
  18 C18           -6.1600    -5.4652    -2.1681 C.ar    
  19 C19           -6.6387    -5.0199    -0.9335 C.ar    
  20 N20           -7.9080    -5.1673    -0.6155 N.ar    
  21 C21           -8.7711    -5.7337    -1.4367 C.ar    
  22 C22           -8.3764    -6.2014    -2.6777 C.ar    
  23 C23           -7.0551    -6.0657    -3.0639 C.ar    
  24 N24            1.2802     2.2207    -0.2486 N.2     
  25 N25            1.1455     3.4733    -0.3035 N.2     
  26 C26           -0.0543     3.9523    -0.3601 C.2     
  27 S27           -1.1810     2.5939    -0.3477 S.3     
  28 C28           -0.4246     5.4115    -0.4300 C.3     
  29 F29            0.7373     6.1827    -0.5402 F       
  30 F30           -1.2390     5.6330    -1.5458 F       
  31 F31           -1.1161     5.7732     0.7312 F       
  32 H32            2.0078    -0.2884    -1.0727 H       
  33 H33            2.0417    -0.0107     0.6856 H       
  34 H34            2.3659    -2.4334     0.0437 H       
  35 H35            0.9502    -2.1629     1.0940 H       
  36 H36           -1.2754    -2.3615    -2.0353 H       
  37 H37           -1.4526    -2.1155    -0.2779 H       
  38 H38           -1.5913     0.0610    -1.3886 H       
  39 H39           -0.0686    -0.2475    -2.2582 H       
  40 H40            1.4466    -4.5948    -4.1047 H       
  41 H41           -0.1132    -5.6581    -5.6776 H       
  42 H42           -2.4801    -5.9322    -5.0802 H       
  43 H43           -1.7418    -4.0668    -1.2883 H       
  44 H44           -5.9622    -4.5514    -0.2341 H       
  45 H45           -9.8033    -5.8342    -1.1353 H       
  46 H46           -9.0935    -6.6637    -3.3399 H       
  47 H47           -6.7200    -6.4219    -4.0268 H       
@<TRIPOS>BOND
   1    1    2 1
   2    1   24 2
   3    1   27 1
   4    2    3 1
   5    2    7 1
   6    3    4 1
   7    3   32 1
   8    3   33 1
   9    4    5 1
  10    4   34 1
  11    4   35 1
  12    5    6 1
  13    5    8 am
  14    6    7 1
  15    6   36 1
  16    6   37 1
  17    7   38 1
  18    7   39 1
  19    8    9 1
  20    8   16 2
  21    9   10 ar
  22    9   14 ar
  23   10   11 ar
  24   10   40 1
  25   11   12 ar
  26   11   41 1
  27   12   13 ar
  28   12   42 1
  29   13   14 ar
  30   13   15 1
  31   14   43 1
  32   15   17 3
  33   17   18 1
  34   18   19 ar
  35   18   23 ar
  36   19   20 ar
  37   19   44 1
  38   20   21 ar
  39   21   22 ar
  40   21   45 1
  41   22   23 ar
  42   22   46 1
  43   23   47 1
  44   24   25 1
  45   25   26 2
  46   26   27 1
  47   26   28 1
  48   28   29 1
  49   28   30 1
  50   28   31 1

#	End of record

