#	Name: ASD01201029
#	Creating user name:	WinNT
#	Creation time:	15. 06. 2019 19:09

#	Modifying user name:	WinNT
#	Modification time:	15. 06. 2019 19:09

#	Program:	/corina/corina34_cracker 3.40 0067  02.08.2006

@<TRIPOS>MOLECULE
ASD01201029
  53   57    0    0    0
SMALL
NO_CHARGES


@<TRIPOS>ATOM
   1 C1            -0.0194     1.3725    -0.0075 C.ar    
   2 C2             0.0019    -0.0107    -0.0149 C.ar    
   3 C3             1.2098    -0.6887    -0.0244 C.ar    
   4 C4             2.3919     0.0143    -0.0267 C.ar    
   5 C5             2.3820     1.4114    -0.0193 C.ar    
   6 C6             1.1608     2.0874    -0.0096 C.ar    
   7 C7             3.8416    -0.4018    -0.0361 C.3     
   8 N8             4.6250     0.8389    -0.0335 N.am    
   9 C9             3.7797     1.8839    -0.0238 C.2     
  10 O10            4.1183     3.0513    -0.0190 O.2     
  11 C11            6.0875     0.9245    -0.0403 C.3     
  12 S12            4.2188    -1.3803     1.4441 S.3     
  13 C13            3.6296    -3.0372     0.9990 C.3     
  14 C14            6.5819     0.9613    -1.4634 C.ar    
  15 C15            3.8762    -3.9830     2.1460 C.2     
  16 O16            4.3981    -3.5791     3.1635 O.2     
  17 N17            3.5169    -5.2777     2.0411 N.am    
  18 C18            3.8413    -6.1757     3.0569 C.ar    
  19 C19            6.7382     2.1735    -2.1082 C.ar    
  20 C20            7.1925     2.2103    -3.4183 C.ar    
  21 C21            7.4931     1.0252    -4.0790 C.ar    
  22 C22            7.3332    -0.1881    -3.4263 C.ar    
  23 C23            6.8836    -0.2175    -2.1198 C.ar    
  24 N24            4.5853    -5.7733     4.0748 N.ar    
  25 C25            4.9147    -6.5905     5.0568 C.ar    
  26 C26            4.4912    -7.9047     5.0565 C.ar    
  27 C27            3.7088    -8.3664     4.0066 C.ar    
  28 C28            3.3755    -7.4842     2.9942 C.ar    
  29 O29            7.3339     3.4112    -4.0430 O.3     
  30 C30            8.1441     3.4313    -5.2232 C.3     
  31 C31            7.7371     2.2438    -6.1061 C.3     
  32 O32            7.9477     1.0389    -5.3618 O.3     
  33 H33           -0.9644     1.8954    -0.0046 H       
  34 H34           -0.9258    -0.5636    -0.0128 H       
  35 H35            1.2233    -1.7686    -0.0298 H       
  36 H36            1.1398     3.1672    -0.0042 H       
  37 H37            4.0594    -0.9804    -0.9338 H       
  38 H38            6.4008     1.8315     0.4767 H       
  39 H39            6.5048     0.0546     0.4669 H       
  40 H40            2.5618    -2.9975     0.7840 H       
  41 H41            4.1650    -3.3885     0.1169 H       
  42 H42            3.0325    -5.5847     1.2588 H       
  43 H43            6.5062     3.0932    -1.5917 H       
  44 H44            7.5638    -1.1106    -3.9383 H       
  45 H45            6.7598    -1.1634    -1.6135 H       
  46 H46            5.5238    -6.2269     5.8712 H       
  47 H47            4.7660    -8.5666     5.8644 H       
  48 H48            3.3648    -9.3898     3.9828 H       
  49 H49            2.7681    -7.8097     2.1626 H       
  50 H50            7.9826     4.3637    -5.7641 H       
  51 H51            9.1953     3.3421    -4.9490 H       
  52 H52            6.6845     2.3301    -6.3758 H       
  53 H53            8.3484     2.2301    -7.0084 H       
@<TRIPOS>BOND
   1    1    2 ar
   2    1    6 ar
   3    1   33 1
   4    2    3 ar
   5    2   34 1
   6    3    4 ar
   7    3   35 1
   8    4    5 ar
   9    4    7 1
  10    5    6 ar
  11    5    9 1
  12    6   36 1
  13    7    8 1
  14    7   12 1
  15    7   37 1
  16    8    9 am
  17    8   11 1
  18    9   10 2
  19   11   14 1
  20   11   38 1
  21   11   39 1
  22   12   13 1
  23   13   15 1
  24   13   40 1
  25   13   41 1
  26   14   19 ar
  27   14   23 ar
  28   15   16 2
  29   15   17 am
  30   17   18 1
  31   17   42 1
  32   18   24 ar
  33   18   28 ar
  34   19   20 ar
  35   19   43 1
  36   20   21 ar
  37   20   29 1
  38   21   22 ar
  39   21   32 1
  40   22   23 ar
  41   22   44 1
  42   23   45 1
  43   24   25 ar
  44   25   26 ar
  45   25   46 1
  46   26   27 ar
  47   26   47 1
  48   27   28 ar
  49   27   48 1
  50   28   49 1
  51   29   30 1
  52   30   31 1
  53   30   50 1
  54   30   51 1
  55   31   32 1
  56   31   52 1
  57   31   53 1

#	End of record

