#	Name: ASD00170495
#	Creating user name:	WinNT
#	Creation time:	15. 06. 2019 18:32

#	Modifying user name:	WinNT
#	Modification time:	15. 06. 2019 18:32

#	Program:	/corina/corina34_cracker 3.40 0067  02.08.2006

@<TRIPOS>MOLECULE
ASD00170495
  46   49    0    0    0
SMALL
NO_CHARGES


@<TRIPOS>ATOM
   1 C1             0.0908     1.4759     0.1205 C.ar    
   2 C2             0.0068     0.0846     0.1330 C.ar    
   3 C3             1.1636    -0.6943     0.0200 C.ar    
   4 C4             2.3987    -0.0811    -0.1057 C.ar    
   5 C5             2.4643     1.3116    -0.1468 C.ar    
   6 C6             1.3199     2.0880    -0.0194 C.ar    
   7 C7             3.6491    -0.9162    -0.1545 C.3     
   8 C8             4.7008    -0.3084    -1.0811 C.3     
   9 C9             4.8343     1.1662    -0.7985 C.2     
  10 C10            3.7992     1.9426    -0.3751 C.2     
  11 S11            6.2690     2.1653    -0.9420 S.3     
  12 C12            5.3429     3.5744    -0.4334 C.2     
  13 N13            4.1164     3.2257    -0.2022 N.2     
  14 C14           -1.3149    -0.5731     0.2672 C.ar    
  15 O15            1.0752    -2.0500     0.0340 O.3     
  16 C16            1.1479    -2.6917     1.3088 C.3     
  17 N17            5.8479     4.8576    -0.3005 N.pl3   
  18 C18           -2.1377    -0.2722     1.3518 C.ar    
  19 C19           -3.3705    -0.8879     1.4729 C.ar    
  20 C20           -3.7872    -1.8061     0.5125 C.ar    
  21 C21           -2.9681    -2.1051    -0.5656 C.ar    
  22 C22           -1.7398    -1.4893    -0.6941 C.ar    
  23 O23           -4.9992    -2.4108     0.6324 O.3     
  24 C24           -5.3634    -3.3420    -0.3885 C.3     
  25 O25           -4.1751    -0.5969     2.5300 O.3     
  26 C26           -3.6837     0.3537     3.4770 C.3     
  27 H27           -0.8039     2.0733     0.2156 H       
  28 H28            1.3912     3.1656    -0.0305 H       
  29 H29            4.0636    -0.9942     0.8505 H       
  30 H30            3.3958    -1.9145    -0.5113 H       
  31 H31            5.6597    -0.7984    -0.9122 H       
  32 H32            4.3978    -0.4531    -2.1180 H       
  33 H33            0.9958    -3.7639     1.1850 H       
  34 H34            2.1281    -2.5124     1.7504 H       
  35 H35            0.3752    -2.2883     1.9632 H       
  36 H36            6.7819     5.0337    -0.4941 H       
  37 H37            5.2674     5.5800    -0.0139 H       
  38 H38           -1.8130     0.4398     2.0960 H       
  39 H39           -3.2938    -2.8181    -1.3085 H       
  40 H40           -1.1037    -1.7236    -1.5349 H       
  41 H41           -5.3835    -2.8344    -1.3529 H       
  42 H42           -4.6340    -4.1514    -0.4190 H       
  43 H43           -6.3506    -3.7505    -0.1723 H       
  44 H44           -2.7527    -0.0125     3.9097 H       
  45 H45           -3.5023     1.3048     2.9764 H       
  46 H46           -4.4212     0.4939     4.2673 H       
@<TRIPOS>BOND
   1    1    2 ar
   2    1    6 ar
   3    1   27 1
   4    2    3 ar
   5    2   14 1
   6    3    4 ar
   7    3   15 1
   8    4    5 ar
   9    4    7 1
  10    5    6 ar
  11    5   10 1
  12    6   28 1
  13    7    8 1
  14    7   29 1
  15    7   30 1
  16    8    9 1
  17    8   31 1
  18    8   32 1
  19    9   10 2
  20    9   11 1
  21   10   13 1
  22   11   12 1
  23   12   13 2
  24   12   17 1
  25   14   18 ar
  26   14   22 ar
  27   15   16 1
  28   16   33 1
  29   16   34 1
  30   16   35 1
  31   17   36 1
  32   17   37 1
  33   18   19 ar
  34   18   38 1
  35   19   20 ar
  36   19   25 1
  37   20   21 ar
  38   20   23 1
  39   21   22 ar
  40   21   39 1
  41   22   40 1
  42   23   24 1
  43   24   41 1
  44   24   42 1
  45   24   43 1
  46   25   26 1
  47   26   44 1
  48   26   45 1
  49   26   46 1

#	End of record

