#	Name: ASD03430938
#	Creating user name:	WinNT
#	Creation time:	15. 06. 2019 20:41

#	Modifying user name:	WinNT
#	Modification time:	15. 06. 2019 20:41

#	Program:	/corina/corina34_cracker 3.40 0067  02.08.2006

@<TRIPOS>MOLECULE
ASD03430938
  45   49    0    0    0
SMALL
NO_CHARGES


@<TRIPOS>ATOM
   1 O1            -0.0175     1.4360     0.0099 O.3     
   2 C2             0.0021    -0.0041     0.0020 C.3     
   3 C3             1.3458    -0.3161    -0.6707 C.3     
   4 C4             2.1588     0.9232    -0.4085 C.ar    
   5 C5             1.2621     1.9062     0.0002 C.ar    
   6 C6             1.7483     3.1686     0.3266 C.ar    
   7 C7             3.1016     3.4412     0.2353 C.ar    
   8 C8             3.9859     2.4541    -0.1825 C.ar    
   9 C9             3.5073     1.1963    -0.5023 C.ar    
  10 N10            2.1595    -2.4042    -1.1215 N.am    
  11 C11            1.9850    -1.5475    -0.0957 C.2     
  12 C12            1.1884    -0.5969    -2.1356 C.ar    
  13 C13            0.6782     0.1220    -3.1929 C.ar    
  14 C14            0.6721    -0.4244    -4.4644 C.ar    
  15 C15            1.1794    -1.6940    -4.6704 C.ar    
  16 C16            1.6923    -2.4185    -3.6141 C.ar    
  17 C17            1.7024    -1.8767    -2.3316 C.ar    
  18 O18            2.2859    -1.7341     1.0643 O.2     
  19 C19            2.7595    -3.7336    -0.9836 C.3     
  20 C20            1.6801    -4.7441    -0.6923 C.ar    
  21 C21            1.1202    -5.4643    -1.7309 C.ar    
  22 N22            1.2845    -4.9349     0.5509 N.ar    
  23 C23            0.3435    -5.8083     0.8529 C.ar    
  24 C24           -0.2654    -6.5608    -0.1332 C.ar    
  25 C25            0.1280    -6.3914    -1.4521 C.ar    
  26 O26            3.5673     4.6779     0.5546 O.3     
  27 F27            5.3068     2.7218    -0.2763 F       
  28 C28            2.6035     5.6452     0.9760 C.3     
  29 H29           -0.0221    -0.3969     1.0185 H       
  30 H30           -0.8261    -0.3990    -0.5864 H       
  31 H31            1.0657     3.9395     0.6525 H       
  32 H32            4.1914     0.4263    -0.8269 H       
  33 H33            0.2820     1.1134    -3.0300 H       
  34 H34            0.2717     0.1395    -5.2939 H       
  35 H35            1.1745    -2.1204    -5.6626 H       
  36 H36            2.0868    -3.4097    -3.7827 H       
  37 H37            3.2670    -4.0010    -1.9104 H       
  38 H38            3.4790    -3.7243    -0.1649 H       
  39 H39            1.4514    -5.3064    -2.7467 H       
  40 H40            0.0456    -5.9371     1.8830 H       
  41 H41           -1.0348    -7.2748     0.1205 H       
  42 H42           -0.3304    -6.9654    -2.2438 H       
  43 H43            3.1067     6.5859     1.1996 H       
  44 H44            1.8751     5.8028     0.1806 H       
  45 H45            2.0936     5.2846     1.8694 H       
@<TRIPOS>BOND
   1    1    2 1
   2    1    5 1
   3    2    3 1
   4    2   29 1
   5    2   30 1
   6    3    4 1
   7    3   11 1
   8    3   12 1
   9    4    5 ar
  10    4    9 ar
  11    5    6 ar
  12    6    7 ar
  13    6   31 1
  14    7    8 ar
  15    7   26 1
  16    8    9 ar
  17    8   27 1
  18    9   32 1
  19   10   11 am
  20   10   17 1
  21   10   19 1
  22   11   18 2
  23   12   13 ar
  24   12   17 ar
  25   13   14 ar
  26   13   33 1
  27   14   15 ar
  28   14   34 1
  29   15   16 ar
  30   15   35 1
  31   16   17 ar
  32   16   36 1
  33   19   20 1
  34   19   37 1
  35   19   38 1
  36   20   21 ar
  37   20   22 ar
  38   21   25 ar
  39   21   39 1
  40   22   23 ar
  41   23   24 ar
  42   23   40 1
  43   24   25 ar
  44   24   41 1
  45   25   42 1
  46   26   28 1
  47   28   43 1
  48   28   44 1
  49   28   45 1

#	End of record

