#	Name: ASD01908256
#	Creating user name:	WinNT
#	Creation time:	15. 06. 2019 19:54

#	Modifying user name:	WinNT
#	Modification time:	15. 06. 2019 19:54

#	Program:	/corina/corina34_cracker 3.40 0067  02.08.2006

@<TRIPOS>MOLECULE
ASD01908256
  25   26    0    0    0
SMALL
NO_CHARGES


@<TRIPOS>ATOM
   1 N1             0.3714     1.0224     1.9502 N.pl3   
   2 C2             0.2921    -0.2823     1.4512 C.ar    
   3 C3             1.3689    -0.8310     0.7667 C.ar    
   4 C4             1.2897    -2.1195     0.2743 C.ar    
   5 C5             0.1338    -2.8652     0.4639 C.ar    
   6 C6            -0.9411    -2.3173     1.1473 C.ar    
   7 C7            -0.8609    -1.0311     1.6450 C.ar    
   8 O8             0.0559    -4.1334    -0.0213 O.3     
   9 C9            -1.1299    -4.7874     0.0906 C.ar    
  10 C10           -2.0843    -4.6720    -0.9100 C.ar    
  11 C11           -3.2895    -5.3388    -0.7938 C.ar    
  12 C12           -3.5440    -6.1208     0.3195 C.ar    
  13 C13           -2.5944    -6.2364     1.3174 C.ar    
  14 C14           -1.3860    -5.5763     1.2029 C.ar    
  15 Cl15          -4.4847    -5.1949    -2.0445 Cl      
  16 Cl16           2.6349    -2.8058    -0.5818 Cl      
  17 H17            1.1785     1.5440     1.8181 H       
  18 H18           -0.3822     1.4069     2.4247 H       
  19 H19            2.2677    -0.2505     0.6192 H       
  20 H20           -1.8398    -2.8979     1.2943 H       
  21 H21           -1.6967    -0.6065     2.1814 H       
  22 H22           -1.8858    -4.0615    -1.7785 H       
  23 H23           -4.4861    -6.6412     0.4090 H       
  24 H24           -2.7956    -6.8466     2.1854 H       
  25 H25           -0.6429    -5.6708     1.9810 H       
@<TRIPOS>BOND
   1    1    2 1
   2    1   17 1
   3    1   18 1
   4    2    3 ar
   5    2    7 ar
   6    3    4 ar
   7    3   19 1
   8    4    5 ar
   9    4   16 1
  10    5    6 ar
  11    5    8 1
  12    6    7 ar
  13    6   20 1
  14    7   21 1
  15    8    9 1
  16    9   10 ar
  17    9   14 ar
  18   10   11 ar
  19   10   22 1
  20   11   12 ar
  21   11   15 1
  22   12   13 ar
  23   12   23 1
  24   13   14 ar
  25   13   24 1
  26   14   25 1

#	End of record

