#	Name: ASD01900369
#	Creating user name:	WinNT
#	Creation time:	15. 06. 2019 19:51

#	Modifying user name:	WinNT
#	Modification time:	15. 06. 2019 19:51

#	Program:	/corina/corina34_cracker 3.40 0067  02.08.2006

@<TRIPOS>MOLECULE
ASD01900369
  26   28    0    0    0
SMALL
NO_CHARGES


@<TRIPOS>ATOM
   1 C1             0.0220     1.4063     0.3790 C.ar    
   2 C2             0.0580     0.0272     0.5390 C.ar    
   3 N3             1.1755    -0.6486     0.3975 N.ar    
   4 C4             2.3206    -0.0415     0.0950 C.ar    
   5 C5             2.3584     1.3549    -0.0817 C.ar    
   6 C6             1.1813     2.0879     0.0647 C.ar    
   7 C7             3.6896    -0.5153    -0.1217 C.2     
   8 N8             4.4319     0.5243    -0.3963 N.2     
   9 N9             3.6535     1.6862    -0.3812 N.pl3   
  10 N10            4.1242    -1.8424    -0.0478 N.pl3   
  11 C11            5.4849    -2.1401    -0.1684 C.ar    
  12 C12            6.4378    -1.2132     0.2333 C.ar    
  13 C13            5.8856    -3.3659    -0.6850 C.ar    
  14 C14            7.2301    -3.6584    -0.8035 C.ar    
  15 C15            8.1792    -2.7311    -0.4079 C.ar    
  16 C16            7.7825    -1.5099     0.1130 C.ar    
  17 Cl17           8.9748    -0.3491     0.6077 Cl      
  18 F18            9.4939    -3.0197    -0.5244 F       
  19 H19           -0.9083     1.9423     0.4954 H       
  20 H20           -0.8516    -0.5005     0.7851 H       
  21 H21            1.1762     3.1601    -0.0646 H       
  22 H22            3.9787     2.5834    -0.5548 H       
  23 H23            3.4816    -2.5563     0.0870 H       
  24 H24            6.1285    -0.2612     0.6390 H       
  25 H25            5.1460    -4.0900    -0.9935 H       
  26 H26            7.5416    -4.6115    -1.2048 H       
@<TRIPOS>BOND
   1    1    2 ar
   2    1    6 ar
   3    1   19 1
   4    2    3 ar
   5    2   20 1
   6    3    4 ar
   7    4    5 ar
   8    4    7 1
   9    5    6 ar
  10    5    9 1
  11    6   21 1
  12    7    8 2
  13    7   10 1
  14    8    9 1
  15    9   22 1
  16   10   11 1
  17   10   23 1
  18   11   12 ar
  19   11   13 ar
  20   12   16 ar
  21   12   24 1
  22   13   14 ar
  23   13   25 1
  24   14   15 ar
  25   14   26 1
  26   15   16 ar
  27   15   18 1
  28   16   17 1

#	End of record

