#	Name: ASD00069084
#	Creating user name:	WinNT
#	Creation time:	15. 06. 2019 18:29

#	Modifying user name:	WinNT
#	Modification time:	15. 06. 2019 18:29

#	Program:	/corina/corina34_cracker 3.40 0067  02.08.2006

@<TRIPOS>MOLECULE
ASD00069084
  53   58    0    0    0
SMALL
NO_CHARGES


@<TRIPOS>ATOM
   1 C1             0.8126     3.4693     0.8023 C.3     
   2 C2             1.8069     4.1957     1.7103 C.3     
   3 C3             0.3395     4.0739     2.1257 C.3     
   4 C4             0.3951     4.1635    -0.4685 C.2     
   5 O5             0.8453     5.2570    -0.7382 O.2     
   6 N6            -0.4784     3.5693    -1.3053 N.am    
   7 F7             2.7406     3.4154     2.4005 F       
   8 F8             2.2590     5.4536     1.2973 F       
   9 N9            -2.3386     6.5116    -5.5936 N.pl3   
  10 N10           -2.3678     7.7808    -5.0074 N.2     
  11 C11           -1.9596     7.7079    -3.7612 C.2     
  12 C12           -1.6335     6.3035    -3.4846 C.ar    
  13 C13           -1.1616     5.6234    -2.3604 C.ar    
  14 C14           -0.9523     4.2592    -2.4286 C.ar    
  15 C15           -1.2103     3.5664    -3.6111 C.ar    
  16 C16           -1.6720     4.2214    -4.7164 C.ar    
  17 C17           -1.8909     5.5963    -4.6728 C.ar    
  18 C18           -2.7302     6.2053    -6.9716 C.3     
  19 C19           -4.2565     6.2345    -7.0872 C.3     
  20 C20           -4.6556     5.9730    -8.5428 C.3     
  21 C21           -3.9846     7.0174    -9.4402 C.3     
  22 C22           -2.4688     6.9579    -9.2337 C.3     
  23 O23           -2.1683     7.1787    -7.8542 O.3     
  24 C24           -1.8485     8.8328    -2.8121 C.2     
  25 N25           -1.4367     8.7350    -1.5705 N.2     
  26 C26           -1.4582     9.9575    -0.9859 C.ar    
  27 C27           -1.9203    10.8713    -1.9497 C.ar    
  28 N28           -2.1544    10.1373    -3.0967 N.pl3   
  29 C29           -2.0446    12.2145    -1.6237 C.ar    
  30 C30           -1.7138    12.6438    -0.3555 C.ar    
  31 C31           -1.2574    11.7423     0.5956 C.ar    
  32 C32           -1.1291    10.4162     0.2939 C.ar    
  33 H33            0.8859     2.3834     0.7427 H       
  34 H34           -0.2737     4.9737     2.0773 H       
  35 H35            0.1015     3.3857     2.9369 H       
  36 H36           -0.7790     2.6639    -1.1298 H       
  37 H37           -0.9612     6.1594    -1.4445 H       
  38 H38           -1.0427     2.5003    -3.6530 H       
  39 H39           -1.8675     3.6728    -5.6260 H       
  40 H40           -2.3641     5.2149    -7.2420 H       
  41 H41           -4.6850     5.4628    -6.4477 H       
  42 H42           -4.6265     7.2120    -6.7780 H       
  43 H43           -4.3289     4.9756    -8.8369 H       
  44 H44           -5.7384     6.0478    -8.6430 H       
  45 H45           -4.2187     6.8055   -10.4835 H       
  46 H46           -4.3492     8.0107    -9.1786 H       
  47 H47           -2.0992     5.9774    -9.5339 H       
  48 H48           -1.9892     7.7280    -9.8380 H       
  49 H49           -2.4770    10.4812    -3.9444 H       
  50 H50           -2.3987    12.9207    -2.3601 H       
  51 H51           -1.8102    13.6889    -0.1010 H       
  52 H52           -1.0016    12.0926     1.5847 H       
  53 H53           -0.7733     9.7233     1.0420 H       
@<TRIPOS>BOND
   1    1    2 1
   2    1    3 1
   3    1    4 1
   4    1   33 1
   5    2    3 1
   6    2    7 1
   7    2    8 1
   8    3   34 1
   9    3   35 1
  10    4    5 2
  11    4    6 am
  12    6   14 1
  13    6   36 1
  14    9   10 1
  15    9   17 1
  16    9   18 1
  17   10   11 2
  18   11   12 1
  19   11   24 1
  20   12   13 ar
  21   12   17 ar
  22   13   14 ar
  23   13   37 1
  24   14   15 ar
  25   15   16 ar
  26   15   38 1
  27   16   17 ar
  28   16   39 1
  29   18   19 1
  30   18   23 1
  31   18   40 1
  32   19   20 1
  33   19   41 1
  34   19   42 1
  35   20   21 1
  36   20   43 1
  37   20   44 1
  38   21   22 1
  39   21   45 1
  40   21   46 1
  41   22   23 1
  42   22   47 1
  43   22   48 1
  44   24   25 2
  45   24   28 1
  46   25   26 1
  47   26   27 ar
  48   26   32 ar
  49   27   28 1
  50   27   29 ar
  51   28   49 1
  52   29   30 ar
  53   29   50 1
  54   30   31 ar
  55   30   51 1
  56   31   32 ar
  57   31   52 1
  58   32   53 1

#	End of record

