#	Name: ASD03430076
#	Creating user name:	WinNT
#	Creation time:	15. 06. 2019 20:40

#	Modifying user name:	WinNT
#	Modification time:	15. 06. 2019 20:40

#	Program:	/corina/corina34_cracker 3.40 0067  02.08.2006

@<TRIPOS>MOLECULE
ASD03430076
  61   67    0    0    0
SMALL
NO_CHARGES


@<TRIPOS>ATOM
   1 C1             0.4645     1.1201    -0.6061 C.ar    
   2 C2             0.4319    -0.2571    -0.4650 C.ar    
   3 C3             1.5997    -0.9608    -0.2562 C.ar    
   4 C4             2.8211    -0.2990    -0.1730 C.ar    
   5 C5             2.8515     1.0845    -0.3196 C.ar    
   6 C6             1.6826     1.7921    -0.5352 C.ar    
   7 O7             3.8411    -1.1729     0.0641 O.3     
   8 C8             1.8945    -2.4279    -0.0938 C.3     
   9 C9             3.4158    -2.5047    -0.2832 C.3     
  10 C10            0.5827    -3.9905     0.9804 C.ar    
  11 C11            1.4697    -2.9525     1.2452 C.ar    
  12 C12            1.1640    -3.2694    -1.1006 C.2     
  13 N13            0.4246    -4.1511    -0.3986 N.am    
  14 O14            1.2270    -3.1744    -2.3081 O.2     
  15 C15            1.7829    -2.6100     2.5531 C.ar    
  16 C16            1.2041    -3.3111     3.6113 C.ar    
  17 C17            0.3235    -4.3412     3.3489 C.ar    
  18 C18            0.0125    -4.6816     2.0476 C.ar    
  19 C19            2.7309    -1.5016     2.8252 C.ar    
  20 O20           -0.5271     2.0335    -0.8230 O.3     
  21 C21            0.0430     3.3093    -0.4759 C.3     
  22 O22            1.4533     3.1271    -0.7085 O.3     
  23 C23           -0.4434    -5.1605    -1.0102 C.3     
  24 C24           -1.8233    -4.5862    -1.2029 C.ar    
  25 C25           -2.1667    -4.0276    -2.4193 C.ar    
  26 C26           -3.4389    -3.5019    -2.5864 C.ar    
  27 C27           -4.3215    -3.5583    -1.5188 C.ar    
  28 C28           -3.9070    -4.1325    -0.3318 C.ar    
  29 N29           -2.6909    -4.6274    -0.2105 N.ar    
  30 C30            2.4591    -0.2139     2.3729 C.ar    
  31 N31            3.2979     0.7742     2.6125 N.ar    
  32 C32            4.4225     0.5859     3.2862 C.ar    
  33 C33            4.7625    -0.6747     3.7698 C.ar    
  34 C34            3.9081    -1.7357     3.5454 C.ar    
  35 N35            5.2740     1.6599     3.5129 N.pl3   
  36 C36            6.5703     1.4429     4.1601 C.3     
  37 C37            4.8758     3.0093     3.1047 C.3     
  38 H38           -0.5107    -0.7816    -0.5182 H       
  39 H39            3.7938     1.6092    -0.2645 H       
  40 H40            3.6659    -2.7330    -1.3193 H       
  41 H41            3.8535    -3.2394     0.3926 H       
  42 H42            1.4443    -3.0493     4.6312 H       
  43 H43           -0.1251    -4.8848     4.1672 H       
  44 H44           -0.6778    -5.4896     1.8554 H       
  45 H45           -0.3517     4.0936    -1.1217 H       
  46 H46           -0.1484     3.5420     0.5717 H       
  47 H47           -0.0339    -5.4544    -1.9766 H       
  48 H48           -0.5006    -6.0330    -0.3593 H       
  49 H49           -1.4531    -4.0005    -3.2295 H       
  50 H50           -3.7351    -3.0588    -3.5257 H       
  51 H51           -5.3203    -3.1583    -1.6133 H       
  52 H52           -4.5885    -4.1800     0.5047 H       
  53 H53            1.5516    -0.0223     1.8196 H       
  54 H54            5.6816    -0.8200     4.3180 H       
  55 H55            4.1466    -2.7243     3.9090 H       
  56 H56            7.3257     1.2391     3.4012 H       
  57 H57            6.8501     2.3347     4.7210 H       
  58 H58            6.4995     0.5936     4.8396 H       
  59 H59            3.8884     2.9732     2.6446 H       
  60 H60            4.8456     3.6593     3.9792 H       
  61 H61            5.5972     3.3995     2.3868 H       
@<TRIPOS>BOND
   1    1    2 ar
   2    1    6 ar
   3    1   20 1
   4    2    3 ar
   5    2   38 1
   6    3    4 ar
   7    3    8 1
   8    4    5 ar
   9    4    7 1
  10    5    6 ar
  11    5   39 1
  12    6   22 1
  13    7    9 1
  14    8    9 1
  15    8   11 1
  16    8   12 1
  17    9   40 1
  18    9   41 1
  19   10   11 ar
  20   10   13 1
  21   10   18 ar
  22   11   15 ar
  23   12   13 am
  24   12   14 2
  25   13   23 1
  26   15   16 ar
  27   15   19 1
  28   16   17 ar
  29   16   42 1
  30   17   18 ar
  31   17   43 1
  32   18   44 1
  33   19   30 ar
  34   19   34 ar
  35   20   21 1
  36   21   22 1
  37   21   45 1
  38   21   46 1
  39   23   24 1
  40   23   47 1
  41   23   48 1
  42   24   25 ar
  43   24   29 ar
  44   25   26 ar
  45   25   49 1
  46   26   27 ar
  47   26   50 1
  48   27   28 ar
  49   27   51 1
  50   28   29 ar
  51   28   52 1
  52   30   31 ar
  53   30   53 1
  54   31   32 ar
  55   32   33 ar
  56   32   35 1
  57   33   34 ar
  58   33   54 1
  59   34   55 1
  60   35   36 1
  61   35   37 1
  62   36   56 1
  63   36   57 1
  64   36   58 1
  65   37   59 1
  66   37   60 1
  67   37   61 1

#	End of record

