#	Name: ASD01911718
#	Creating user name:	WinNT
#	Creation time:	15. 06. 2019 19:58

#	Modifying user name:	WinNT
#	Modification time:	15. 06. 2019 19:58

#	Program:	/corina/corina34_cracker 3.40 0067  02.08.2006

@<TRIPOS>MOLECULE
ASD01911718
  37   39    0    0    0
SMALL
NO_CHARGES


@<TRIPOS>ATOM
   1 C1            -0.0144     1.2131     0.0087 C.2     
   2 O2            -0.1632     0.2149    -0.6719 O.2     
   3 S3             1.3934     3.7145    -0.2022 S.3     
   4 C4             3.1478     3.5601    -0.1983 C.2     
   5 N5             3.4742     2.2957    -0.0965 N.2     
   6 C6             2.5017     1.4309    -0.0211 C.2     
   7 C7             1.2402     1.9645    -0.0585 C.2     
   8 C8             4.0739     4.6483    -0.2922 C.1     
   9 C9             4.8332     5.5404    -0.3692 C.1     
  10 C10            5.7593     6.6286    -0.4631 C.ar    
  11 C11            7.1357     6.3830    -0.4498 C.ar    
  12 C12            8.0212     7.4361    -0.5406 C.ar    
  13 C13            7.5507     8.7335    -0.6447 C.ar    
  14 C14            6.1898     8.9847    -0.6585 C.ar    
  15 C15            5.2917     7.9416    -0.5744 C.ar    
  16 N16           -1.0068     1.6297     0.8200 N.am    
  17 C17           -0.7998     2.7587     1.7371 C.3     
  18 C18           -1.9040     3.7941     1.5015 C.3     
  19 C19           -3.2699     3.1171     1.6364 C.3     
  20 C20           -3.4036     2.0192     0.5786 C.3     
  21 C21           -2.3181     0.9673     0.7997 C.3     
  22 Br22           2.8101    -0.4288     0.1288 Br      
  23 H23            7.5043     5.3711    -0.3682 H       
  24 H24            9.0847     7.2481    -0.5301 H       
  25 H25            8.2492     9.5542    -0.7151 H       
  26 H26            5.8302     9.9998    -0.7401 H       
  27 H27            4.2300     8.1387    -0.5902 H       
  28 H28           -0.8439     2.4055     2.7673 H       
  29 H29            0.1728     3.2118     1.5452 H       
  30 H30           -1.8187     4.5914     2.2399 H       
  31 H31           -1.8027     4.2126     0.5002 H       
  32 H32           -3.3607     2.6773     2.6296 H       
  33 H33           -4.0575     3.8568     1.4936 H       
  34 H34           -4.3855     1.5531     0.6601 H       
  35 H35           -3.2881     2.4544    -0.4140 H       
  36 H36           -2.3473     0.2366    -0.0087 H       
  37 H37           -2.4834     0.4666     1.7537 H       
@<TRIPOS>BOND
   1    1    2 2
   2    1    7 1
   3    1   16 am
   4    3    4 1
   5    3    7 1
   6    4    5 2
   7    4    8 1
   8    5    6 1
   9    6    7 2
  10    6   22 1
  11    8    9 3
  12    9   10 1
  13   10   11 ar
  14   10   15 ar
  15   11   12 ar
  16   11   23 1
  17   12   13 ar
  18   12   24 1
  19   13   14 ar
  20   13   25 1
  21   14   15 ar
  22   14   26 1
  23   15   27 1
  24   16   17 1
  25   16   21 1
  26   17   18 1
  27   17   28 1
  28   17   29 1
  29   18   19 1
  30   18   30 1
  31   18   31 1
  32   19   20 1
  33   19   32 1
  34   19   33 1
  35   20   21 1
  36   20   34 1
  37   20   35 1
  38   21   36 1
  39   21   37 1

#	End of record

