#	Name: ASD01810087
#	Creating user name:	WinNT
#	Creation time:	15. 06. 2019 19:23

#	Modifying user name:	WinNT
#	Modification time:	15. 06. 2019 19:23

#	Program:	/corina/corina34_cracker 3.40 0067  02.08.2006

@<TRIPOS>MOLECULE
ASD01810087
  39   42    0    0    0
SMALL
NO_CHARGES


@<TRIPOS>ATOM
   1 C1             0.1011     1.4589     0.6240 C.ar    
   2 C2             0.1055     0.0759     0.6892 C.ar    
   3 C3             1.2743    -0.6370     0.4821 C.ar    
   4 C4             2.4610     0.0324     0.2057 C.ar    
   5 C5             2.4521     1.4347     0.1406 C.ar    
   6 C6             1.2685     2.1426     0.3506 C.ar    
   7 N7             3.7502    -0.4393    -0.0377 N.am    
   8 C8             4.6081     0.5709    -0.2629 C.2     
   9 C9             3.8335     1.8514    -0.1643 C.2     
  10 O10            4.2516     2.9819    -0.3051 O.2     
  11 O11            5.7927     0.4659    -0.5022 O.2     
  12 C12            4.1228    -1.8561    -0.0464 C.3     
  13 C13            4.1253    -2.3661    -1.4645 C.ar    
  14 C14            5.2429    -2.1837    -2.2620 C.ar    
  15 C15            5.2495    -2.6505    -3.5635 C.ar    
  16 C16            4.1302    -3.3049    -4.0722 C.ar    
  17 C17            3.0085    -3.4862    -3.2669 C.ar    
  18 C18            4.1327    -3.8074    -5.4694 C.2     
  19 C19            5.1907    -3.6953    -6.3923 C.2     
  20 N20            4.8150    -4.2572    -7.5106 N.2     
  21 N21            3.5132    -4.7461    -7.3475 N.pl3   
  22 C22            3.1127    -4.4669    -6.0907 C.2     
  23 C23            2.7246    -5.4454    -8.3649 C.3     
  24 F24            6.3279    -1.5484    -1.7677 F       
  25 C25            3.0122    -3.0210    -1.9648 C.ar    
  26 F26            1.2615    -1.9862     0.5491 F       
  27 F27            1.9246    -3.1963    -1.1827 F       
  28 H28           -0.8180     2.0033     0.7830 H       
  29 H29           -0.8119    -0.4521     0.9040 H       
  30 H30            1.2657     3.2213     0.2993 H       
  31 H31            5.1177    -1.9728     0.3834 H       
  32 H32            3.4034    -2.4247     0.5429 H       
  33 H33            6.1212    -2.5076    -4.1848 H       
  34 H34            2.1386    -3.9931    -3.6575 H       
  35 H35            6.1459    -3.2263    -6.2079 H       
  36 H36            2.1555    -4.7149    -5.6565 H       
  37 H37            2.9069    -6.5176    -8.2925 H       
  38 H38            1.6652    -5.2453    -8.2044 H       
  39 H39            3.0148    -5.0935    -9.3549 H       
@<TRIPOS>BOND
   1    1    2 ar
   2    1    6 ar
   3    1   28 1
   4    2    3 ar
   5    2   29 1
   6    3    4 ar
   7    3   26 1
   8    4    5 ar
   9    4    7 1
  10    5    6 ar
  11    5    9 1
  12    6   30 1
  13    7    8 am
  14    7   12 1
  15    8    9 1
  16    8   11 2
  17    9   10 2
  18   12   13 1
  19   12   31 1
  20   12   32 1
  21   13   14 ar
  22   13   25 ar
  23   14   15 ar
  24   14   24 1
  25   15   16 ar
  26   15   33 1
  27   16   17 ar
  28   16   18 1
  29   17   25 ar
  30   17   34 1
  31   18   19 1
  32   18   22 2
  33   19   20 2
  34   19   35 1
  35   20   21 1
  36   21   22 1
  37   21   23 1
  38   22   36 1
  39   23   37 1
  40   23   38 1
  41   23   39 1
  42   25   27 1

#	End of record

