#	Name: ASD01410507
#	Creating user name:	WinNT
#	Creation time:	15. 06. 2019 19:18

#	Modifying user name:	WinNT
#	Modification time:	15. 06. 2019 19:18

#	Program:	/corina/corina34_cracker 3.40 0067  02.08.2006

@<TRIPOS>MOLECULE
ASD01410507
  91   94    0    0    0
SMALL
NO_CHARGES


@<TRIPOS>ATOM
   1 C1             0.6243     1.4337     3.5993 C.ar    
   2 C2             1.1455     0.4207     4.3920 C.ar    
   3 C3             2.3650    -0.1365     4.0610 C.ar    
   4 N4             3.0354     0.2822     3.0048 N.ar    
   5 C5             2.5716     1.2452     2.2252 C.ar    
   6 C6             1.3518     1.8508     2.4981 C.ar    
   7 O7             3.2942     1.6449     1.1488 O.3     
   8 C8             4.5260     1.0982     0.9683 C.ar    
   9 C9             4.6453    -0.2462     0.6372 C.ar    
  10 C10            5.8907    -0.8112     0.4516 C.ar    
  11 C11            7.0348    -0.0387     0.5952 C.ar    
  12 C12            6.9213     1.3194     0.9294 C.ar    
  13 C13            5.6558     1.8833     1.1091 C.ar    
  14 N14            8.2926    -0.6102     0.4085 N.am    
  15 C15            8.8535    -0.6193    -0.8169 C.2     
  16 C16            9.0047    -1.2009     1.5444 C.3     
  17 O17            9.9204    -1.1690    -0.9914 O.2     
  18 C18            8.1549     0.0534    -1.9704 C.3     
  19 C19            8.6594    -0.5390    -3.2878 C.3     
  20 C20           10.1682    -0.3133    -3.4037 C.3     
  21 C21           10.4633     1.1877    -3.3733 C.3     
  22 C22            9.9587     1.7800    -2.0559 C.3     
  23 C23            8.4499     1.5544    -1.9400 C.3     
  24 C24            0.3891    -0.0656     5.6013 C.3     
  25 C25           -1.2943    -1.6995     6.4049 C.2     
  26 C26            8.2811    -0.8401     2.8434 C.3     
  27 C27            9.0425    -2.7223     1.3874 C.3     
  28 C28           11.9721     1.4133    -3.4892 C.3     
  29 O29            9.8591    -3.0653     0.2659 O.3     
  30 C30            7.8515     0.9920     4.3279 C.3     
  31 O31            8.3914     0.5656     3.0754 O.3     
  32 C32           -2.6251    -1.7718     6.4413 C.2     
  33 C33            9.9617    -4.4709     0.0298 C.3     
  34 N34           -0.6920    -2.0940     7.5127 N.2     
  35 C35           -1.4534    -2.4959     8.4825 C.2     
  36 S36           -3.0964    -2.3927     8.0210 S.3     
  37 N37           -1.0011    -2.9445     9.7135 N.pl3   
  38 C38           -1.9602    -3.3743    10.7341 C.3     
  39 C39           -2.3308    -4.8403    10.5006 C.3     
  40 C40           -1.3320    -3.2218    12.1208 C.3     
  41 C41           -0.5379    -1.2132     5.1956 C.3     
  42 C42            8.1304     2.1479     1.0845 C.2     
  43 O43            9.2257     1.6723     0.8596 O.2     
  44 O44            8.0212     3.4327     1.4758 O.3     
  45 C45            0.8274     2.9474     1.6073 C.3     
  46 F46           -0.4087     3.3897     2.0905 F       
  47 F47            1.7330     4.0136     1.5978 F       
  48 F48            0.6710     2.4567     0.3065 F       
  49 H49           -0.3294     1.8832     3.8338 H       
  50 H50            2.7752    -0.9249     4.6748 H       
  51 H51            3.7585    -0.8524     0.5249 H       
  52 H52            5.9753    -1.8568     0.1945 H       
  53 H53            5.5604     2.9278     1.3663 H       
  54 H54           10.0230    -0.8135     1.5761 H       
  55 H55            7.0800    -0.1074    -1.8878 H       
  56 H56            8.4492    -1.6083    -3.3094 H       
  57 H57            8.1541    -0.0524    -4.1220 H       
  58 H58           10.6735    -0.7999    -2.5694 H       
  59 H59           10.5277    -0.7353    -4.3422 H       
  60 H60            9.9580     1.6742    -4.2075 H       
  61 H61           10.4640     1.2934    -1.2216 H       
  62 H62           10.1689     2.8493    -2.0342 H       
  63 H63            7.9446     2.0409    -2.7742 H       
  64 H64            8.0905     1.9764    -1.0014 H       
  65 H65            1.0947    -0.4173     6.3540 H       
  66 H66           -0.2032     0.7519     6.0124 H       
  67 H67            7.2291    -1.1134     2.7613 H       
  68 H68            8.7335    -1.3821     3.6739 H       
  69 H69            9.4579    -3.1706     2.2899 H       
  70 H70            8.0311    -3.0964     1.2283 H       
  71 H71           12.3315     0.9913    -4.4277 H       
  72 H72           12.1823     2.4826    -3.4675 H       
  73 H73           12.4774     0.9267    -2.6549 H       
  74 H74            8.0519     2.0543     4.4672 H       
  75 H75            6.7750     0.8212     4.3366 H       
  76 H76            8.3157     0.4258     5.1354 H       
  77 H77           -3.2971    -1.4969     5.6417 H       
  78 H78            8.9694    -4.8813    -0.1574 H       
  79 H79           10.5978    -4.6482    -0.8374 H       
  80 H80           10.3962    -4.9554     0.9042 H       
  81 H81           -0.0495    -2.9739     9.8993 H       
  82 H82           -2.8574    -2.7584    10.6719 H       
  83 H83           -2.7783    -4.9490     9.5126 H       
  84 H84           -1.4336    -5.4562    10.5628 H       
  85 H85           -3.0444    -5.1601    11.2599 H       
  86 H86           -1.0680    -2.1774    12.2872 H       
  87 H87           -2.0457    -3.5416    12.8802 H       
  88 H88           -0.4349    -3.8377    12.1830 H       
  89 H89           -1.2435    -0.8615     4.4429 H       
  90 H90            0.0545    -2.0307     4.7845 H       
  91 H91            8.8421     3.9362     1.5636 H       
@<TRIPOS>BOND
   1    1    2 ar
   2    1    6 ar
   3    1   49 1
   4    2    3 ar
   5    2   24 1
   6    3    4 ar
   7    3   50 1
   8    4    5 ar
   9    5    6 ar
  10    5    7 1
  11    6   45 1
  12    7    8 1
  13    8    9 ar
  14    8   13 ar
  15    9   10 ar
  16    9   51 1
  17   10   11 ar
  18   10   52 1
  19   11   12 ar
  20   11   14 1
  21   12   13 ar
  22   12   42 1
  23   13   53 1
  24   14   15 am
  25   14   16 1
  26   15   17 2
  27   15   18 1
  28   16   27 1
  29   16   26 1
  30   16   54 1
  31   18   19 1
  32   18   23 1
  33   18   55 1
  34   19   20 1
  35   19   56 1
  36   19   57 1
  37   20   21 1
  38   20   58 1
  39   20   59 1
  40   21   22 1
  41   21   28 1
  42   21   60 1
  43   22   23 1
  44   22   61 1
  45   22   62 1
  46   23   63 1
  47   23   64 1
  48   24   41 1
  49   24   65 1
  50   24   66 1
  51   25   34 1
  52   25   32 2
  53   25   41 1
  54   26   31 1
  55   26   67 1
  56   26   68 1
  57   27   29 1
  58   27   69 1
  59   27   70 1
  60   28   71 1
  61   28   72 1
  62   28   73 1
  63   29   33 1
  64   30   31 1
  65   30   74 1
  66   30   75 1
  67   30   76 1
  68   32   36 1
  69   32   77 1
  70   33   78 1
  71   33   79 1
  72   33   80 1
  73   34   35 2
  74   35   36 1
  75   35   37 1
  76   37   38 1
  77   37   81 1
  78   38   39 1
  79   38   40 1
  80   38   82 1
  81   39   83 1
  82   39   84 1
  83   39   85 1
  84   40   86 1
  85   40   87 1
  86   40   88 1
  87   41   89 1
  88   41   90 1
  89   42   43 2
  90   42   44 1
  91   44   91 1
  92   45   46 1
  93   45   47 1
  94   45   48 1

#	End of record

