#	Name: ASD03731448
#	Creating user name:	WinNT
#	Creation time:	15. 06. 2019 20:45

#	Modifying user name:	WinNT
#	Modification time:	15. 06. 2019 20:45

#	Program:	/corina/corina34_cracker 3.40 0067  02.08.2006

@<TRIPOS>MOLECULE
ASD03731448
  52   57    0    0    0
SMALL
NO_CHARGES


@<TRIPOS>ATOM
   1 O1            -0.0162     1.3449     0.0094 O.3     
   2 C2             0.0021    -0.0041     0.0020 C.2     
   3 C3             1.3061    -0.4089    -0.0126 C.2     
   4 C4             2.0900     0.7554    -0.0138 C.2     
   5 C5             1.2410     1.8066    -0.0001 C.2     
   6 C6            -1.1727    -0.8819     0.0093 C.2     
   7 O7            -1.0294    -2.0904     0.0018 O.2     
   8 N8            -2.4111    -0.3503     0.0242 N.am    
   9 C9            -3.5847    -1.2272     0.0314 C.3     
  10 C10           -4.8566    -0.3769     0.0483 C.3     
  11 C11           -6.0822    -1.2927     0.0559 C.3     
  12 O12           -7.6004     5.4165    -2.0352 O.3     
  13 C13           -8.5105     6.5087    -2.2629 C.3     
  14 O14           -9.6944     5.8672    -2.7726 O.3     
  15 C15           -9.6782     4.6041    -2.2537 C.ar    
  16 C16           -8.3901     4.3272    -1.8014 C.ar    
  17 C17          -10.6749     3.6532    -2.1278 C.ar    
  18 C18          -10.4005     2.4161    -1.5523 C.ar    
  19 C19           -9.1080     2.1481    -1.1118 C.ar    
  20 C20           -8.1135     3.0964    -1.2303 C.ar    
  21 O21          -11.2306     1.3590    -1.3206 O.3     
  22 C22           -9.1213     0.7424    -0.5734 C.3     
  23 C23          -10.4413     0.1723    -1.1102 C.3     
  24 N24           -7.3000    -0.4786     0.0720 N.am    
  25 C25           -7.9369    -0.0552    -1.0380 C.2     
  26 C26           -9.0635     0.7043     0.9249 C.ar    
  27 C27           -9.8526     1.2342     1.9212 C.ar    
  28 C28           -9.5308     1.0174     3.2492 C.ar    
  29 C29           -8.4145     0.2679     3.5734 C.ar    
  30 C30           -7.6204    -0.2641     2.5790 C.ar    
  31 C31           -7.9370    -0.0513     1.2396 C.ar    
  32 O32           -7.6164    -0.2756    -2.1868 O.2     
  33 H33            1.6647    -1.4275    -0.0212 H       
  34 H34            3.1690     0.8024    -0.0232 H       
  35 H35            1.5287     2.8475     0.0024 H       
  36 H36           -2.5254     0.6130     0.0302 H       
  37 H37           -3.5770    -1.8518    -0.8618 H       
  38 H38           -3.5594    -1.8607     0.9180 H       
  39 H39           -4.8642     0.2477     0.9415 H       
  40 H40           -4.8819     0.2566    -0.8383 H       
  41 H41           -6.0745    -1.9173    -0.8374 H       
  42 H42           -6.0569    -1.9263     0.9425 H       
  43 H43           -8.7277     7.0273    -1.3291 H       
  44 H44           -8.1021     7.2001    -3.0000 H       
  45 H45          -11.6727     3.8722    -2.4784 H       
  46 H46           -7.1165     2.8784    -0.8772 H       
  47 H47          -10.9102    -0.4787    -0.3724 H       
  48 H48          -10.2808    -0.3574    -2.0492 H       
  49 H49          -10.7238     1.8193     1.6658 H       
  50 H50          -10.1500     1.4320     4.0309 H       
  51 H51           -8.1632     0.0988     4.6100 H       
  52 H52           -6.7500    -0.8478     2.8401 H       
@<TRIPOS>BOND
   1    1    2 1
   2    1    5 1
   3    2    3 2
   4    2    6 1
   5    3    4 1
   6    3   33 1
   7    4    5 2
   8    4   34 1
   9    5   35 1
  10    6    7 2
  11    6    8 am
  12    8    9 1
  13    8   36 1
  14    9   10 1
  15    9   37 1
  16    9   38 1
  17   10   11 1
  18   10   39 1
  19   10   40 1
  20   11   24 1
  21   11   41 1
  22   11   42 1
  23   12   13 1
  24   12   16 1
  25   13   14 1
  26   13   43 1
  27   13   44 1
  28   14   15 1
  29   15   16 ar
  30   15   17 ar
  31   16   20 ar
  32   17   18 ar
  33   17   45 1
  34   18   19 ar
  35   18   21 1
  36   19   20 ar
  37   19   22 1
  38   20   46 1
  39   21   23 1
  40   22   23 1
  41   22   25 1
  42   22   26 1
  43   23   47 1
  44   23   48 1
  45   24   25 am
  46   24   31 1
  47   25   32 2
  48   26   27 ar
  49   26   31 ar
  50   27   28 ar
  51   27   49 1
  52   28   29 ar
  53   28   50 1
  54   29   30 ar
  55   29   51 1
  56   30   31 ar
  57   30   52 1

#	End of record

