#	Name: ASD04590964
#	Creating user name:	WinNT
#	Creation time:	15. 06. 2019 20:51

#	Modifying user name:	WinNT
#	Modification time:	15. 06. 2019 20:51

#	Program:	/corina/corina34_cracker 3.40 0067  02.08.2006

@<TRIPOS>MOLECULE
ASD04590964
  53   57    0    0    0
SMALL
NO_CHARGES


@<TRIPOS>ATOM
   1 N1            -0.0170     1.3235    -0.0111 N.ar    
   2 C2             0.0017    -0.0035    -0.0048 C.ar    
   3 N3             1.1296    -0.6948    -0.0122 N.ar    
   4 C4             2.3050    -0.0727    -0.0263 C.ar    
   5 C5             2.3190     1.3364    -0.0332 C.ar    
   6 C6             1.1070     2.0203    -0.0251 C.ar    
   7 N7             3.6031    -0.5195    -0.0364 N.pl3   
   8 C8             4.4824     0.5494    -0.0499 C.ar    
   9 C9             3.7313     1.7383    -0.0485 C.ar    
  10 C10            5.8681     0.6416    -0.0635 C.ar    
  11 N11            6.4614     1.8179    -0.0743 N.ar    
  12 C12            5.7851     2.9531    -0.0734 C.ar    
  13 C13            4.4065     2.9583    -0.0612 C.ar    
  14 N14           -1.2019    -0.6887     0.0103 N.pl3   
  15 C15           -2.4022     0.0122     0.1313 C.ar    
  16 N16           -2.3890     1.3198     0.3320 N.ar    
  17 N17           -3.4682     2.0044     0.4491 N.ar    
  18 C18           -4.6669     1.4482     0.3771 C.ar    
  19 C19           -4.7831     0.0736     0.1674 C.ar    
  20 C20           -3.6191    -0.6635     0.0353 C.ar    
  21 N21           -5.8101     2.2333     0.5109 N.3     
  22 C22            4.0015    -1.9293    -0.0329 C.3     
  23 C23           -6.6656     1.7368     1.5978 C.3     
  24 C24            3.4577    -2.6099     1.2248 C.3     
  25 O25            3.9426    -3.9527     1.2873 O.3     
  26 C26            3.4348    -2.6225    -1.2736 C.3     
  27 C27           -5.4582     3.6441     0.7241 C.3     
  28 C28           -6.7372     4.4823     0.7863 C.3     
  29 N29           -7.5927     3.9859     1.8732 N.3     
  30 C30           -7.9446     2.5751     1.6601 C.3     
  31 H31            1.0847     3.1001    -0.0304 H       
  32 H32            6.4646    -0.2587    -0.0648 H       
  33 H33            6.3205     3.8910    -0.0822 H       
  34 H34            3.8598     3.8897    -0.0612 H       
  35 H35           -1.2103    -1.6559    -0.0632 H       
  36 H36           -5.7517    -0.4000     0.1055 H       
  37 H37           -3.6517    -1.7304    -0.1288 H       
  38 H38            5.0892    -1.9995    -0.0426 H       
  39 H39           -6.9228     0.6943     1.4109 H       
  40 H40           -6.1324     1.8159     2.5453 H       
  41 H41            3.7898    -2.0622     2.1067 H       
  42 H42            2.3682    -2.6182     1.1912 H       
  43 H43            3.6370    -4.4456     2.0611 H       
  44 H44            3.8222    -2.1377    -2.1696 H       
  45 H45            3.7312    -3.6715    -1.2710 H       
  46 H46            2.3471    -2.5524    -1.2639 H       
  47 H47           -4.9113     3.7448     1.6616 H       
  48 H48           -4.8351     3.9919    -0.0999 H       
  49 H49           -6.4800     5.5249     0.9733 H       
  50 H50           -7.2703     4.4032    -0.1611 H       
  51 H51           -7.1498     4.1165     2.7704 H       
  52 H52           -8.4914     2.4743     0.7226 H       
  53 H53           -8.5676     2.2272     2.4841 H       
@<TRIPOS>BOND
   1    1    2 ar
   2    1    6 ar
   3    2    3 ar
   4    2   14 1
   5    3    4 ar
   6    4    5 ar
   7    4    7 1
   8    5    6 ar
   9    5    9 1
  10    6   31 1
  11    7    8 1
  12    7   22 1
  13    8    9 ar
  14    8   10 ar
  15    9   13 ar
  16   10   11 ar
  17   10   32 1
  18   11   12 ar
  19   12   13 ar
  20   12   33 1
  21   13   34 1
  22   14   15 1
  23   14   35 1
  24   15   16 ar
  25   15   20 ar
  26   16   17 ar
  27   17   18 ar
  28   18   19 ar
  29   18   21 1
  30   19   20 ar
  31   19   36 1
  32   20   37 1
  33   21   27 1
  34   21   23 1
  35   22   24 1
  36   22   26 1
  37   22   38 1
  38   23   30 1
  39   23   39 1
  40   23   40 1
  41   24   25 1
  42   24   41 1
  43   24   42 1
  44   25   43 1
  45   26   44 1
  46   26   45 1
  47   26   46 1
  48   27   28 1
  49   27   47 1
  50   27   48 1
  51   28   29 1
  52   28   49 1
  53   28   50 1
  54   29   30 1
  55   29   51 1
  56   30   52 1
  57   30   53 1

#	End of record

