#	Name: ASD00360012
#	Creating user name:	WinNT
#	Creation time:	15. 06. 2019 18:35

#	Modifying user name:	WinNT
#	Modification time:	15. 06. 2019 18:35

#	Program:	/corina/corina34_cracker 3.40 0067  02.08.2006

@<TRIPOS>MOLECULE
ASD00360012
  43   46    0    0    0
SMALL
NO_CHARGES


@<TRIPOS>ATOM
   1 C1            -0.0169     1.3974     0.0097 C.ar    
   2 C2             0.0021    -0.0041     0.0020 C.ar    
   3 C3             1.2204    -0.6877    -0.0134 C.ar    
   4 C4             2.4191     0.0150    -0.0213 C.ar    
   5 C5             2.4124     1.4048    -0.0129 C.ar    
   6 C6             1.1874     2.1045     0.0020 C.ar    
   7 C7             1.1880     3.5783     0.0104 C.2     
   8 C8             3.6836     2.1591    -0.0181 C.2     
   9 C9             3.6658     3.6035     0.2989 C.ar    
  10 C10            2.4407     4.2982     0.3112 C.ar    
  11 C11            2.4232     5.6621     0.6103 C.ar    
  12 C12            4.8458     4.2801     0.5833 C.ar    
  13 C13            4.8135     5.6341     0.8784 C.ar    
  14 C14            3.6173     6.3207     0.8922 C.ar    
  15 O15            1.2332    -2.0446    -0.0203 O.3     
  16 O16            4.7304     1.5992    -0.2792 O.2     
  17 O17            0.1670     4.1947    -0.2286 O.2     
  18 O18            1.2498     6.3415     0.6258 O.3     
  19 O19           -1.1975     2.0626     0.0190 O.3     
  20 C20            6.0965     6.3622     1.1866 C.3     
  21 C21           -1.2711    -0.7613     0.0107 C.ar    
  22 C22           -3.3287    -1.3828    -1.0596 C.ar    
  23 C23           -3.6508    -2.1767     0.0270 C.ar    
  24 C24           -2.7914    -2.2617     1.1076 C.ar    
  25 C25           -1.6039    -1.5586     1.1054 C.ar    
  26 C26           -2.1445    -0.6752    -1.0735 C.ar    
  27 C27           -3.1498    -3.1286     2.2870 C.3     
  28 H28            3.3574    -0.5196    -0.0335 H       
  29 H29            5.7874     3.7512     0.5749 H       
  30 H30            3.6068     7.3756     1.1235 H       
  31 H31            1.2281    -2.4335    -0.9056 H       
  32 H32            0.8111     6.3493     1.4875 H       
  33 H33           -1.5360     2.2509     0.9050 H       
  34 H34            6.5205     6.7578     0.2636 H       
  35 H35            5.8922     7.1833     1.8737 H       
  36 H36            6.8047     5.6722     1.6453 H       
  37 H37           -4.0037    -1.3204    -1.9004 H       
  38 H38           -4.5790    -2.7288     0.0333 H       
  39 H39           -0.9336    -1.6260     1.9495 H       
  40 H40           -1.8944    -0.0555    -1.9220 H       
  41 H41           -2.7603    -4.1345     2.1303 H       
  42 H42           -2.7143    -2.7075     3.1932 H       
  43 H43           -4.2340    -3.1709     2.3907 H       
@<TRIPOS>BOND
   1    1    2 ar
   2    1    6 ar
   3    1   19 1
   4    2    3 ar
   5    2   21 1
   6    3    4 ar
   7    3   15 1
   8    4    5 ar
   9    4   28 1
  10    5    6 ar
  11    5    8 1
  12    6    7 1
  13    7   10 1
  14    7   17 2
  15    8    9 1
  16    8   16 2
  17    9   12 ar
  18    9   10 ar
  19   10   11 ar
  20   11   14 ar
  21   11   18 1
  22   12   13 ar
  23   12   29 1
  24   13   14 ar
  25   13   20 1
  26   14   30 1
  27   15   31 1
  28   18   32 1
  29   19   33 1
  30   20   34 1
  31   20   35 1
  32   20   36 1
  33   21   26 ar
  34   21   25 ar
  35   22   23 ar
  36   22   26 ar
  37   22   37 1
  38   23   24 ar
  39   23   38 1
  40   24   25 ar
  41   24   27 1
  42   25   39 1
  43   26   40 1
  44   27   41 1
  45   27   42 1
  46   27   43 1

#	End of record

