#	Name: ASD01418005
#	Creating user name:	WinNT
#	Creation time:	15. 06. 2019 19:20

#	Modifying user name:	WinNT
#	Modification time:	15. 06. 2019 19:20

#	Program:	/corina/corina34_cracker 3.40 0067  02.08.2006

@<TRIPOS>MOLECULE
ASD01418005
  48   49    0    0    0
SMALL
NO_CHARGES


@<TRIPOS>ATOM
   1 C1            -0.3908    -2.5931    -0.7552 C.3     
   2 C2            -1.4239    -1.8000     0.0477 C.3     
   3 C3            -1.1105    -1.9193     1.5405 C.3     
   4 C4            -2.2197    -1.2844     2.3390 C.2     
   5 N5            -1.3747    -0.3872    -0.3515 N.4     
   6 O6            -3.2231    -0.8950     1.7799 O.2     
   7 C7            -1.7269    -0.2674    -1.7727 C.3     
   8 C8            -1.5443     1.1834    -2.2228 C.3     
   9 C9            -0.0650     1.5631    -2.1326 C.3     
  10 C10           -3.1634    -0.6778    -1.9706 C.ar    
  11 C11           -3.5596    -1.2533    -3.1648 C.ar    
  12 C12           -4.8837    -1.6315    -3.3457 C.ar    
  13 C13           -5.8051    -1.4307    -2.3273 C.ar    
  14 C14           -5.4028    -0.8552    -1.1362 C.ar    
  15 C15           -4.0829    -0.4843    -0.9566 C.ar    
  16 O16           -5.2766    -2.1968    -4.5181 O.3     
  17 C17           -5.2105    -3.5496    -4.6277 C.ar    
  18 C18           -5.6008    -4.1713    -5.8052 C.ar    
  19 C19           -5.5322    -5.5467    -5.9142 C.ar    
  20 C20           -5.0750    -6.3037    -4.8513 C.ar    
  21 C21           -4.6859    -5.6867    -3.6767 C.ar    
  22 C22           -4.7471    -4.3112    -3.5644 C.ar    
  23 F23           -2.6598    -1.4466    -4.1538 F       
  24 Cl24          -7.4613    -1.9013    -2.5490 Cl      
  25 N25           -2.0968    -1.1494     3.6743 N.am    
  26 H26           -0.3510    -3.6174    -0.3845 H       
  27 H27           -0.6747    -2.5984    -1.8076 H       
  28 H28            0.5891    -2.1287    -0.6455 H       
  29 H29           -2.4195    -2.1983    -0.1475 H       
  30 H30           -1.0247    -2.9718     1.8108 H       
  31 H31           -0.1707    -1.4110     1.7562 H       
  32 H32           -2.0306     0.1421     0.2032 H       
  33 H33           -0.4433    -0.0283    -0.2045 H       
  34 H34           -1.0792    -0.9153    -2.3633 H       
  35 H35           -1.8846     1.2898    -3.2529 H       
  36 H36           -2.1280     1.8401    -1.5777 H       
  37 H37            0.2940     1.3875    -1.1185 H       
  38 H38            0.5094     0.9553    -2.8317 H       
  39 H39            0.0556     2.6170    -2.3834 H       
  40 H40           -6.1196    -0.6988    -0.3437 H       
  41 H41           -3.7706    -0.0387    -0.0237 H       
  42 H42           -5.9583    -3.5805    -6.6356 H       
  43 H43           -5.8362    -6.0311    -6.8303 H       
  44 H44           -5.0221    -7.3789    -4.9385 H       
  45 H45           -4.3298    -6.2803    -2.8477 H       
  46 H46           -4.4385    -3.8294    -2.6485 H       
  47 H47           -1.2943    -1.4609     4.1214 H       
  48 H48           -2.8108    -0.7408     4.1882 H       
@<TRIPOS>BOND
   1    1    2 1
   2    1   26 1
   3    1   27 1
   4    1   28 1
   5    2    3 1
   6    2    5 1
   7    2   29 1
   8    3    4 1
   9    3   30 1
  10    3   31 1
  11    4    6 2
  12    4   25 am
  13    5    7 1
  14    5   32 1
  15    5   33 1
  16    7    8 1
  17    7   10 1
  18    7   34 1
  19    8    9 1
  20    8   35 1
  21    8   36 1
  22    9   37 1
  23    9   38 1
  24    9   39 1
  25   10   11 ar
  26   10   15 ar
  27   11   12 ar
  28   11   23 1
  29   12   13 ar
  30   12   16 1
  31   13   14 ar
  32   13   24 1
  33   14   15 ar
  34   14   40 1
  35   15   41 1
  36   16   17 1
  37   17   18 ar
  38   17   22 ar
  39   18   19 ar
  40   18   42 1
  41   19   20 ar
  42   19   43 1
  43   20   21 ar
  44   20   44 1
  45   21   22 ar
  46   21   45 1
  47   22   46 1
  48   25   47 1
  49   25   48 1

#	End of record

