#	Name: ASD00170144
#	Creating user name:	WinNT
#	Creation time:	15. 06. 2019 18:31

#	Modifying user name:	WinNT
#	Modification time:	15. 06. 2019 18:31

#	Program:	/corina/corina34_cracker 3.40 0067  02.08.2006

@<TRIPOS>MOLECULE
ASD00170144
  44   49    0    0    0
SMALL
NO_CHARGES


@<TRIPOS>ATOM
   1 C1            -0.0182     1.4913     0.0102 C.2     
   2 C2             0.0021    -0.0041     0.0020 C.ar    
   3 C3             1.3192    -0.4523    -0.0130 C.ar    
   4 C4             2.1960     0.7740    -0.0148 C.3     
   5 C5             1.2474     1.9527     0.0006 C.2     
   6 S6             1.2222     3.7155     0.0103 S.3     
   7 C7            -0.5366     3.6918     0.0270 C.2     
   8 N8            -0.9504     2.4700     0.0195 N.2     
   9 C9            -1.0457    -0.9281     0.0075 C.ar    
  10 C10           -0.7711    -2.2772    -0.0020 C.ar    
  11 C11            0.5514    -2.7234    -0.0166 C.ar    
  12 C12            1.5981    -1.7988    -0.0233 C.ar    
  13 N13           -1.3514     4.8121     0.0415 N.pl3   
  14 C14            0.8442    -4.1750    -0.0259 C.ar    
  15 C15            0.2270    -5.0275     0.9075 C.ar    
  16 C16            0.5125    -6.3929     0.8868 C.ar    
  17 C17            1.3950    -6.8983    -0.0450 C.ar    
  18 C18            2.0024    -6.0581    -0.9638 C.ar    
  19 C19            1.7280    -4.7055    -0.9624 C.ar    
  20 C20           -0.7161    -4.4808     1.9025 C.2     
  21 C21           -1.9541    -4.9720     2.1548 C.2     
  22 C22           -2.5206    -4.1244     3.2061 C.ar    
  23 C23           -1.5312    -3.1675     3.4968 C.ar    
  24 O24           -0.4731    -3.4221     2.7005 O.3     
  25 C25           -3.7361    -4.1052     3.8914 C.ar    
  26 C26           -3.9608    -3.1525     4.8462 C.ar    
  27 C27           -2.9888    -2.2065     5.1370 C.ar    
  28 C28           -1.7812    -2.2093     4.4704 C.ar    
  29 H29            2.8274     0.7869     0.8736 H       
  30 H30            2.8103     0.7965    -0.9148 H       
  31 H31           -2.0695    -0.5847     0.0195 H       
  32 H32           -1.5809    -2.9918     0.0022 H       
  33 H33            2.6227    -2.1401    -0.0345 H       
  34 H34           -0.9574     5.6984     0.0430 H       
  35 H35           -2.3160     4.7101     0.0501 H       
  36 H36            0.0429    -7.0538     1.6003 H       
  37 H37            1.6141    -7.9558    -0.0582 H       
  38 H38            2.6920    -6.4648    -1.6886 H       
  39 H39            2.2056    -4.0570    -1.6819 H       
  40 H40           -2.4271    -5.8173     1.6770 H       
  41 H41           -4.4961    -4.8393     3.6683 H       
  42 H42           -4.9011    -3.1362     5.3771 H       
  43 H43           -3.1795    -1.4598     5.8935 H       
  44 H44           -1.0318    -1.4679     4.7051 H       
@<TRIPOS>BOND
   1    1    2 1
   2    1    5 2
   3    1    8 1
   4    2    3 ar
   5    2    9 ar
   6    3    4 1
   7    3   12 ar
   8    4    5 1
   9    4   29 1
  10    4   30 1
  11    5    6 1
  12    6    7 1
  13    7    8 2
  14    7   13 1
  15    9   10 ar
  16    9   31 1
  17   10   11 ar
  18   10   32 1
  19   11   12 ar
  20   11   14 1
  21   12   33 1
  22   13   34 1
  23   13   35 1
  24   14   15 ar
  25   14   19 ar
  26   15   16 ar
  27   15   20 1
  28   16   17 ar
  29   16   36 1
  30   17   18 ar
  31   17   37 1
  32   18   19 ar
  33   18   38 1
  34   19   39 1
  35   20   21 2
  36   20   24 1
  37   21   22 1
  38   21   40 1
  39   22   23 ar
  40   22   25 ar
  41   23   24 1
  42   23   28 ar
  43   25   26 ar
  44   25   41 1
  45   26   27 ar
  46   26   42 1
  47   27   28 ar
  48   27   43 1
  49   28   44 1

#	End of record

