#	Name: ASD07931720
#	Creating user name:	WinNT
#	Creation time:	15. 06. 2019 21:13

#	Modifying user name:	WinNT
#	Modification time:	15. 06. 2019 21:13

#	Program:	/corina/corina34_cracker 3.40 0067  02.08.2006

@<TRIPOS>MOLECULE
ASD07931720
  57   61    0    0    0
SMALL
NO_CHARGES


@<TRIPOS>ATOM
   1 C1            -0.0165     1.3638     0.0095 C.2     
   2 C2             0.0021    -0.0041     0.0020 C.2     
   3 C3             1.2948    -0.6930    -0.0137 C.2     
   4 N4             2.4269     0.0320    -0.0184 N.am    
   5 C5             2.3819     1.4078    -0.0128 C.2     
   6 C6             1.1929     2.0698     0.0018 C.2     
   7 C7             3.7400    -0.6270    -0.0278 C.3     
   8 C8             4.6598     0.1584    -0.9746 C.3     
   9 N9             4.7714     1.5376    -0.4790 N.am    
  10 C10            3.6569     2.1587    -0.0242 C.2     
  11 C11            6.0637     2.2276    -0.4769 C.3     
  12 O12            1.3435    -1.9113    -0.0219 O.2     
  13 N13           -1.1914    -0.7315     0.0096 N.pl3   
  14 C14           -2.1398    -0.7526    -0.9807 C.2     
  15 C15           -1.6287    -1.5563     0.9973 C.2     
  16 N16           -2.7818    -2.0540     0.6427 N.2     
  17 C17           -3.1190    -1.5782    -0.5654 C.2     
  18 C18           -4.3767    -1.9103    -1.3263 C.3     
  19 O19            3.7030     3.3092     0.3661 O.2     
  20 C20            6.2496     2.9662    -1.8038 C.3     
  21 C21            7.6576     3.5979    -1.8750 C.3     
  22 C22            7.4292     4.9435    -2.5993 C.3     
  23 C23            5.9103     4.9656    -2.8800 C.3     
  24 O24            5.3390     4.0840    -1.8889 O.3     
  25 C25            5.3668     6.3616    -2.7159 C.ar    
  26 C26            5.1411     7.1502    -3.8284 C.ar    
  27 C27            5.0889     6.8509    -1.4534 C.ar    
  28 C28            4.5902     8.1315    -1.3014 C.ar    
  29 C29            4.3686     8.9235    -2.4117 C.ar    
  30 C30            4.6418     8.4326    -3.6775 C.ar    
  31 F31            4.4260     9.2062    -4.7638 F       
  32 C32            3.8242    10.3189    -2.2458 C.3     
  33 F33            3.6247    10.5830    -0.8865 F       
  34 F34            4.7360    11.2408    -2.7710 F       
  35 F35            2.6064    10.4283    -2.9257 F       
  36 H36           -0.9567     1.8952     0.0169 H       
  37 H37            1.1819     3.1497     0.0071 H       
  38 H38            4.1596    -0.6261     0.9781 H       
  39 H39            3.6349    -1.6522    -0.3828 H       
  40 H40            5.6464    -0.3047    -0.9942 H       
  41 H41            4.2344     0.1631    -1.9781 H       
  42 H42            6.0920     2.9435     0.3446 H       
  43 H43            6.8645     1.4988    -0.3514 H       
  44 H44           -2.1074    -0.2110    -1.9146 H       
  45 H45           -1.1089    -1.7651     1.9207 H       
  46 H46           -5.1590    -1.1982    -1.0636 H       
  47 H47           -4.1791    -1.8545    -2.3968 H       
  48 H48           -4.7016    -2.9183    -1.0689 H       
  49 H49            6.0964     2.2853    -2.6410 H       
  50 H50            8.0520     3.7657    -0.8728 H       
  51 H51            8.3319     2.9639    -2.4507 H       
  52 H52            7.7108     5.7765    -1.9552 H       
  53 H53            7.9907     4.9747    -3.5330 H       
  54 H54            5.7044     4.5928    -3.8833 H       
  55 H55            5.3545     6.7663    -4.8151 H       
  56 H56            5.2611     6.2322    -0.5851 H       
  57 H57            4.3734     8.5127    -0.3144 H       
@<TRIPOS>BOND
   1    1    2 2
   2    1    6 1
   3    1   36 1
   4    2    3 1
   5    2   13 1
   6    3    4 am
   7    3   12 2
   8    4    5 1
   9    4    7 1
  10    5    6 2
  11    5   10 1
  12    6   37 1
  13    7    8 1
  14    7   38 1
  15    7   39 1
  16    8    9 1
  17    8   40 1
  18    8   41 1
  19    9   10 am
  20    9   11 1
  21   10   19 2
  22   11   20 1
  23   11   42 1
  24   11   43 1
  25   13   14 1
  26   13   15 1
  27   14   17 2
  28   14   44 1
  29   15   16 2
  30   15   45 1
  31   16   17 1
  32   17   18 1
  33   18   46 1
  34   18   47 1
  35   18   48 1
  36   20   21 1
  37   20   24 1
  38   20   49 1
  39   21   22 1
  40   21   50 1
  41   21   51 1
  42   22   23 1
  43   22   52 1
  44   22   53 1
  45   23   24 1
  46   23   25 1
  47   23   54 1
  48   25   26 ar
  49   25   27 ar
  50   26   30 ar
  51   26   55 1
  52   27   28 ar
  53   27   56 1
  54   28   29 ar
  55   28   57 1
  56   29   30 ar
  57   29   32 1
  58   30   31 1
  59   32   33 1
  60   32   34 1
  61   32   35 1

#	End of record

