#	Name: ASD01230855
#	Creating user name:	WinNT
#	Creation time:	15. 06. 2019 19:15

#	Modifying user name:	WinNT
#	Modification time:	15. 06. 2019 19:15

#	Program:	/corina/corina34_cracker 3.40 0067  02.08.2006

@<TRIPOS>MOLECULE
ASD01230855
  52   55    0    0    0
SMALL
NO_CHARGES


@<TRIPOS>ATOM
   1 C1             0.3064     0.8558    -0.4737 C.3     
   2 C2             0.4024    -0.5326     0.1646 C.3     
   3 C3            -0.9290    -1.2667     0.0902 C.3     
   4 C4            -1.7744    -0.8313    -1.0985 C.3     
   5 N5            -0.9372    -0.3523    -2.2007 N.pl3   
   6 C6            -0.0416     0.6517    -1.9382 C.2     
   7 C7            -1.0355    -0.9565    -3.5270 C.3     
   8 C8            -1.2414     0.1403    -4.5730 C.3     
   9 S9             0.0864     1.3649    -4.4284 S.o2    
  10 N10            0.4628     1.4155    -2.8258 N.am    
  11 C11            1.6290     1.5683    -0.3546 C.ar    
  12 O12            1.2721     0.8862    -5.0483 O.2     
  13 O13           -0.4073     2.6672    -4.7102 O.2     
  14 C14            1.7076     2.7681     0.3282 C.ar    
  15 C15            2.9186     3.4234     0.4384 C.ar    
  16 C16            4.0569     2.8764    -0.1364 C.ar    
  17 C17            3.9754     1.6720    -0.8207 C.ar    
  18 C18            2.7629     1.0182    -0.9235 C.ar    
  19 O19            5.2493     3.5192    -0.0298 O.3     
  20 C20            5.5929     4.3940    -1.0123 C.ar    
  21 C21            4.6911     4.6899    -2.0244 C.ar    
  22 C22            5.0402     5.5784    -3.0223 C.ar    
  23 C23            6.2926     6.1751    -3.0129 C.ar    
  24 C24            7.1941     5.8794    -2.0013 C.ar    
  25 C25            6.8429     4.9950    -0.9999 C.ar    
  26 O26            6.6364     7.0496    -3.9957 O.3     
  27 C27            5.6591     7.3072    -5.0059 C.3     
  28 C28            7.8226     4.6736     0.0993 C.3     
  29 H29           -0.4739     1.4372     0.0173 H       
  30 H30            1.1609    -1.1147    -0.3588 H       
  31 H31            0.6935    -0.4260     1.2096 H       
  32 H32           -0.7370    -2.3368     0.0123 H       
  33 H33           -1.4870    -1.0773     1.0072 H       
  34 H34           -2.3682    -1.6778    -1.4433 H       
  35 H35           -2.4446    -0.0307    -0.7855 H       
  36 H36           -0.1171    -1.5008    -3.7472 H       
  37 H37           -1.8803    -1.6448    -3.5510 H       
  38 H38           -1.2231    -0.2999    -5.5700 H       
  39 H39           -2.2032     0.6254    -4.4068 H       
  40 H40            0.8213     3.1934     0.7754 H       
  41 H41            2.9793     4.3609     0.9712 H       
  42 H42            4.8598     1.2443    -1.2694 H       
  43 H43            2.6989     0.0808    -1.4560 H       
  44 H44            3.7162     4.2252    -2.0319 H       
  45 H45            4.3384     5.8085    -3.8102 H       
  46 H46            8.1692     6.3437    -1.9943 H       
  47 H47            6.0603     8.0200    -5.7263 H       
  48 H48            5.4097     6.3767    -5.5159 H       
  49 H49            4.7618     7.7213    -4.5462 H       
  50 H50            7.6881     5.3754     0.9224 H       
  51 H51            7.6488     3.6582     0.4554 H       
  52 H52            8.8393     4.7549    -0.2851 H       
@<TRIPOS>BOND
   1    1    2 1
   2    1   11 1
   3    1    6 1
   4    1   29 1
   5    2    3 1
   6    2   30 1
   7    2   31 1
   8    3    4 1
   9    3   32 1
  10    3   33 1
  11    4    5 1
  12    4   34 1
  13    4   35 1
  14    5    6 1
  15    5    7 1
  16    6   10 2
  17    7    8 1
  18    7   36 1
  19    7   37 1
  20    8    9 1
  21    8   38 1
  22    8   39 1
  23    9   10 am
  24    9   12 2
  25    9   13 2
  26   11   14 ar
  27   11   18 ar
  28   14   15 ar
  29   14   40 1
  30   15   16 ar
  31   15   41 1
  32   16   17 ar
  33   16   19 1
  34   17   18 ar
  35   17   42 1
  36   18   43 1
  37   19   20 1
  38   20   21 ar
  39   20   25 ar
  40   21   22 ar
  41   21   44 1
  42   22   23 ar
  43   22   45 1
  44   23   24 ar
  45   23   26 1
  46   24   25 ar
  47   24   46 1
  48   25   28 1
  49   26   27 1
  50   27   47 1
  51   27   48 1
  52   27   49 1
  53   28   50 1
  54   28   51 1
  55   28   52 1

#	End of record

