#	Name: ASD01190179
#	Creating user name:	WinNT
#	Creation time:	15. 06. 2019 19:07

#	Modifying user name:	WinNT
#	Modification time:	15. 06. 2019 19:07

#	Program:	/corina/corina34_cracker 3.40 0067  02.08.2006

@<TRIPOS>MOLECULE
ASD01190179
  52   56    0    0    0
SMALL
NO_CHARGES


@<TRIPOS>ATOM
   1 C1            -0.9555    -1.2587     0.1759 C.2     
   2 C2             0.2028    -0.4646     0.7224 C.3     
   3 O3            -0.8907    -1.7389    -0.9360 O.2     
   4 N4            -2.0613    -1.4401     0.9248 N.am    
   5 C5             0.5750     1.5554    -1.7280 C.ar    
   6 C6             1.3610     0.4906    -1.3024 C.ar    
   7 C7             2.5350     0.1915    -2.0230 C.ar    
   8 C8             2.8590     0.9776    -3.1339 C.ar    
   9 C9             2.0257     2.0040    -3.4774 C.ar    
  10 N10            0.9294     2.2624    -2.7826 N.ar    
  11 N11            1.2764    -0.4185    -0.2733 N.pl3   
  12 C12            3.1409    -0.9553    -1.3527 C.2     
  13 C13            2.3430    -1.2715    -0.3176 C.2     
  14 C14            4.4174    -1.6527    -1.7466 C.3     
  15 C15            4.6953    -2.7975    -0.7704 C.3     
  16 O16            4.2854    -2.1763    -3.0697 O.3     
  17 N17            8.7450     1.9351    -1.8432 N.pl3   
  18 N18            9.2331     1.6500    -3.1227 N.2     
  19 C19            8.5025     0.7297    -3.6857 C.2     
  20 C20            7.4507     0.3567    -2.7452 C.ar    
  21 C21            6.3904    -0.5556    -2.7835 C.ar    
  22 C22            5.5594    -0.6702    -1.7068 C.ar    
  23 C23            5.7562     0.1108    -0.5745 C.ar    
  24 C24            6.7842     1.0086    -0.5137 C.ar    
  25 C25            7.6483     1.1472    -1.5964 C.ar    
  26 C26            9.2911     2.8700    -0.9543 C.ar    
  27 C27           10.6650     3.0670    -0.9097 C.ar    
  28 C28           11.2014     3.9891    -0.0327 C.ar    
  29 C29           10.3701     4.7171     0.8020 C.ar    
  30 C30            8.9997     4.5223     0.7591 C.ar    
  31 C31            8.4589     3.6053    -0.1205 C.ar    
  32 F32           10.8968     5.6184     1.6596 F       
  33 F33            3.6351    -3.7096    -0.8074 F       
  34 F34            5.8803    -3.4449    -1.1361 F       
  35 F35            4.8245    -2.2849     0.5248 F       
  36 Cl36          -0.8822     1.9511    -0.8715 Cl      
  37 H37           -0.1266     0.5495     0.9489 H       
  38 H38            0.5712    -0.9386     1.6322 H       
  39 H39           -2.1116    -1.0594     1.8155 H       
  40 H40           -2.8069    -1.9512     0.5730 H       
  41 H41            3.7510     0.7770    -3.7088 H       
  42 H42            2.2667     2.6173    -4.3331 H       
  43 H43            2.5195    -2.0797     0.3767 H       
  44 H44            4.1078    -1.5048    -3.7425 H       
  45 H45            8.6490     0.3167    -4.6728 H       
  46 H46            6.2303    -1.1656    -3.6602 H       
  47 H47            5.0882     0.0070     0.2678 H       
  48 H48            6.9259     1.6099     0.3723 H       
  49 H49           11.3137     2.4991    -1.5603 H       
  50 H50           12.2699     4.1422     0.0025 H       
  51 H51            8.3532     5.0908     1.4112 H       
  52 H52            7.3897     3.4571    -0.1570 H       
@<TRIPOS>BOND
   1    1    2 1
   2    1    3 2
   3    1    4 am
   4    2   11 1
   5    2   37 1
   6    2   38 1
   7    4   39 1
   8    4   40 1
   9    5    6 ar
  10    5   10 ar
  11    5   36 1
  12    6    7 ar
  13    6   11 1
  14    7    8 ar
  15    7   12 1
  16    8    9 ar
  17    8   41 1
  18    9   10 ar
  19    9   42 1
  20   11   13 1
  21   12   13 2
  22   12   14 1
  23   13   43 1
  24   14   15 1
  25   14   16 1
  26   14   22 1
  27   15   33 1
  28   15   34 1
  29   15   35 1
  30   16   44 1
  31   17   18 1
  32   17   25 1
  33   17   26 1
  34   18   19 2
  35   19   20 1
  36   19   45 1
  37   20   21 ar
  38   20   25 ar
  39   21   22 ar
  40   21   46 1
  41   22   23 ar
  42   23   24 ar
  43   23   47 1
  44   24   25 ar
  45   24   48 1
  46   26   27 ar
  47   26   31 ar
  48   27   28 ar
  49   27   49 1
  50   28   29 ar
  51   28   50 1
  52   29   30 ar
  53   29   32 1
  54   30   31 ar
  55   30   51 1
  56   31   52 1

#	End of record

