#	Name: ASD02560002
#	Creating user name:	WinNT
#	Creation time:	15. 06. 2019 20:24

#	Modifying user name:	WinNT
#	Modification time:	15. 06. 2019 20:24

#	Program:	/corina/corina34_cracker 3.40 0067  02.08.2006

@<TRIPOS>MOLECULE
ASD02560002
  46   48    0    0    0
SMALL
NO_CHARGES


@<TRIPOS>ATOM
   1 N1             0.2757     1.3805     0.1851 N.am    
   2 C2             0.1289     0.0480     0.0715 C.2     
   3 N3             1.1930    -0.7522    -0.1244 N.am    
   4 C4             2.4572    -0.2182    -0.2126 C.2     
   5 C5             2.6236     1.1350    -0.0992 C.2     
   6 C6             1.4964     1.9454     0.1048 C.2     
   7 O7             1.6208     3.1539     0.2084 O.2     
   8 O8            -0.9818    -0.4407     0.1475 O.2     
   9 C9             3.9979     1.7464    -0.1915 C.3     
  10 C10            4.2562     2.2060    -1.6278 C.3     
  11 S11            3.8497    -1.2670    -0.4686 S.3     
  12 C12            3.9101    -2.0819     1.0924 C.ar    
  13 C13            1.0036    -2.2000    -0.2440 C.3     
  14 O14            0.4771    -2.5064    -1.5367 O.3     
  15 C15            1.4508    -2.4792    -2.5822 C.3     
  16 C16            0.7890    -2.8152    -3.8938 C.ar    
  17 C17            0.2574    -1.8082    -4.6776 C.ar    
  18 C18           -0.3497    -2.1164    -5.8807 C.ar    
  19 C19           -0.4248    -3.4314    -6.3002 C.ar    
  20 C20            0.1076    -4.4382    -5.5168 C.ar    
  21 C21            0.7186    -4.1297    -4.3158 C.ar    
  22 C22            4.8080    -3.1213     1.3009 C.ar    
  23 C23            4.8531    -3.7575     2.5257 C.ar    
  24 C24            4.0053    -3.3613     3.5441 C.ar    
  25 C25            3.1103    -2.3270     3.3399 C.ar    
  26 C26            3.0639    -1.6827     2.1194 C.ar    
  27 H27           -0.5048     1.9400     0.3220 H       
  28 H28            4.0608     2.6021     0.4807 H       
  29 H29            4.7451     1.0054     0.0927 H       
  30 H30            5.2502     2.6483    -1.6946 H       
  31 H31            4.1933     1.3503    -2.3000 H       
  32 H32            3.5090     2.9470    -1.9121 H       
  33 H33            1.9613    -2.7037    -0.1131 H       
  34 H34            0.3067    -2.5398     0.5221 H       
  35 H35            1.8919    -1.4843    -2.6422 H       
  36 H36            2.2310    -3.2105    -2.3712 H       
  37 H37            0.3160    -0.7808    -4.3499 H       
  38 H38           -0.7657    -1.3297    -6.4927 H       
  39 H39           -0.8998    -3.6722    -7.2397 H       
  40 H40            0.0487    -5.4657    -5.8443 H       
  41 H41            1.1345    -4.9163    -3.7037 H       
  42 H42            5.4699    -3.4317     0.5059 H       
  43 H43            5.5509    -4.5656     2.6885 H       
  44 H44            4.0421    -3.8610     4.5008 H       
  45 H45            2.4494    -2.0203     4.1372 H       
  46 H46            2.3647    -0.8751     1.9606 H       
@<TRIPOS>BOND
   1    1    2 am
   2    1    6 am
   3    1   27 1
   4    2    3 am
   5    2    8 2
   6    3    4 1
   7    3   13 1
   8    4    5 2
   9    4   11 1
  10    5    6 1
  11    5    9 1
  12    6    7 2
  13    9   10 1
  14    9   28 1
  15    9   29 1
  16   10   30 1
  17   10   31 1
  18   10   32 1
  19   11   12 1
  20   12   22 ar
  21   12   26 ar
  22   13   14 1
  23   13   33 1
  24   13   34 1
  25   14   15 1
  26   15   16 1
  27   15   35 1
  28   15   36 1
  29   16   17 ar
  30   16   21 ar
  31   17   18 ar
  32   17   37 1
  33   18   19 ar
  34   18   38 1
  35   19   20 ar
  36   19   39 1
  37   20   21 ar
  38   20   40 1
  39   21   41 1
  40   22   23 ar
  41   22   42 1
  42   23   24 ar
  43   23   43 1
  44   24   25 ar
  45   24   44 1
  46   25   26 ar
  47   25   45 1
  48   26   46 1

#	End of record

