#	Name: ASD03330488
#	Creating user name:	WinNT
#	Creation time:	15. 06. 2019 20:37

#	Modifying user name:	WinNT
#	Modification time:	15. 06. 2019 20:37

#	Program:	/corina/corina34_cracker 3.40 0067  02.08.2006

@<TRIPOS>MOLECULE
ASD03330488
  54   56    0    0    0
SMALL
NO_CHARGES


@<TRIPOS>ATOM
   1 C1            -0.1675     1.6644    -0.3125 C.3     
   2 N2            -0.1935     0.1979    -0.2223 N.3     
   3 C3             0.3557    -0.4211    -1.4423 C.3     
   4 C4             1.6817     0.2307    -1.7378 C.2     
   5 N5             2.0898     1.4043    -1.1730 N.pl3   
   6 C6             1.2793     2.1661    -0.2188 C.3     
   7 C7             2.6734    -0.1816    -2.5654 C.2     
   8 N8             3.6705     0.7309    -2.4988 N.2     
   9 C9             3.3256     1.6853    -1.6632 C.2     
  10 C10            4.1450     2.8659    -1.3147 C.ar    
  11 C11            2.6669    -1.4036    -3.3887 C.2     
  12 O12            1.7066    -2.1496    -3.3622 O.2     
  13 C13            3.7185    -2.9098    -4.9895 C.3     
  14 N14            3.7250    -1.6948    -4.1710 N.am    
  15 C15           -1.5527    -0.2889     0.0489 C.3     
  16 C16            4.2005    -4.0937    -4.1487 C.3     
  17 C17            4.6369    -2.7251    -6.1700 C.2     
  18 O18            5.2377    -1.6814    -6.3135 O.2     
  19 N19            4.7906    -3.7198    -7.0663 N.am    
  20 C20            5.6834    -3.5403    -8.2139 C.3     
  21 C21            4.7635     3.6124    -2.3210 C.ar    
  22 C22            5.5280     4.7148    -1.9877 C.ar    
  23 C23            5.6805     5.0782    -0.6612 C.ar    
  24 C24            5.0695     4.3409     0.3398 C.ar    
  25 C25            4.2991     3.2426     0.0201 C.ar    
  26 C26            5.5702    -3.7694    -3.5491 C.3     
  27 C27            3.2004    -4.3596    -3.0217 C.3     
  28 Cl28           6.6420     6.4638    -0.2497 Cl      
  29 F29            4.6151     3.2575    -3.6161 F       
  30 H30           -0.5983     1.9766    -1.2638 H       
  31 H31           -0.7514     2.0880     0.5047 H       
  32 H32            0.4981    -1.4897    -1.2813 H       
  33 H33           -0.3276    -0.2612    -2.2763 H       
  34 H34            1.3178     3.2266    -0.4678 H       
  35 H35            1.6578     2.0109     0.7915 H       
  36 H36            2.7061    -3.1039    -5.3437 H       
  37 H37            4.4909    -1.0999    -4.1921 H       
  38 H38           -2.2316     0.0824    -0.7188 H       
  39 H39           -1.5566    -1.3789     0.0411 H       
  40 H40           -1.8785     0.0686     1.0257 H       
  41 H41            4.2804    -4.9789    -4.7798 H       
  42 H42            4.3101    -4.5546    -6.9516 H       
  43 H43            5.6785    -4.4443    -8.8229 H       
  44 H44            5.3400    -2.6969    -8.8129 H       
  45 H45            6.6958    -3.3462    -7.8597 H       
  46 H46            6.0073     5.2931    -2.7637 H       
  47 H47            5.1929     4.6298     1.3731 H       
  48 H48            3.8238     2.6693     0.8022 H       
  49 H49            5.4902    -2.8843    -2.9180 H       
  50 H50            5.9135    -4.6129    -2.9501 H       
  51 H51            6.2827    -3.5801    -4.3520 H       
  52 H52            3.1204    -3.4745    -2.3907 H       
  53 H53            2.2246    -4.5906    -3.4489 H       
  54 H54            3.5437    -5.2030    -2.4228 H       
@<TRIPOS>BOND
   1    1    2 1
   2    1    6 1
   3    1   30 1
   4    1   31 1
   5    2    3 1
   6    2   15 1
   7    3    4 1
   8    3   32 1
   9    3   33 1
  10    4    5 1
  11    4    7 2
  12    5    6 1
  13    5    9 1
  14    6   34 1
  15    6   35 1
  16    7    8 1
  17    7   11 1
  18    8    9 2
  19    9   10 1
  20   10   21 ar
  21   10   25 ar
  22   11   12 2
  23   11   14 am
  24   13   14 1
  25   13   16 1
  26   13   17 1
  27   13   36 1
  28   14   37 1
  29   15   38 1
  30   15   39 1
  31   15   40 1
  32   16   26 1
  33   16   27 1
  34   16   41 1
  35   17   18 2
  36   17   19 am
  37   19   20 1
  38   19   42 1
  39   20   43 1
  40   20   44 1
  41   20   45 1
  42   21   22 ar
  43   21   29 1
  44   22   23 ar
  45   22   46 1
  46   23   24 ar
  47   23   28 1
  48   24   25 ar
  49   24   47 1
  50   25   48 1
  51   26   49 1
  52   26   50 1
  53   26   51 1
  54   27   52 1
  55   27   53 1
  56   27   54 1

#	End of record

