#	Name: ASD01901365
#	Creating user name:	WinNT
#	Creation time:	15. 06. 2019 19:53

#	Modifying user name:	WinNT
#	Modification time:	15. 06. 2019 19:53

#	Program:	/corina/corina34_cracker 3.40 0067  02.08.2006

@<TRIPOS>MOLECULE
ASD01901365
  41   44    0    0    0
SMALL
NO_CHARGES


@<TRIPOS>ATOM
   1 C1            -0.0168     1.3893     0.0097 C.ar    
   2 C2             1.1703     2.0930     0.0021 C.ar    
   3 C3             2.3775     1.4176    -0.0130 C.ar    
   4 C4             2.4021     0.0348    -0.0211 C.ar    
   5 C5             1.2206    -0.6790    -0.0137 C.ar    
   6 C6             0.0021    -0.0041     0.0020 C.ar    
   7 C7            -1.2714    -0.7662     0.0101 C.2     
   8 N8            -3.1794    -1.5363    -1.1478 N.2     
   9 C9            -2.0557    -0.8622    -1.1600 C.2     
  10 C10           -1.6987    -1.3899     1.1489 C.2     
  11 N11           -2.8729    -2.0820     1.1218 N.pl3   
  12 C12           -3.6089    -2.1474    -0.0334 C.2     
  13 C13           -3.5506    -2.7948     2.0740 C.2     
  14 C14           -4.6694    -3.2734     1.4896 C.2     
  15 N15           -4.6904    -2.8722     0.2151 N.2     
  16 C16           -5.7200    -4.1187     2.1625 C.3     
  17 O17           -5.3519    -4.3404     3.5254 O.3     
  18 C18           -6.1989    -5.0904     4.2792 C.ar    
  19 C19           -7.3569    -5.6065     3.7166 C.ar    
  20 C20           -5.9030    -5.3449     5.6103 C.ar    
  21 C21           -6.7643    -6.1076     6.3751 C.ar    
  22 C22           -7.9223    -6.6181     5.8134 C.ar    
  23 C23           -8.2165    -6.3688     4.4837 C.ar    
  24 F24           -8.7634    -7.3645     6.5623 F       
  25 C25           -1.3311     2.1263     0.0325 C.3     
  26 H26            1.1568     3.1729     0.0077 H       
  27 H27            3.3042     1.9722    -0.0189 H       
  28 H28            3.3474    -0.4874    -0.0337 H       
  29 H29            1.2409    -1.7588    -0.0204 H       
  30 H30           -1.7285    -0.3780    -2.0682 H       
  31 H31           -1.1149    -1.3355     2.0559 H       
  32 H32           -3.2474    -2.9457     3.0995 H       
  33 H33           -6.6798    -3.6036     2.1246 H       
  34 H34           -5.8007    -5.0760     1.6476 H       
  35 H35           -7.5866    -5.4122     2.6793 H       
  36 H36           -4.9994    -4.9474     6.0484 H       
  37 H37           -6.5342    -6.3059     7.4115 H       
  38 H38           -9.1182    -6.7708     4.0458 H       
  39 H39           -1.6332     2.2985     1.0655 H       
  40 H40           -1.2201     3.0830    -0.4779 H       
  41 H41           -2.0906     1.5304    -0.4737 H       
@<TRIPOS>BOND
   1    1    6 ar
   2    1    2 ar
   3    1   25 1
   4    2    3 ar
   5    2   26 1
   6    3    4 ar
   7    3   27 1
   8    4    5 ar
   9    4   28 1
  10    5    6 ar
  11    5   29 1
  12    6    7 1
  13    7   10 2
  14    7    9 1
  15    8    9 2
  16    8   12 1
  17    9   30 1
  18   10   11 1
  19   10   31 1
  20   11   13 1
  21   11   12 1
  22   12   15 2
  23   13   14 2
  24   13   32 1
  25   14   15 1
  26   14   16 1
  27   16   17 1
  28   16   33 1
  29   16   34 1
  30   17   18 1
  31   18   20 ar
  32   18   19 ar
  33   19   23 ar
  34   19   35 1
  35   20   21 ar
  36   20   36 1
  37   21   22 ar
  38   21   37 1
  39   22   23 ar
  40   22   24 1
  41   23   38 1
  42   25   39 1
  43   25   40 1
  44   25   41 1

#	End of record

