#	Name: ASD00451027
#	Creating user name:	WinNT
#	Creation time:	15. 06. 2019 18:36

#	Modifying user name:	WinNT
#	Modification time:	15. 06. 2019 18:36

#	Program:	/corina/corina34_cracker 3.40 0067  02.08.2006

@<TRIPOS>MOLECULE
ASD00451027
  74   80    0    0    0
SMALL
NO_CHARGES


@<TRIPOS>ATOM
   1 C1             0.8270     1.0785     1.1635 C.ar    
   2 C2             0.9562    -0.3017     1.1905 C.ar    
   3 N3             1.9360     1.8811     0.8758 N.am    
   4 C4            -0.4181     1.6669     1.4193 C.ar    
   5 C5            -0.1387    -1.0952     1.4742 C.ar    
   6 C6             2.9386     1.3977     0.1158 C.2     
   7 C7            -1.5191     0.8598     1.6994 C.ar    
   8 C8            -1.3741    -0.5170     1.7342 C.ar    
   9 O9             2.9122     0.2424    -0.2625 O.2     
  10 N10            3.9705     2.1950    -0.2250 N.am    
  11 O11           -2.4477    -1.3052     2.0069 O.3     
  12 C12            5.0594     1.6679    -0.9335 C.ar    
  13 C13           -2.5420    -1.8468     3.2486 C.ar    
  14 C14            5.8574     2.5045    -1.7131 C.ar    
  15 C15            5.3493     0.3142    -0.8565 C.ar    
  16 C16           -3.6577    -2.5919     3.6219 C.ar    
  17 C17           -1.5227    -1.6776     4.1830 C.ar    
  18 C18            6.9335     1.9767    -2.4112 C.ar    
  19 C19            6.4238    -0.2035    -1.5555 C.ar    
  20 N20           -4.8313    -2.9610     2.9676 N.am    
  21 C21           -3.7196    -3.1329     4.9064 C.ar    
  22 C22           -1.6549    -2.2433     5.4352 C.ar    
  23 C23            7.2121     0.6250    -2.3328 C.ar    
  24 C24           -5.5732    -3.6947     3.8192 C.2     
  25 N25           -4.9297    -3.8095     4.9958 N.am    
  26 N26           -2.7271    -2.9397     5.7618 N.ar    
  27 O27           -6.6625    -4.1743     3.5660 O.2     
  28 H28            1.9834     2.7854     1.2233 H       
  29 H29            3.9598     3.1335     0.0200 H       
  30 H30           -5.0723    -2.7292     2.0571 H       
  31 H31           -5.2538    -4.2897     5.7739 H       
  32 C32           -0.5637     3.1399     1.3927 C.ar    
  33 C33            6.7368    -1.6752    -1.4702 C.3     
  34 C34           -0.8856     3.8318     2.5471 C.ar    
  35 C35           -1.0236     5.2153     2.5300 C.ar    
  36 C36           -0.8469     5.9268     1.3821 C.ar    
  37 C37           -0.5190     5.2645     0.1863 C.ar    
  38 C38           -0.3694     3.8564     0.1871 C.ar    
  39 C39           -0.3304     5.9758    -1.0114 C.ar    
  40 C40           -0.0127     5.3031    -2.1514 C.ar    
  41 C41            0.1289     3.9172    -2.1499 C.ar    
  42 C42           -0.0410     3.1971    -1.0061 C.ar    
  43 F43            6.0501    -2.3574    -2.4802 F       
  44 F44            8.1132    -1.8691    -1.6290 F       
  45 F45            6.3378    -2.1652    -0.2220 F       
  46 N46            5.5732     3.8723    -1.7912 N.3     
  47 C47            4.2982     4.1067    -2.4846 C.3     
  48 C48            6.6665     4.6008    -2.4510 C.3     
  49 C49            3.9976     5.6079    -2.4950 C.3     
  50 C50            6.3422     6.0970    -2.4618 C.3     
  51 O51            5.0850     6.3024    -3.1118 O.3     
  52 H52            1.9144    -0.7575     0.9891 H       
  53 H53           -0.0334    -2.1699     1.4934 H       
  54 H54           -2.4817     1.3076     1.8978 H       
  55 H55            4.7359    -0.3358    -0.2501 H       
  56 H56           -0.6389    -1.1105     3.9305 H       
  57 H57            7.5535     2.6216    -3.0162 H       
  58 H58           -0.8658    -2.1137     6.1612 H       
  59 H59            8.0501     0.2155    -2.8772 H       
  60 H60           -1.0315     3.2915     3.4708 H       
  61 H61           -1.2757     5.7347     3.4427 H       
  62 H62           -0.9592     7.0009     1.3906 H       
  63 H63           -0.4373     7.0503    -1.0271 H       
  64 H64            0.1314     5.8518    -3.0704 H       
  65 H65            0.3811     3.4068    -3.0677 H       
  66 H66            0.0720     2.1231    -1.0192 H       
  67 H67            4.3689     3.7426    -3.5095 H       
  68 H68            3.4987     3.5791    -1.9645 H       
  69 H69            7.5959     4.4337    -1.9064 H       
  70 H70            6.7751     4.2445    -3.4754 H       
  71 H71            3.0823     5.7919    -3.0575 H       
  72 H72            3.8738     5.9614    -1.4714 H       
  73 H73            6.2866     6.4647    -1.4372 H       
  74 H74            7.1226     6.6347    -3.0003 H       
@<TRIPOS>BOND
   1    1    2 ar
   2    1    3 1
   3    1    4 ar
   4    2    5 ar
   5    2   52 1
   6    3   28 1
   7    3    6 am
   8    4   32 1
   9    4    7 ar
  10    5    8 ar
  11    5   53 1
  12    6    9 2
  13    6   10 am
  14    7    8 ar
  15    7   54 1
  16    8   11 1
  17   10   12 1
  18   10   29 1
  19   11   13 1
  20   12   14 ar
  21   12   15 ar
  22   13   16 ar
  23   13   17 ar
  24   14   18 ar
  25   14   46 1
  26   15   19 ar
  27   15   55 1
  28   16   20 1
  29   16   21 ar
  30   17   22 ar
  31   17   56 1
  32   18   23 ar
  33   18   57 1
  34   19   23 ar
  35   19   33 1
  36   20   30 1
  37   20   24 am
  38   21   26 ar
  39   21   25 1
  40   22   26 ar
  41   22   58 1
  42   23   59 1
  43   24   25 am
  44   24   27 2
  45   25   31 1
  46   32   34 ar
  47   32   38 ar
  48   33   43 1
  49   33   44 1
  50   33   45 1
  51   34   35 ar
  52   34   60 1
  53   35   36 ar
  54   35   61 1
  55   36   37 ar
  56   36   62 1
  57   37   38 ar
  58   37   39 ar
  59   38   42 ar
  60   39   40 ar
  61   39   63 1
  62   40   41 ar
  63   40   64 1
  64   41   42 ar
  65   41   65 1
  66   42   66 1
  67   46   47 1
  68   46   48 1
  69   47   49 1
  70   47   67 1
  71   47   68 1
  72   48   50 1
  73   48   69 1
  74   48   70 1
  75   49   51 1
  76   49   71 1
  77   49   72 1
  78   50   51 1
  79   50   73 1
  80   50   74 1

#	End of record

