#	Name: ASD01120117
#	Creating user name:	WinNT
#	Creation time:	15. 06. 2019 18:59

#	Modifying user name:	WinNT
#	Modification time:	15. 06. 2019 18:59

#	Program:	/corina/corina34_cracker 3.40 0067  02.08.2006

@<TRIPOS>MOLECULE
ASD01120117
  32   34    0    0    0
SMALL
NO_CHARGES


@<TRIPOS>ATOM
   1 C1            -0.0124     1.2598     0.7118 C.ar    
   2 C2            -1.1283     1.5648     1.4696 C.ar    
   3 C3            -2.3186     0.9010     1.2470 C.ar    
   4 C4            -2.3945    -0.0737     0.2601 C.ar    
   5 C5            -1.2718    -0.3773    -0.4997 C.ar    
   6 C6            -0.0858     0.2937    -0.2750 C.ar    
   7 N7            -3.5974    -0.7477     0.0324 N.pl3   
   8 C8            -4.8029    -0.0740     0.1526 C.2     
   9 N9            -5.9771    -0.6204     0.0792 N.2     
  10 C10           -7.0267     0.1875     0.2194 C.2     
  11 C11           -6.7312     1.4832     0.4218 C.2     
  12 S12           -4.9777     1.6550     0.4363 S.3     
  13 C13           -8.4233    -0.3075     0.1561 C.ar    
  14 C14           -8.6766    -1.6617    -0.0560 C.ar    
  15 C15           -9.9782    -2.1166    -0.1139 C.ar    
  16 C16          -11.0305    -1.2315     0.0375 C.ar    
  17 C17          -10.7851     0.1136     0.2478 C.ar    
  18 C18           -9.4875     0.5788     0.3143 C.ar    
  19 N19            1.2620     1.9735     0.9533 N.pl3   
  20 O20            1.3269     2.8281     1.8187 O.2     
  21 O21            2.2456     1.7059     0.2866 O.2     
  22 H22           -1.0686     2.3227     2.2367 H       
  23 H23           -3.1895     1.1392     1.8397 H       
  24 H24           -1.3272    -1.1348    -1.2675 H       
  25 H25            0.7873     0.0585    -0.8655 H       
  26 H26           -3.5888    -1.6870    -0.2098 H       
  27 H27           -7.4461     2.2815     0.5562 H       
  28 H28           -7.8559    -2.3535    -0.1751 H       
  29 H29          -10.1757    -3.1656    -0.2782 H       
  30 H30          -12.0475    -1.5919    -0.0089 H       
  31 H31          -11.6104     0.8002     0.3647 H       
  32 H32           -9.2970     1.6291     0.4788 H       
@<TRIPOS>BOND
   1    1    2 ar
   2    1   19 1
   3    1    6 ar
   4    2    3 ar
   5    2   22 1
   6    3    4 ar
   7    3   23 1
   8    4    5 ar
   9    4    7 1
  10    5    6 ar
  11    5   24 1
  12    6   25 1
  13    7    8 1
  14    7   26 1
  15    8    9 2
  16    8   12 1
  17    9   10 1
  18   10   11 2
  19   10   13 1
  20   11   12 1
  21   11   27 1
  22   13   14 ar
  23   13   18 ar
  24   14   15 ar
  25   14   28 1
  26   15   16 ar
  27   15   29 1
  28   16   17 ar
  29   16   30 1
  30   17   18 ar
  31   17   31 1
  32   18   32 1
  33   19   20 2
  34   19   21 2

#	End of record

