#	Name: ASD03082003
#	Creating user name:	WinNT
#	Creation time:	15. 06. 2019 20:27

#	Modifying user name:	WinNT
#	Modification time:	15. 06. 2019 20:27

#	Program:	/corina/corina34_cracker 3.40 0067  02.08.2006

@<TRIPOS>MOLECULE
ASD03082003
  42   43    0    0    0
SMALL
NO_CHARGES


@<TRIPOS>ATOM
   1 C1             0.3917     0.5419    -1.3049 C.ar    
   2 C2             0.5240    -0.7902    -0.9358 C.ar    
   3 C3             1.7191    -1.2667    -0.4402 C.ar    
   4 C4             2.8040    -0.4065    -0.3083 C.ar    
   5 C5             2.6644     0.9421    -0.6843 C.ar    
   6 C6             1.4452     1.4037    -1.1834 C.ar    
   7 N7             4.0952    -0.5714     0.1406 N.pl3   
   8 C8             4.7704     0.6164     0.0618 C.2     
   9 C9             3.9630     1.5702    -0.4282 C.2     
  10 Br10          -0.9494    -1.9621    -1.1140 Br      
  11 C11            4.3240     3.0132    -0.6696 C.3     
  12 C12            4.7151     3.2026    -2.1366 C.3     
  13 C13            6.2076     0.8230     0.4655 C.3     
  14 C14            6.8320    -0.5239     0.8355 C.3     
  15 C15            8.2911    -0.3141     1.2454 C.3     
  16 C16            6.9813     1.4405    -0.7012 C.3     
  17 C17            6.2685     1.7621     1.6718 C.3     
  18 N18            5.0386     4.6149    -2.3788 N.3     
  19 C19            5.4197     4.8348    -3.7804 C.3     
  20 H20           -0.5500     0.8986    -1.6954 H       
  21 H21            1.8124    -2.3042    -0.1550 H       
  22 H22            1.3351     2.4383    -1.4731 H       
  23 H23            4.4704    -1.4053     0.4644 H       
  24 H24            3.4672     3.6458    -0.4375 H       
  25 H25            5.1632     3.2895    -0.0313 H       
  26 H26            5.5854     2.5865    -2.3630 H       
  27 H27            3.8835     2.9056    -2.7756 H       
  28 H28            6.2808    -0.9638     1.6667 H       
  29 H29            6.7886    -1.1929    -0.0239 H       
  30 H30            8.7360    -1.2737     1.5090 H       
  31 H31            8.8423     0.1258     0.4142 H       
  32 H32            8.3345     0.3549     2.1048 H       
  33 H33            6.6531     2.4691    -0.8509 H       
  34 H34            8.0478     1.4284    -0.4767 H       
  35 H35            6.7940     0.8639    -1.6070 H       
  36 H36            5.8006     1.2811     2.5307 H       
  37 H37            7.3093     1.9879     1.9042 H       
  38 H38            5.7393     2.6863     1.4399 H       
  39 H39            4.2695     5.2124    -2.1152 H       
  40 H40            4.5929     4.5492    -4.4308 H       
  41 H41            5.6540     5.8885    -3.9321 H       
  42 H42            6.2948     4.2301    -4.0182 H       
@<TRIPOS>BOND
   1    1    2 ar
   2    1    6 ar
   3    1   20 1
   4    2    3 ar
   5    2   10 1
   6    3    4 ar
   7    3   21 1
   8    4    5 ar
   9    4    7 1
  10    5    6 ar
  11    5    9 1
  12    6   22 1
  13    7    8 1
  14    7   23 1
  15    8    9 2
  16    8   13 1
  17    9   11 1
  18   11   12 1
  19   11   24 1
  20   11   25 1
  21   12   18 1
  22   12   26 1
  23   12   27 1
  24   13   14 1
  25   13   16 1
  26   13   17 1
  27   14   15 1
  28   14   28 1
  29   14   29 1
  30   15   30 1
  31   15   31 1
  32   15   32 1
  33   16   33 1
  34   16   34 1
  35   16   35 1
  36   17   36 1
  37   17   37 1
  38   17   38 1
  39   18   19 1
  40   18   39 1
  41   19   40 1
  42   19   41 1
  43   19   42 1

#	End of record

