#	Name: ASD00071014
#	Creating user name:	WinNT
#	Creation time:	15. 06. 2019 18:30

#	Modifying user name:	WinNT
#	Modification time:	15. 06. 2019 18:30

#	Program:	/corina/corina34_cracker 3.40 0067  02.08.2006

@<TRIPOS>MOLECULE
ASD00071014
  37   39    0    0    0
SMALL
NO_CHARGES


@<TRIPOS>ATOM
   1 C1            -0.0144     1.2119     0.0087 C.2     
   2 O2             0.6816     1.2330    -0.9883 O.2     
   3 C3             0.4365     0.4810     1.2073 C.ar    
   4 C4             1.6148    -0.2794     1.1685 C.ar    
   5 C5             2.0289    -0.9624     2.3018 C.ar    
   6 C6             1.2837    -0.8939     3.4626 C.ar    
   7 C7             0.1192    -0.1445     3.5052 C.ar    
   8 C8            -0.3043     0.5463     2.3907 C.ar    
   9 O9             2.3453    -0.3465     0.0276 O.3     
  10 C10            3.5330    -1.1402     0.0634 C.3     
  11 N11           -3.6749     1.8110    -0.0774 N.ar    
  12 C12           -2.5149     1.2047    -0.0861 C.ar    
  13 C13           -1.3082     1.9232     0.0210 C.ar    
  14 C14           -1.3459     3.3084     0.1389 C.ar    
  15 C15           -2.6036     3.9358     0.1458 C.ar    
  16 C16           -2.7188     5.3307     0.2621 C.ar    
  17 C17           -3.9576     5.9074     0.2657 C.ar    
  18 C18           -5.1099     5.1242     0.1549 C.ar    
  19 C19           -5.0297     3.7704     0.0413 C.ar    
  20 C20           -3.7732     3.1414     0.0334 C.ar    
  21 O21           -4.0704     7.2570     0.3787 O.3     
  22 C22           -5.3922     7.8000     0.3762 C.3     
  23 Cl23          -2.4625    -0.5243    -0.2324 Cl      
  24 H24            2.9353    -1.5491     2.2768 H       
  25 H25            1.6105    -1.4281     4.3425 H       
  26 H26           -0.4569    -0.0979     4.4175 H       
  27 H27           -1.2100     1.1334     2.4301 H       
  28 H28            3.2742    -2.1707     0.3065 H       
  29 H29            4.0209    -1.1082    -0.9108 H       
  30 H30            4.2100    -0.7470     0.8218 H       
  31 H31           -0.4363     3.8845     0.2230 H       
  32 H32           -1.8339     5.9437     0.3486 H       
  33 H33           -6.0790     5.6007     0.1598 H       
  34 H34           -5.9304     3.1804    -0.0427 H       
  35 H35           -5.8893     7.5418    -0.5588 H       
  36 H36           -5.9558     7.3879     1.2132 H       
  37 H37           -5.3397     8.8845     0.4724 H       
@<TRIPOS>BOND
   1    1    2 2
   2    1    3 1
   3    1   13 1
   4    3    4 ar
   5    3    8 ar
   6    4    5 ar
   7    4    9 1
   8    5    6 ar
   9    5   24 1
  10    6    7 ar
  11    6   25 1
  12    7    8 ar
  13    7   26 1
  14    8   27 1
  15    9   10 1
  16   10   28 1
  17   10   29 1
  18   10   30 1
  19   11   12 ar
  20   11   20 ar
  21   12   13 ar
  22   12   23 1
  23   13   14 ar
  24   14   15 ar
  25   14   31 1
  26   15   16 ar
  27   15   20 ar
  28   16   17 ar
  29   16   32 1
  30   17   18 ar
  31   17   21 1
  32   18   19 ar
  33   18   33 1
  34   19   20 ar
  35   19   34 1
  36   21   22 1
  37   22   35 1
  38   22   36 1
  39   22   37 1

#	End of record

