#	Name: ASD04880190
#	Creating user name:	WinNT
#	Creation time:	15. 06. 2019 20:53

#	Modifying user name:	WinNT
#	Modification time:	15. 06. 2019 20:53

#	Program:	/corina/corina34_cracker 3.40 0067  02.08.2006

@<TRIPOS>MOLECULE
ASD04880190
  36   38    0    0    0
SMALL
NO_CHARGES


@<TRIPOS>ATOM
   1 C1            -0.0144     1.2117     0.0087 C.2     
   2 O2             0.0652    -0.0014     0.0323 O.2     
   3 N3             1.1053     1.9594    -0.0513 N.am    
   4 N4             1.1480     3.3445    -0.1973 N.2     
   5 C5             2.3397     3.8340    -0.2280 C.2     
   6 C6             3.3485     2.7161    -0.0917 C.3     
   7 C7             2.4822     1.4471     0.0329 C.3     
   8 C8             2.0138     7.5610    -0.6280 C.ar    
   9 C9             1.6553     6.2297    -0.4933 C.ar    
  10 C10            2.6685     5.2631    -0.3735 C.ar    
  11 C11            4.0002     5.6977    -0.3960 C.ar    
  12 C12            4.2625     7.0443    -0.5335 C.ar    
  13 N13            3.2823     7.9209    -0.6437 N.ar    
  14 O14            0.3470     5.8647    -0.4774 O.3     
  15 C15           -0.6195     6.9095    -0.6048 C.3     
  16 C16           -1.3392     1.8660     0.0397 C.ar    
  17 C17           -2.5020     1.0990    -0.0512 C.ar    
  18 C18           -3.7372     1.7173    -0.0211 C.ar    
  19 C19           -3.8217     3.0955     0.0991 C.ar    
  20 C20           -2.6722     3.8593     0.1891 C.ar    
  21 C21           -1.4330     3.2530     0.1659 C.ar    
  22 F22           -4.8642     0.9776    -0.1094 F       
  23 H23            3.9835     2.6641    -0.9761 H       
  24 H24            3.9519     2.8529     0.8058 H       
  25 H25            2.6513     0.9578     0.9921 H       
  26 H26            2.6876     0.7622    -0.7897 H       
  27 H27            1.2448     8.3130    -0.7255 H       
  28 H28            4.8095     4.9883    -0.3065 H       
  29 H29            5.2865     7.3870    -0.5516 H       
  30 H30           -0.5023     7.6152     0.2177 H       
  31 H31           -0.4716     7.4279    -1.5522 H       
  32 H32           -1.6220     6.4824    -0.5770 H       
  33 H33           -2.4363     0.0251    -0.1453 H       
  34 H34           -4.7891     3.5750     0.1223 H       
  35 H35           -2.7448     4.9329     0.2819 H       
  36 H36           -0.5368     3.8510     0.2408 H       
@<TRIPOS>BOND
   1    1    2 2
   2    1    3 am
   3    1   16 1
   4    3    4 1
   5    3    7 1
   6    4    5 2
   7    5    6 1
   8    5   10 1
   9    6    7 1
  10    6   23 1
  11    6   24 1
  12    7   25 1
  13    7   26 1
  14    8    9 ar
  15    8   13 ar
  16    8   27 1
  17    9   10 ar
  18    9   14 1
  19   10   11 ar
  20   11   12 ar
  21   11   28 1
  22   12   13 ar
  23   12   29 1
  24   14   15 1
  25   15   30 1
  26   15   31 1
  27   15   32 1
  28   16   17 ar
  29   16   21 ar
  30   17   18 ar
  31   17   33 1
  32   18   19 ar
  33   18   22 1
  34   19   20 ar
  35   19   34 1
  36   20   21 ar
  37   20   35 1
  38   21   36 1

#	End of record

