#	Name: ASD01940511
#	Creating user name:	WinNT
#	Creation time:	15. 06. 2019 20:12

#	Modifying user name:	WinNT
#	Modification time:	15. 06. 2019 20:12

#	Program:	/corina/corina34_cracker 3.40 0067  02.08.2006

@<TRIPOS>MOLECULE
ASD01940511
  51   54    0    0    0
SMALL
NO_CHARGES


@<TRIPOS>ATOM
   1 C1             0.5222     1.5101     0.0896 C.ar    
   2 C2             0.3497     0.1566     0.1784 C.ar    
   3 C3             1.4006    -0.7082    -0.1131 C.ar    
   4 C4             2.6372    -0.2095    -0.4976 C.ar    
   5 C5             2.8246     1.1575    -0.5913 C.ar    
   6 C6             1.7590     2.0249    -0.2954 C.ar    
   7 C7             1.9909     3.4761    -0.4042 C.2     
   8 O8             4.0155     1.6824    -0.9633 O.3     
   9 C9             4.1928     3.0086    -1.0533 C.2     
  10 N10            3.2195     3.8937    -0.7837 N.am    
  11 O11            1.1051     4.2729    -0.1608 O.2     
  12 O12            5.2820     3.4276    -1.3914 O.2     
  13 C13            3.4915     5.3282    -0.9046 C.3     
  14 C14            3.9923     5.8574     0.4145 C.ar    
  15 C15            5.3154     5.6772     0.7738 C.ar    
  16 C16            3.1297     6.5279     1.2624 C.ar    
  17 C17            3.5854     7.0158     2.4732 C.ar    
  18 C18            4.9048     6.8354     2.8409 C.ar    
  19 C19            5.7758     6.1667     1.9914 C.ar    
  20 O20            1.2147    -2.0497    -0.0201 O.3     
  21 C21            1.7340    -2.6659     1.0600 C.2     
  22 O22            2.2541    -2.0113     1.9412 O.2     
  23 F23            6.1594     5.0263    -0.0565 F       
  24 N24            7.1132     5.9871     2.3586 N.am    
  25 S25            7.5089     5.7327     3.9463 S.o     
  26 O26            7.0703     4.4007     4.1756 O.2     
  27 O27            9.0238     5.5917     3.9032 O.3     
  28 C28            9.6225     5.3600     5.1799 C.3     
  29 C29            1.6707    -4.1374     1.1724 C.ar    
  30 C30            1.0786    -4.8934     0.1586 C.ar    
  31 C31            2.2078    -4.7791     2.2903 C.ar    
  32 C32            2.1452    -6.1536     2.3888 C.ar    
  33 C33            1.5524    -6.8962     1.3830 C.ar    
  34 C34            1.0229    -6.2672     0.2701 C.ar    
  35 H35           -0.2975     2.1772     0.3125 H       
  36 H36           -0.6079    -0.2439     0.4770 H       
  37 H37            3.4491    -0.8853    -0.7223 H       
  38 H38            4.2479     5.4911    -1.6723 H       
  39 H39            2.5751     5.8497    -1.1810 H       
  40 H40            2.0977     6.6710     0.9779 H       
  41 H41            2.9088     7.5392     3.1325 H       
  42 H42            5.2592     7.2174     3.7869 H       
  43 H43            7.8090     6.0116     1.6832 H       
  44 H44            9.2256     4.4383     5.6054 H       
  45 H45           10.7026     5.2711     5.0639 H       
  46 H46            9.3959     6.1939     5.8442 H       
  47 H47            0.6650    -4.4036    -0.7106 H       
  48 H48            2.6714    -4.2007     3.0757 H       
  49 H49            2.5602    -6.6512     3.2528 H       
  50 H50            1.5064    -7.9721     1.4650 H       
  51 H51            0.5650    -6.8531    -0.5131 H       
@<TRIPOS>BOND
   1    1    2 ar
   2    1    6 ar
   3    1   35 1
   4    2    3 ar
   5    2   36 1
   6    3    4 ar
   7    3   20 1
   8    4    5 ar
   9    4   37 1
  10    5    6 ar
  11    5    8 1
  12    6    7 1
  13    7   10 am
  14    7   11 2
  15    8    9 1
  16    9   10 am
  17    9   12 2
  18   10   13 1
  19   13   14 1
  20   13   38 1
  21   13   39 1
  22   14   16 ar
  23   14   15 ar
  24   15   19 ar
  25   15   23 1
  26   16   17 ar
  27   16   40 1
  28   17   18 ar
  29   17   41 1
  30   18   19 ar
  31   18   42 1
  32   19   24 1
  33   20   21 1
  34   21   22 2
  35   21   29 1
  36   24   25 am
  37   24   43 1
  38   25   26 2
  39   25   27 1
  40   27   28 1
  41   28   44 1
  42   28   45 1
  43   28   46 1
  44   29   31 ar
  45   29   30 ar
  46   30   34 ar
  47   30   47 1
  48   31   32 ar
  49   31   48 1
  50   32   33 ar
  51   32   49 1
  52   33   34 ar
  53   33   50 1
  54   34   51 1

#	End of record

