#	Name: ASD03082294
#	Creating user name:	WinNT
#	Creation time:	15. 06. 2019 20:27

#	Modifying user name:	WinNT
#	Modification time:	15. 06. 2019 20:27

#	Program:	/corina/corina34_cracker 3.40 0067  02.08.2006

@<TRIPOS>MOLECULE
ASD03082294
  47   49    0    0    0
SMALL
NO_CHARGES


@<TRIPOS>ATOM
   1 N1             0.0060     1.3961     0.2404 N.am    
   2 N2             0.0105    -0.0036     0.1253 N.2     
   3 C3             1.2362    -0.3594    -0.1805 C.2     
   4 N4             2.0037     0.7303    -0.2649 N.2     
   5 C5             1.2835     1.8031    -0.0148 C.2     
   6 N6             1.6691    -1.6688    -0.3846 N.pl3   
   7 C7             0.7976    -2.7378    -0.1521 C.ar    
   8 C8             0.9842    -3.9435    -0.8153 C.ar    
   9 C9             0.1217    -5.0001    -0.5840 C.ar    
  10 C10           -0.9286    -4.8556     0.3089 C.ar    
  11 C11           -1.1161    -3.6526     0.9716 C.ar    
  12 C12           -0.2517    -2.5962     0.7465 C.ar    
  13 C13            1.7712     3.2001    -0.0114 C.ar    
  14 C14           -1.0490     2.1803     0.5376 C.2     
  15 C15            3.0659     3.5087     0.4257 C.ar    
  16 C16            3.4837     4.8223     0.4139 C.ar    
  17 N17            2.6838     5.7863    -0.0015 N.ar    
  18 C18            1.4523     5.5421    -0.4234 C.ar    
  19 C19            0.9551     4.2453    -0.4492 C.ar    
  20 N20           -2.2781     1.6400     0.6559 N.am    
  21 F21           -2.1402    -3.5133     1.8416 F       
  22 N22            0.6505     6.5946    -0.8506 N.pl3   
  23 F23            0.3030    -6.1733    -1.2291 F       
  24 C24           -3.4250     2.4924     0.9789 C.3     
  25 O25           -0.8922     3.3744     0.6987 O.2     
  26 C26           -0.7129     6.3335    -1.3189 C.3     
  27 C27           -1.3730     7.6519    -1.7275 C.3     
  28 C28           -4.6912     1.6369     1.0540 C.3     
  29 F29           -1.7707    -5.8880     0.5332 F       
  30 H30            2.5747    -1.8385    -0.6879 H       
  31 H31            1.8020    -4.0562    -1.5116 H       
  32 H32           -0.3955    -1.6603     1.2661 H       
  33 H33            3.7282     2.7272     0.7679 H       
  34 H34            4.4806     5.0663     0.7500 H       
  35 H35           -0.0495     4.0496    -0.7938 H       
  36 H36           -2.4033     0.6868     0.5273 H       
  37 H37            0.9938     7.5018    -0.8386 H       
  38 H38           -3.2572     2.9783     1.9401 H       
  39 H39           -3.5439     3.2502     0.2045 H       
  40 H40           -0.6800     5.6624    -2.1771 H       
  41 H41           -1.2898     5.8712    -0.5180 H       
  42 H42           -1.4059     8.3231    -0.8693 H       
  43 H43           -0.7961     8.1143    -2.5284 H       
  44 H44           -2.3874     7.4577    -2.0759 H       
  45 H45           -5.5445     2.2711     1.2943 H       
  46 H46           -4.8589     1.1509     0.0928 H       
  47 H47           -4.5722     0.8791     1.8284 H       
@<TRIPOS>BOND
   1    1    2 1
   2    1    5 1
   3    1   14 am
   4    2    3 2
   5    3    4 1
   6    3    6 1
   7    4    5 2
   8    5   13 1
   9    6    7 1
  10    6   30 1
  11    7    8 ar
  12    7   12 ar
  13    8    9 ar
  14    8   31 1
  15    9   10 ar
  16    9   23 1
  17   10   11 ar
  18   10   29 1
  19   11   12 ar
  20   11   21 1
  21   12   32 1
  22   13   15 ar
  23   13   19 ar
  24   14   20 am
  25   14   25 2
  26   15   16 ar
  27   15   33 1
  28   16   17 ar
  29   16   34 1
  30   17   18 ar
  31   18   19 ar
  32   18   22 1
  33   19   35 1
  34   20   24 1
  35   20   36 1
  36   22   26 1
  37   22   37 1
  38   24   28 1
  39   24   38 1
  40   24   39 1
  41   26   27 1
  42   26   40 1
  43   26   41 1
  44   27   42 1
  45   27   43 1
  46   27   44 1
  47   28   45 1
  48   28   46 1
  49   28   47 1

#	End of record

