#	Name: ASD00192033
#	Creating user name:	WinNT
#	Creation time:	15. 06. 2019 18:33

#	Modifying user name:	WinNT
#	Modification time:	15. 06. 2019 18:33

#	Program:	/corina/corina34_cracker 3.40 0067  02.08.2006

@<TRIPOS>MOLECULE
ASD00192033
  21   22    0    0    0
SMALL
NO_CHARGES


@<TRIPOS>ATOM
   1 N1            -0.0157     1.3087     0.0092 N.ar    
   2 C2             0.0021    -0.0041     0.0020 C.ar    
   3 C3             1.1968    -0.7213    -0.0132 C.ar    
   4 C4             2.4076    -0.0376    -0.0211 C.ar    
   5 C5             2.3691     1.3749    -0.0131 C.ar    
   6 C6             3.5470     2.1361    -0.0197 C.ar    
   7 C7             3.4701     3.4962    -0.0113 C.ar    
   8 C8             2.2356     4.1411     0.0043 C.ar    
   9 C9             1.0732     3.4326     0.0111 C.ar    
  10 C10            1.1120     2.0276     0.0023 C.ar    
  11 N11            3.6185    -0.7225    -0.0358 N.pl3   
  12 N12            1.1780    -2.1236    -0.0201 N.pl3   
  13 H13           -0.9341    -0.5425     0.0084 H       
  14 H14            4.5097     1.6467    -0.0311 H       
  15 H15            4.3775     4.0817    -0.0164 H       
  16 H16            2.2001     5.2205     0.0114 H       
  17 H17            0.1244     3.9484     0.0236 H       
  18 H18            3.6271    -1.6925    -0.0408 H       
  19 H19            4.4542    -0.2301    -0.0412 H       
  20 H20            0.3316    -2.5973    -0.0143 H       
  21 H21            2.0115    -2.6197    -0.0308 H       
@<TRIPOS>BOND
   1    1    2 ar
   2    1   10 ar
   3    2    3 ar
   4    2   13 1
   5    3    4 ar
   6    3   12 1
   7    4    5 ar
   8    4   11 1
   9    5    6 ar
  10    5   10 ar
  11    6    7 ar
  12    6   14 1
  13    7    8 ar
  14    7   15 1
  15    8    9 ar
  16    8   16 1
  17    9   10 ar
  18    9   17 1
  19   11   18 1
  20   11   19 1
  21   12   20 1
  22   12   21 1

#	End of record

