#	Name: ASD01881481
#	Creating user name:	WinNT
#	Creation time:	15. 06. 2019 19:42

#	Modifying user name:	WinNT
#	Modification time:	15. 06. 2019 19:42

#	Program:	/corina/corina34_cracker 3.40 0067  02.08.2006

@<TRIPOS>MOLECULE
ASD01881481
  51   54    0    0    0
SMALL
NO_CHARGES


@<TRIPOS>ATOM
   1 C1             0.3824     2.2621     0.6218 C.2     
   2 C2             1.6322     2.7827     0.2626 C.2     
   3 C3             1.7379     4.1617    -0.0172 C.2     
   4 C4             0.6457     4.9518     0.0639 C.2     
   5 N5            -0.5672     4.4463     0.4130 N.am    
   6 C6            -0.7274     3.1379     0.6850 C.2     
   7 C7            -2.4180     5.3947    -0.8740 C.3     
   8 C8            -1.7238     5.3423     0.4884 C.3     
   9 O9            -1.8265     2.7092     0.9956 O.2     
  10 C10            2.8185     1.9039     0.1788 C.ar    
  11 C11            3.4462     1.6907    -1.0504 C.ar    
  12 C12            3.3171     1.2899     1.3292 C.ar    
  13 C13            4.4233     0.4717     1.2477 C.ar    
  14 C14            5.0426     0.2577     0.0234 C.ar    
  15 C15            4.5522     0.8711    -1.1242 C.ar    
  16 O16            6.1327    -0.5489    -0.0526 O.3     
  17 C17            6.5142    -1.2381     1.1396 C.3     
  18 C18            7.2947    -2.5039     0.7723 C.3     
  19 C19           -3.6260     6.3304    -0.7953 C.3     
  20 C20            7.4062    -0.3310     1.9928 C.3     
  21 C21            7.8737    -1.1044     3.2285 C.3     
  22 O22            8.5652    -2.2851     2.8164 O.3     
  23 C23            7.7665    -3.1933     2.0552 C.3     
  24 Cl24           5.3303     0.6001    -2.6523 Cl      
  25 C25           -4.3884     6.6103    -2.0919 C.3     
  26 C26           -5.0102     5.7172    -1.0164 C.3     
  27 N27            0.2375     0.9435     0.8982 N.1     
  28 C28            0.1161    -0.1620     1.1298 C.1     
  29 H29            2.6917     4.5850    -0.2958 H       
  30 H30            0.7375     6.0060    -0.1523 H       
  31 H31           -1.7193     5.7657    -1.6238 H       
  32 H32           -2.7507     4.3943    -1.1510 H       
  33 H33           -2.4226     4.9712     1.2382 H       
  34 H34           -1.3911     6.3426     0.7654 H       
  35 H35            3.0656     2.1670    -1.9418 H       
  36 H36            2.8367     1.4561     2.2821 H       
  37 H37            4.8092    -0.0034     2.1375 H       
  38 H38            5.6226    -1.5106     1.7044 H       
  39 H39            6.6492    -3.1800     0.2117 H       
  40 H40            8.1585    -2.2355     0.1641 H       
  41 H41           -3.5447     7.1433    -0.0737 H       
  42 H42            8.2722    -0.0188     1.4092 H       
  43 H43            6.8404     0.5468     2.3049 H       
  44 H44            8.5434    -0.4778     3.8176 H       
  45 H45            7.0096    -1.3813     3.8325 H       
  46 H46            6.9011    -3.4976     2.6438 H       
  47 H47            8.3591    -4.0716     1.7990 H       
  48 H48           -4.8091     7.6073    -2.2231 H       
  49 H49           -4.0295     6.1279    -3.0010 H       
  50 H50           -5.0602     4.6472    -1.2180 H       
  51 H51           -5.8399     6.1265    -0.4401 H       
@<TRIPOS>BOND
   1    1   27 1
   2    1    2 2
   3    1    6 1
   4    2    3 1
   5    2   10 1
   6    3    4 2
   7    3   29 1
   8    4    5 1
   9    4   30 1
  10    5    6 am
  11    5    8 1
  12    6    9 2
  13    7    8 1
  14    7   19 1
  15    7   31 1
  16    7   32 1
  17    8   33 1
  18    8   34 1
  19   10   11 ar
  20   10   12 ar
  21   11   15 ar
  22   11   35 1
  23   12   13 ar
  24   12   36 1
  25   13   14 ar
  26   13   37 1
  27   14   15 ar
  28   14   16 1
  29   15   24 1
  30   16   17 1
  31   17   18 1
  32   17   20 1
  33   17   38 1
  34   18   23 1
  35   18   39 1
  36   18   40 1
  37   19   25 1
  38   19   26 1
  39   19   41 1
  40   20   21 1
  41   20   42 1
  42   20   43 1
  43   21   22 1
  44   21   44 1
  45   21   45 1
  46   22   23 1
  47   23   46 1
  48   23   47 1
  49   25   26 1
  50   25   48 1
  51   25   49 1
  52   26   50 1
  53   26   51 1
  54   27   28 3

#	End of record

