#	Name: ASD03092510
#	Creating user name:	WinNT
#	Creation time:	15. 06. 2019 20:32

#	Modifying user name:	WinNT
#	Modification time:	15. 06. 2019 20:32

#	Program:	/corina/corina34_cracker 3.40 0067  02.08.2006

@<TRIPOS>MOLECULE
ASD03092510
  32   34    0    0    0
SMALL
NO_CHARGES


@<TRIPOS>ATOM
   1 S1            -0.0211     1.7035     0.0114 S.3     
   2 C2             0.0021    -0.0041     0.0020 C.2     
   3 N3             1.2126    -0.4394    -0.0119 N.2     
   4 C4             2.1659     0.4959    -0.0160 C.2     
   5 C5             1.6873     1.7604    -0.0046 C.2     
   6 C6             3.6042     0.1796    -0.0314 C.2     
   7 O7             4.4244     1.0777    -0.0339 O.2     
   8 N8             4.0115    -1.1051    -0.0427 N.am    
   9 C9             5.4422    -1.4198    -0.0580 C.3     
  10 N10            6.1340    -7.0011    -0.3702 N.pl3   
  11 C11            6.1417    -7.1606    -1.7291 C.2     
  12 C12            5.9876    -5.9703    -2.3304 C.2     
  13 C13            5.8717    -4.9666    -1.2698 C.ar    
  14 C14            5.6996    -3.5810    -1.2594 C.ar    
  15 C15            5.6275    -2.9153    -0.0684 C.ar    
  16 C16            5.7240    -3.6056     1.1322 C.ar    
  17 C17            5.8945    -4.9724     1.1451 C.ar    
  18 C18            5.9705    -5.6706    -0.0559 C.ar    
  19 C19            6.3002    -8.4773    -2.4448 C.3     
  20 H20           -0.8772    -0.6312     0.0076 H       
  21 H21            2.2862     2.6591    -0.0055 H       
  22 H22            3.3573    -1.8213    -0.0406 H       
  23 H23            5.8990    -0.9909    -0.9499 H       
  24 H24            5.9158    -1.0012     0.8300 H       
  25 H25            6.2257    -7.7190     0.2757 H       
  26 H26            5.9552    -5.7874    -3.3943 H       
  27 H27            5.6246    -3.0372    -2.1895 H       
  28 H28            5.6652    -3.0655     2.0656 H       
  29 H29            5.9689    -5.5004     2.0843 H       
  30 H30            5.3188    -8.9223    -2.6085 H       
  31 H31            6.7892    -8.3124    -3.4049 H       
  32 H32            6.9074    -9.1495    -1.8385 H       
@<TRIPOS>BOND
   1    1    2 1
   2    1    5 1
   3    2    3 2
   4    2   20 1
   5    3    4 1
   6    4    5 2
   7    4    6 1
   8    5   21 1
   9    6    7 2
  10    6    8 am
  11    8    9 1
  12    8   22 1
  13    9   15 1
  14    9   23 1
  15    9   24 1
  16   10   11 1
  17   10   18 1
  18   10   25 1
  19   11   12 2
  20   11   19 1
  21   12   13 1
  22   12   26 1
  23   13   14 ar
  24   13   18 ar
  25   14   15 ar
  26   14   27 1
  27   15   16 ar
  28   16   17 ar
  29   16   28 1
  30   17   18 ar
  31   17   29 1
  32   19   30 1
  33   19   31 1
  34   19   32 1

#	End of record

