#	Name: ASD09610025
#	Creating user name:	WinNT
#	Creation time:	15. 06. 2019 21:22

#	Modifying user name:	WinNT
#	Modification time:	15. 06. 2019 21:22

#	Program:	/corina/corina34_cracker 3.40 0067  02.08.2006

@<TRIPOS>MOLECULE
ASD09610025
  46   47    0    0    0
SMALL
NO_CHARGES


@<TRIPOS>ATOM
   1 C1            -0.1616     1.2677    -0.0884 C.2     
   2 C2            -1.4039     2.1202    -0.0571 C.3     
   3 O3            -0.2492     0.0756    -0.2941 O.2     
   4 N4             1.0472     1.8308     0.1068 N.am    
   5 C5             2.2450     0.9899     0.1727 C.3     
   6 O6            -2.5537     1.2819     0.0745 O.3     
   7 C7            -3.6437     1.8948     0.7660 C.3     
   8 C8            -1.5026     2.9112    -1.3360 C.ar    
   9 C9            -1.0125     4.2029    -1.3895 C.ar    
  10 C10           -1.1031     4.9283    -2.5624 C.ar    
  11 C11           -1.6835     4.3623    -3.6823 C.ar    
  12 C12           -2.1727     3.0707    -3.6291 C.ar    
  13 C13           -2.0781     2.3434    -2.4570 C.ar    
  14 C14           -0.3798     4.8199    -0.1688 C.3     
  15 O15           -0.0728     6.1903    -0.4326 O.3     
  16 C16            0.5069     6.8973     0.5729 C.ar    
  17 C17            0.8320     8.2332     0.3854 C.ar    
  18 C18            1.4212     8.9495     1.4089 C.ar    
  19 C19            1.6876     8.3364     2.6194 C.ar    
  20 C20            1.3651     7.0054     2.8085 C.ar    
  21 C21            0.7695     6.2863     1.7901 C.ar    
  22 C22            1.6573     6.3402     4.1288 C.3     
  23 C23            0.5429     8.9017    -0.9338 C.3     
  24 H24           -1.3540     2.8041     0.7902 H       
  25 H25            1.1242     2.7929     0.2036 H       
  26 H26            3.1213     1.6177     0.3342 H       
  27 H27            2.1477     0.2829     0.9967 H       
  28 H28            2.3572     0.4433    -0.7636 H       
  29 H29           -4.4770     1.1945     0.8240 H       
  30 H30           -3.3278     2.1678     1.7729 H       
  31 H31           -3.9579     2.7896     0.2287 H       
  32 H32           -0.7208     5.9376    -2.6040 H       
  33 H33           -1.7549     4.9294    -4.5986 H       
  34 H34           -2.6263     2.6286    -4.5038 H       
  35 H35           -2.4570     1.3329    -2.4165 H       
  36 H36           -1.0728     4.7578     0.6703 H       
  37 H37            0.5365     4.2829     0.0763 H       
  38 H38            1.6744     9.9893     1.2635 H       
  39 H39            2.1486     8.8981     3.4184 H       
  40 H40            0.5134     5.2478     1.9399 H       
  41 H41            0.7987     6.4537     4.7907 H       
  42 H42            1.8531     5.2803     3.9662 H       
  43 H43            2.5313     6.8054     4.5845 H       
  44 H44           -0.4561     9.3371    -0.9093 H       
  45 H45            1.2773     9.6873    -1.1117 H       
  46 H46            0.5983     8.1644    -1.7347 H       
@<TRIPOS>BOND
   1    1    3 2
   2    1    4 am
   3    1    2 1
   4    2    6 1
   5    2    8 1
   6    2   24 1
   7    4    5 1
   8    4   25 1
   9    5   26 1
  10    5   27 1
  11    5   28 1
  12    6    7 1
  13    7   29 1
  14    7   30 1
  15    7   31 1
  16    8    9 ar
  17    8   13 ar
  18    9   10 ar
  19    9   14 1
  20   10   11 ar
  21   10   32 1
  22   11   12 ar
  23   11   33 1
  24   12   13 ar
  25   12   34 1
  26   13   35 1
  27   14   15 1
  28   14   36 1
  29   14   37 1
  30   15   16 1
  31   16   17 ar
  32   16   21 ar
  33   17   18 ar
  34   17   23 1
  35   18   19 ar
  36   18   38 1
  37   19   20 ar
  38   19   39 1
  39   20   21 ar
  40   20   22 1
  41   21   40 1
  42   22   41 1
  43   22   42 1
  44   22   43 1
  45   23   44 1
  46   23   45 1
  47   23   46 1

#	End of record

