#	Name: ASD00843102
#	Creating user name:	WinNT
#	Creation time:	15. 06. 2019 18:46

#	Modifying user name:	WinNT
#	Modification time:	15. 06. 2019 18:46

#	Program:	/corina/corina34_cracker 3.40 0067  02.08.2006

@<TRIPOS>MOLECULE
ASD00843102
  89   94    0    0    0
SMALL
NO_CHARGES


@<TRIPOS>ATOM
   1 F1            -0.1033    -3.1507     4.7177 F       
   2 N2            -0.0149     1.3151     0.0239 N.ar    
   3 C3             0.0023    -0.0072     0.0102 C.ar    
   4 C4             1.2068    -0.6992    -0.0073 C.ar    
   5 C5             2.3928     0.0137    -0.0101 C.ar    
   6 C6             2.3318     1.4006     0.0047 C.ar    
   7 C7             1.0993     2.0222     0.0216 C.ar    
   8 C8             1.2215    -2.2060    -0.0224 C.3     
   9 C9             0.4764    -2.7314    -1.2306 C.2     
  10 N10            2.5991    -2.7045    -0.0124 N.am    
  11 C11            3.4464    -2.3633    -1.0034 C.2     
  12 N12            4.7400    -2.7368    -0.9424 N.am    
  13 O13            3.0439    -1.7186    -1.9523 O.2     
  14 C14            5.6548    -2.4755    -2.0640 C.3     
  15 C15            6.9055    -1.7773    -1.5195 C.3     
  16 N16            7.4741    -2.5794    -0.4281 N.3     
  17 C17            6.5399    -2.6814     0.7009 C.3     
  18 C18            5.2756    -3.4111     0.2499 C.3     
  19 N19            8.7544    -2.0408     0.0020 N.3     
  20 C20            9.3233    -2.8432     1.0939 C.3     
  21 C21           10.7028    -2.2926     1.4629 C.3     
  22 N22           10.5747    -0.8835     1.8601 N.3     
  23 C23           10.0058    -0.0811     0.7683 C.3     
  24 C24            8.6263    -0.6318     0.3993 C.3     
  25 C25           11.8681    -0.3394     2.2947 C.3     
  26 O26            0.7578    -2.5310    -2.3933 O.2     
  27 N27           -0.5548    -3.4617    -0.7742 N.am    
  28 C28            0.4481    -2.7550     1.1552 C.ar    
  29 C29           -0.6010    -3.4965     0.6216 C.ar    
  30 C30            0.6157    -2.6380     2.5174 C.ar    
  31 C31           -0.2663    -3.2634     3.3814 C.ar    
  32 C32           -1.3270    -4.0131     2.8629 C.ar    
  33 C33           -1.4908    -4.1279     1.4827 C.ar    
  34 C34           -1.0168    -5.8492    -2.0630 C.ar    
  35 C35            0.1621    -6.0110    -2.7759 C.ar    
  36 C36           -1.6947    -6.9566    -1.5908 C.ar    
  37 C37           -1.1989    -8.2251    -1.8279 C.ar    
  38 C38           -0.0239    -8.3891    -2.5383 C.ar    
  39 C39            0.6574    -7.2853    -3.0129 C.ar    
  40 H40            0.3614    -9.3811    -2.7222 H       
  41 O41            0.8305    -4.9234    -3.2418 O.3     
  42 C42            2.0374    -5.1654    -3.9677 C.3     
  43 C43            2.6437    -3.8316    -4.4084 C.3     
  44 S44           -1.6452    -4.2324    -1.7536 S.o2    
  45 O45           -2.8270    -4.4019    -0.9829 O.2     
  46 O46           -1.6207    -3.5474    -2.9984 O.2     
  47 O47           -1.1675    -0.6945     0.0136 O.3     
  48 C48           -2.3717     0.0746     0.0322 C.3     
  49 C49           -3.5780    -0.8666     0.0334 C.3     
  50 F50           -3.5502    -1.6616    -1.1174 F       
  51 F51           -3.5297    -1.6851     1.1669 F       
  52 C52           -2.2445    -4.6637     3.7493 C.1     
  53 N53           -2.9724    -5.1798     4.4524 N.1     
  54 H54            3.3442    -0.4972    -0.0231 H       
  55 H55            3.2388     1.9868     0.0033 H       
  56 H56            1.0463     3.1008     0.0328 H       
  57 H57            2.9014    -3.2801     0.7075 H       
  58 H58            5.9367    -3.4178    -2.5338 H       
  59 H59            5.1645    -1.8314    -2.7940 H       
  60 H60            7.6413    -1.6749    -2.3172 H       
  61 H61            6.6364    -0.7902    -1.1435 H       
  62 H62            7.0105    -3.2347     1.5136 H       
  63 H63            6.2759    -1.6817     1.0460 H       
  64 H64            4.5349    -3.3884     1.0491 H       
  65 H65            5.5183    -4.4442     0.0009 H       
  66 H66            8.6670    -2.7922     1.9627 H       
  67 H67            9.4199    -3.8798     0.7711 H       
  68 H68           11.1142    -2.8682     2.2920 H       
  69 H69           11.3669    -2.3687     0.6019 H       
  70 H70            9.9091     0.9555     1.0910 H       
  71 H71           10.6620    -0.1321    -0.1006 H       
  72 H72            8.2148    -0.0561    -0.4298 H       
  73 H73            7.9622    -0.5556     1.2602 H       
  74 H74           12.5846    -0.4080     1.4761 H       
  75 H75           11.7447     0.7045     2.5831 H       
  76 H76           12.2348    -0.9110     3.1473 H       
  77 H77            1.4367    -2.0577     2.9118 H       
  78 H78           -2.3100    -4.7069     1.0828 H       
  79 H79           -2.6126    -6.8311    -1.0357 H       
  80 H80           -1.7300    -9.0894    -1.4573 H       
  81 H81            1.5746    -7.4139    -3.5683 H       
  82 H82            2.7458    -5.6932    -3.3291 H       
  83 H83            1.8177    -5.7725    -4.8459 H       
  84 H84            1.9354    -3.3038    -5.0469 H       
  85 H85            2.8635    -3.2246    -3.5302 H       
  86 H86            3.5643    -4.0163    -4.9621 H       
  87 H87           -2.3934     0.6941     0.9289 H       
  88 H88           -2.4093     0.7123    -0.8509 H       
  89 H89           -4.4965    -0.2800     0.0476 H       
@<TRIPOS>BOND
   1    1   31 1
   2    2    3 ar
   3    2    7 ar
   4    3    4 ar
   5    3   47 1
   6    4    5 ar
   7    4    8 1
   8    5    6 ar
   9    5   54 1
  10    6    7 ar
  11    6   55 1
  12    7   56 1
  13    8    9 1
  14    8   10 1
  15    8   28 1
  16    9   26 2
  17    9   27 am
  18   10   11 am
  19   10   57 1
  20   11   12 am
  21   11   13 2
  22   12   14 1
  23   12   18 1
  24   14   15 1
  25   14   58 1
  26   14   59 1
  27   15   16 1
  28   15   60 1
  29   15   61 1
  30   16   17 1
  31   16   19 1
  32   17   18 1
  33   17   62 1
  34   17   63 1
  35   18   64 1
  36   18   65 1
  37   19   20 1
  38   19   24 1
  39   20   21 1
  40   20   66 1
  41   20   67 1
  42   21   22 1
  43   21   68 1
  44   21   69 1
  45   22   23 1
  46   22   25 1
  47   23   24 1
  48   23   70 1
  49   23   71 1
  50   24   72 1
  51   24   73 1
  52   25   74 1
  53   25   75 1
  54   25   76 1
  55   27   44 am
  56   27   29 1
  57   28   29 ar
  58   28   30 ar
  59   29   33 ar
  60   30   31 ar
  61   30   77 1
  62   31   32 ar
  63   32   33 ar
  64   32   52 1
  65   33   78 1
  66   34   35 ar
  67   34   36 ar
  68   34   44 1
  69   35   41 1
  70   35   39 ar
  71   36   37 ar
  72   36   79 1
  73   37   38 ar
  74   37   80 1
  75   38   39 ar
  76   38   40 1
  77   39   81 1
  78   41   42 1
  79   42   43 1
  80   42   82 1
  81   42   83 1
  82   43   84 1
  83   43   85 1
  84   43   86 1
  85   44   45 2
  86   44   46 2
  87   47   48 1
  88   48   49 1
  89   48   87 1
  90   48   88 1
  91   49   50 1
  92   49   51 1
  93   49   89 1
  94   52   53 3

#	End of record

