#	Name: ASD01190151
#	Creating user name:	WinNT
#	Creation time:	15. 06. 2019 19:07

#	Modifying user name:	WinNT
#	Modification time:	15. 06. 2019 19:07

#	Program:	/corina/corina34_cracker 3.40 0067  02.08.2006

@<TRIPOS>MOLECULE
ASD01190151
  42   45    0    0    0
SMALL
NO_CHARGES


@<TRIPOS>ATOM
   1 C1            -0.0187     1.5258     0.0104 C.3     
   2 C2             0.5842     0.5864    -1.0360 C.3     
   3 S3             1.9095     3.5873    -0.7191 S.3     
   4 C4             2.6977     4.3381     0.5993 C.2     
   5 N5             2.2793     3.8365     1.7120 N.2     
   6 C6             1.3687     2.8868     1.6382 C.2     
   7 C7             0.9984     2.5695     0.3939 C.2     
   8 C8             3.7316     5.4280     0.4792 C.3     
   9 O9             5.0321     4.8429     0.3884 O.3     
  10 N10           -4.7171     3.9125    -1.9486 N.pl3   
  11 N11           -5.6378     3.3259    -1.0741 N.2     
  12 C12           -5.0233     2.5325    -0.2431 C.2     
  13 C13           -3.5989     2.5714    -0.5589 C.ar    
  14 C14           -2.4669     1.9453    -0.0254 C.ar    
  15 C15           -1.2385     2.1998    -0.5629 C.ar    
  16 C16           -1.1019     3.0749    -1.6336 C.ar    
  17 C17           -2.1921     3.6985    -2.1713 C.ar    
  18 C18           -3.4580     3.4580    -1.6441 C.ar    
  19 C19           -5.0302     4.8141    -2.9741 C.ar    
  20 C20           -6.2194     4.6802    -3.6785 C.ar    
  21 C21           -6.5262     5.5700    -4.6891 C.ar    
  22 C22           -5.6488     6.5953    -5.0002 C.ar    
  23 C23           -4.4623     6.7306    -4.2989 C.ar    
  24 C24           -4.1544     5.8463    -3.2837 C.ar    
  25 F25           -5.9505     7.4645    -5.9894 F       
  26 F26            1.7166    -0.0393    -0.5037 F       
  27 F27           -0.3600    -0.3826    -1.3920 F       
  28 F28            0.9473     1.3222    -2.1692 F       
  29 O29           -0.3895     0.7742     1.1679 O.3     
  30 H30            0.9558     2.4041     2.5116 H       
  31 H31            3.5352     6.0179    -0.4161 H       
  32 H32            3.6836     6.0726     1.3568 H       
  33 H33            5.7486     5.4874     0.3086 H       
  34 H34           -5.4855     1.9501     0.5402 H       
  35 H35           -2.5647     1.2644     0.8073 H       
  36 H36           -0.1217     3.2648    -2.0456 H       
  37 H37           -2.0722     4.3767    -3.0032 H       
  38 H38           -6.9038     3.8805    -3.4365 H       
  39 H39           -7.4508     5.4660    -5.2375 H       
  40 H40           -3.7792     7.5307    -4.5432 H       
  41 H41           -3.2313     5.9551    -2.7338 H       
  42 H42           -0.7797     1.3069     1.8743 H       
@<TRIPOS>BOND
   1    1    2 1
   2    1    7 1
   3    1   15 1
   4    1   29 1
   5    2   26 1
   6    2   27 1
   7    2   28 1
   8    3    4 1
   9    3    7 1
  10    4    5 2
  11    4    8 1
  12    5    6 1
  13    6    7 2
  14    6   30 1
  15    8    9 1
  16    8   31 1
  17    8   32 1
  18    9   33 1
  19   10   11 1
  20   10   18 1
  21   10   19 1
  22   11   12 2
  23   12   13 1
  24   12   34 1
  25   13   14 ar
  26   13   18 ar
  27   14   15 ar
  28   14   35 1
  29   15   16 ar
  30   16   17 ar
  31   16   36 1
  32   17   18 ar
  33   17   37 1
  34   19   20 ar
  35   19   24 ar
  36   20   21 ar
  37   20   38 1
  38   21   22 ar
  39   21   39 1
  40   22   23 ar
  41   22   25 1
  42   23   24 ar
  43   23   40 1
  44   24   41 1
  45   29   42 1

#	End of record

