#	Name: ASD05380008
#	Creating user name:	WinNT
#	Creation time:	15. 06. 2019 20:59

#	Modifying user name:	WinNT
#	Modification time:	15. 06. 2019 20:59

#	Program:	/corina/corina34_cracker 3.40 0067  02.08.2006

@<TRIPOS>MOLECULE
ASD05380008
  50   54    0    0    0
SMALL
NO_CHARGES


@<TRIPOS>ATOM
   1 C1            -0.2693     1.7423    -0.3091 C.ar    
   2 C2            -0.0032     0.3790    -0.5679 C.ar    
   3 C3             0.6325     2.7202    -0.7230 C.ar    
   4 C4             1.7822     2.3471    -1.3846 C.ar    
   5 C5             2.0467     1.0084    -1.6410 C.ar    
   6 C6             1.1688     0.0263    -1.2395 C.ar    
   7 C7             0.3524     4.1755    -0.4495 C.3     
   8 N8            -0.8955    -0.5557    -0.1552 N.2     
   9 C9            -1.9849    -0.2275     0.4702 C.2     
  10 N10           -2.3216     1.0582     0.7612 N.am    
  11 C11           -1.5087     2.0803     0.4057 C.2     
  12 C12           -3.5174     1.3261     1.4394 C.ar    
  13 C13           -4.6867     1.5519     0.7253 C.ar    
  14 C14           -3.5374     1.3607     2.8275 C.ar    
  15 C15           -4.7182     1.6246     3.4933 C.ar    
  16 C16           -5.8800     1.8538     2.7792 C.ar    
  17 C17           -5.8644     1.8152     1.3970 C.ar    
  18 C18           -2.9246    -1.3265     0.8948 C.3     
  19 N19           -2.9256    -2.3861    -0.1169 N.pl3   
  20 C20           -4.0280    -3.2204    -0.2474 C.ar    
  21 N21           -5.0761    -3.0570     0.5425 N.ar    
  22 C22           -2.4638    -1.9019     2.2355 C.3     
  23 O23           -1.7972     3.2353     0.6597 O.2     
  24 C24           -4.0295    -4.2304    -1.2202 C.ar    
  25 C25           -5.1595    -5.0598    -1.3297 C.ar    
  26 C26           -6.2322    -4.8456    -0.4682 C.ar    
  27 C27           -6.1519    -3.8261     0.4576 C.ar    
  28 N28           -3.1435    -4.6443    -2.1603 N.2     
  29 C29           -3.6447    -5.6469    -2.8208 C.2     
  30 N30           -4.8882    -5.9432    -2.3471 N.pl3   
  31 F31           -7.1901    -3.6076     1.2941 F       
  32 H32            2.4836     3.1026    -1.7068 H       
  33 H33            2.9523     0.7339    -2.1614 H       
  34 H34            1.3856    -1.0117    -1.4439 H       
  35 H35            0.6724     4.4231     0.5626 H       
  36 H36            0.8987     4.7912    -1.1641 H       
  37 H37           -0.7164     4.3648    -0.5492 H       
  38 H38           -4.6752     1.5219    -0.3542 H       
  39 H39           -2.6305     1.1810     3.3858 H       
  40 H40           -4.7344     1.6516     4.5729 H       
  41 H41           -6.8023     2.0592     3.3022 H       
  42 H42           -6.7733     1.9951     0.8421 H       
  43 H43           -3.9318    -0.9231     0.9994 H       
  44 H44           -2.1563    -2.5049    -0.6956 H       
  45 H45           -1.4446    -2.2763     2.1391 H       
  46 H46           -2.4937    -1.1211     2.9955 H       
  47 H47           -3.1247    -2.7182     2.5270 H       
  48 H48           -7.1150    -5.4650    -0.5268 H       
  49 H49           -3.1486    -6.1677    -3.6264 H       
  50 H50           -5.4729    -6.6475    -2.6681 H       
@<TRIPOS>BOND
   1    1    2 ar
   2    1    3 ar
   3    1   11 1
   4    2    8 1
   5    2    6 ar
   6    3    4 ar
   7    3    7 1
   8    4    5 ar
   9    4   32 1
  10    5    6 ar
  11    5   33 1
  12    6   34 1
  13    7   35 1
  14    7   36 1
  15    7   37 1
  16    8    9 2
  17    9   10 1
  18    9   18 1
  19   10   11 am
  20   10   12 1
  21   11   23 2
  22   12   13 ar
  23   12   14 ar
  24   13   17 ar
  25   13   38 1
  26   14   15 ar
  27   14   39 1
  28   15   16 ar
  29   15   40 1
  30   16   17 ar
  31   16   41 1
  32   17   42 1
  33   18   19 1
  34   18   22 1
  35   18   43 1
  36   19   20 1
  37   19   44 1
  38   20   21 ar
  39   20   24 ar
  40   21   27 ar
  41   22   45 1
  42   22   46 1
  43   22   47 1
  44   24   25 ar
  45   24   28 1
  46   25   26 ar
  47   25   30 1
  48   26   27 ar
  49   26   48 1
  50   27   31 1
  51   28   29 2
  52   29   30 1
  53   29   49 1
  54   30   50 1

#	End of record

