#	Name: ASD04910485
#	Creating user name:	WinNT
#	Creation time:	15. 06. 2019 20:56

#	Modifying user name:	WinNT
#	Modification time:	15. 06. 2019 20:56

#	Program:	/corina/corina34_cracker 3.40 0067  02.08.2006

@<TRIPOS>MOLECULE
ASD04910485
  63   66    0    0    0
SMALL
NO_CHARGES


@<TRIPOS>ATOM
   1 C1             1.4238     1.5554     2.1575 C.2     
   2 C2             1.2302     0.0908     1.8599 C.3     
   3 C3             2.5912    -0.5646     1.6171 C.3     
   4 O4             2.5362     2.0266     2.1738 O.2     
   5 O5             0.3600     2.3375     2.3990 O.3     
   6 C6             3.4707    -2.7725     1.0798 C.2     
   7 C7             3.2808    -4.2094     0.7879 C.ar    
   8 C8             4.3844    -5.0242     0.5306 C.ar    
   9 C9             4.2003    -6.3643     0.2594 C.ar    
  10 C10            2.9250    -6.9007     0.2415 C.ar    
  11 C11            1.8268    -6.0985     0.4956 C.ar    
  12 C12            1.9975    -4.7581     0.7740 C.ar    
  13 O13            4.5899    -2.2984     1.0962 O.2     
  14 N14            2.4030    -1.9884     1.3278 N.am    
  15 C15            2.7314    -8.3652    -0.0566 C.3     
  16 O16            1.6359    -8.8669     0.7117 O.3     
  17 C17            2.0486   -12.5557     2.3009 C.ar    
  18 N18            2.9866   -12.0955     1.4894 N.ar    
  19 C19            2.8854   -10.8921     0.9501 C.ar    
  20 C20            1.7747   -10.1092     1.2466 C.ar    
  21 C21            0.8098   -10.6274     2.1038 C.ar    
  22 N22            0.9789   -11.8394     2.6053 N.ar    
  23 N23            2.1885   -13.8334     2.8458 N.pl3   
  24 N24            3.2534   -14.7152     2.6198 N.2     
  25 C25            3.0303   -15.8099     3.2999 C.2     
  26 C26            1.8170   -15.6656     3.9829 C.2     
  27 C27            1.3190   -14.4414     3.6947 C.2     
  28 C28            1.1809   -16.6910     4.8856 C.3     
  29 F29            1.9929   -17.8287     4.9441 F       
  30 F30            1.0353   -16.1555     6.1698 F       
  31 F31           -0.0762   -17.0407     4.3809 F       
  32 C32            2.4352    -8.5476    -1.5465 C.3     
  33 C33            2.2204   -10.0140    -1.9569 C.3     
  34 C34            1.0881    -9.5110    -2.8678 C.3     
  35 C35            0.9612    -8.3106    -1.9151 C.3     
  36 C36            1.5560    -9.1307    -4.2740 C.3     
  37 C37           -0.1423   -10.4204    -2.8752 C.3     
  38 H38            0.7410    -0.3905     2.7067 H       
  39 H39            0.6097    -0.0204     0.9706 H       
  40 H40            3.0804    -0.0833     0.7703 H       
  41 H41            3.2117    -0.4535     2.5064 H       
  42 H42            0.5341     3.2703     2.5849 H       
  43 H43            5.3803    -4.6065     0.5436 H       
  44 H44            5.0534    -6.9959     0.0602 H       
  45 H45            0.8340    -6.5234     0.4802 H       
  46 H46            1.1398    -4.1339     0.9766 H       
  47 H47            1.5099    -2.3667     1.3147 H       
  48 H48            3.6379    -8.9119     0.2033 H       
  49 H49            3.6549   -10.5223     0.2887 H       
  50 H50           -0.0657   -10.0477     2.3567 H       
  51 H51            3.6726   -16.6777     3.3291 H       
  52 H52            0.3961   -14.0240     4.0693 H       
  53 H53            3.1380    -8.0137    -2.1862 H       
  54 H54            3.0614   -10.4426    -2.5018 H       
  55 H55            1.8750   -10.6495    -1.1414 H       
  56 H56            0.2716    -8.4804    -1.0882 H       
  57 H57            0.7857    -7.3641    -2.4264 H       
  58 H58            1.9997   -10.0012    -4.7571 H       
  59 H59            0.7039    -8.7853    -4.8594 H       
  60 H60            2.2976    -8.3347    -4.2073 H       
  61 H61           -0.5458   -10.4940    -1.8653 H       
  62 H62           -0.8990   -10.0025    -3.5392 H       
  63 H63            0.1413   -11.4126    -3.2264 H       
@<TRIPOS>BOND
   1    1    2 1
   2    1    4 2
   3    1    5 1
   4    2    3 1
   5    2   38 1
   6    2   39 1
   7    3   14 1
   8    3   40 1
   9    3   41 1
  10    5   42 1
  11    6    7 1
  12    6   13 2
  13    6   14 am
  14    7    8 ar
  15    7   12 ar
  16    8    9 ar
  17    8   43 1
  18    9   10 ar
  19    9   44 1
  20   10   11 ar
  21   10   15 1
  22   11   12 ar
  23   11   45 1
  24   12   46 1
  25   14   47 1
  26   15   16 1
  27   15   32 1
  28   15   48 1
  29   16   20 1
  30   17   18 ar
  31   17   22 ar
  32   17   23 1
  33   18   19 ar
  34   19   20 ar
  35   19   49 1
  36   20   21 ar
  37   21   22 ar
  38   21   50 1
  39   23   24 1
  40   23   27 1
  41   24   25 2
  42   25   26 1
  43   25   51 1
  44   26   27 2
  45   26   28 1
  46   27   52 1
  47   28   29 1
  48   28   30 1
  49   28   31 1
  50   32   33 1
  51   32   35 1
  52   32   53 1
  53   33   34 1
  54   33   54 1
  55   33   55 1
  56   34   35 1
  57   34   36 1
  58   34   37 1
  59   35   56 1
  60   35   57 1
  61   36   58 1
  62   36   59 1
  63   36   60 1
  64   37   61 1
  65   37   62 1
  66   37   63 1

#	End of record

