#	Name: ASD00844386
#	Creating user name:	WinNT
#	Creation time:	15. 06. 2019 18:50

#	Modifying user name:	WinNT
#	Modification time:	15. 06. 2019 18:50

#	Program:	/corina/corina34_cracker 3.40 0067  02.08.2006

@<TRIPOS>MOLECULE
ASD00844386
  88   93    0    0    0
SMALL
NO_CHARGES


@<TRIPOS>ATOM
   1 F1            -0.0994    -3.1559     4.7110 F       
   2 C2            -0.0140     1.3805     0.0278 C.ar    
   3 C3             0.0035    -0.0064     0.0123 C.ar    
   4 C4             1.2150    -0.6825    -0.0057 C.ar    
   5 C5             2.4003     0.0266    -0.0081 C.ar    
   6 C6             2.3802     1.4092     0.0080 C.ar    
   7 C7             1.1745     2.0852     0.0254 C.ar    
   8 C8             1.2376    -2.1893    -0.0222 C.3     
   9 C9             0.4951    -2.7176    -1.2310 C.2     
  10 N10            2.6177    -2.6807    -0.0124 N.am    
  11 C11            3.4634    -2.3342    -1.0029 C.2     
  12 N12            4.7590    -2.7005    -0.9417 N.am    
  13 O13            3.0576    -1.6913    -1.9517 O.2     
  14 C14            5.2905    -3.3763     0.2497 C.3     
  15 C15            6.5169    -2.6053     0.7481 C.3     
  16 C16            7.5240    -2.4627    -0.3953 C.3     
  17 C17            6.8890    -1.6715    -1.5411 C.3     
  18 C18            5.6654    -2.4369    -2.0676 C.3     
  19 C19            8.7653    -1.7233     0.1081 C.3     
  20 C20            9.4029    -2.5145     1.2535 C.3     
  21 C21           10.6772    -1.8018     1.7120 C.3     
  22 N22           11.6132    -1.6967     0.5853 N.3     
  23 C23           11.0408    -0.9009    -0.5080 C.3     
  24 C24            9.7774    -1.5867    -1.0328 C.3     
  25 H25           12.4982    -1.3160     0.8848 H       
  26 O26            0.7753    -2.5153    -2.3937 O.2     
  27 N27           -0.5321    -3.4534    -0.7741 N.am    
  28 C28            0.4669    -2.7432     1.1541 C.ar    
  29 C29           -0.5772    -3.4889     0.6211 C.ar    
  30 C30            0.6298    -2.6298     2.5163 C.ar    
  31 C31           -0.2551    -3.2648     3.3734 C.ar    
  32 C32           -1.3003    -4.0113     2.8535 C.ar    
  33 C33           -1.4636    -4.1250     1.4872 C.ar    
  34 Cl34          -2.4099    -4.8074     3.9253 Cl      
  35 C35           -0.9842    -5.8418    -2.0649 C.ar    
  36 C36            0.1946    -5.9972    -2.7794 C.ar    
  37 C37           -1.6562    -6.9529    -1.5930 C.ar    
  38 C38           -1.1546    -8.2188    -1.8320 C.ar    
  39 C39            0.0204    -8.3764    -2.5441 C.ar    
  40 C40            0.6957    -7.2688    -3.0183 C.ar    
  41 H41            0.4102    -9.3663    -2.7295 H       
  42 O42            0.8572    -4.9058    -3.2450 O.3     
  43 C43            2.0643    -5.1413    -3.9726 C.3     
  44 C44            2.6637    -3.8041    -4.4126 C.3     
  45 S45           -1.6200    -4.2284    -1.7530 S.o2    
  46 O46           -2.8000    -4.4044    -0.9810 O.2     
  47 O47           -1.6004    -3.5420    -2.9971 O.2     
  48 O48           -1.1641    -0.7019     0.0151 O.3     
  49 C49           -2.3729     0.0599     0.0344 C.3     
  50 C50           -3.5735    -0.8885     0.0347 C.3     
  51 F51           -3.5410    -1.6823    -1.1168 F       
  52 F52           -3.5204    -1.7077     1.1675 F       
  53 H53           -0.9557     1.9091     0.0373 H       
  54 H54            3.3436    -0.4992    -0.0221 H       
  55 H55            3.3081     1.9619     0.0068 H       
  56 H56            1.1614     3.1651     0.0379 H       
  57 H57            2.9228    -3.2554     0.7070 H       
  58 H58            4.5289    -3.3950     1.0294 H       
  59 H59            5.5790    -4.3957    -0.0066 H       
  60 H60            6.2110    -1.6162     1.0890 H       
  61 H61            6.9776    -3.1486     1.5731 H       
  62 H62            7.8107    -3.4519    -0.7522 H       
  63 H63            6.5796    -0.6912    -1.1786 H       
  64 H64            7.6145    -1.5502    -2.3454 H       
  65 H65            5.9872    -3.3785    -2.5128 H       
  66 H66            5.1512    -1.8336    -2.8157 H       
  67 H67            8.4802    -0.7332     0.4638 H       
  68 H68            8.7021    -2.5784     2.0859 H       
  69 H69            9.6514    -3.5181     0.9083 H       
  70 H70           10.4261    -0.8033     2.0698 H       
  71 H71           11.1413    -2.3702     2.5179 H       
  72 H72           10.7880     0.0934    -0.1398 H       
  73 H73           11.7691    -0.8150    -1.3145 H       
  74 H74           10.0317    -2.5757    -1.4139 H       
  75 H75            9.3441    -0.9878    -1.8338 H       
  76 H76            1.4463    -2.0471     2.9166 H       
  77 H77           -2.2806    -4.7085     1.0890 H       
  78 H78           -2.5740    -6.8325    -1.0366 H       
  79 H79           -1.6810    -9.0861    -1.4617 H       
  80 H80            1.6129    -7.3924    -3.5750 H       
  81 H81            2.7760    -5.6663    -3.3354 H       
  82 H82            1.8464    -5.7485    -4.8511 H       
  83 H83            3.5844    -3.9837    -4.9676 H       
  84 H84            1.9520    -3.2791    -5.0497 H       
  85 H85            2.8816    -3.1969    -3.5340 H       
  86 H86           -2.3983     0.6784     0.9316 H       
  87 H87           -2.4143     0.6982    -0.8482 H       
  88 H88           -4.4956    -0.3074     0.0495 H       
@<TRIPOS>BOND
   1    1   31 1
   2    2    3 ar
   3    2    7 ar
   4    2   53 1
   5    3    4 ar
   6    3   48 1
   7    4    5 ar
   8    4    8 1
   9    5    6 ar
  10    5   54 1
  11    6    7 ar
  12    6   55 1
  13    7   56 1
  14    8    9 1
  15    8   10 1
  16    8   28 1
  17    9   26 2
  18    9   27 am
  19   10   11 am
  20   10   57 1
  21   11   12 am
  22   11   13 2
  23   12   14 1
  24   12   18 1
  25   14   15 1
  26   14   58 1
  27   14   59 1
  28   15   16 1
  29   15   60 1
  30   15   61 1
  31   16   17 1
  32   16   19 1
  33   16   62 1
  34   17   18 1
  35   17   63 1
  36   17   64 1
  37   18   65 1
  38   18   66 1
  39   19   20 1
  40   19   24 1
  41   19   67 1
  42   20   21 1
  43   20   68 1
  44   20   69 1
  45   21   22 1
  46   21   70 1
  47   21   71 1
  48   22   23 1
  49   22   25 1
  50   23   24 1
  51   23   72 1
  52   23   73 1
  53   24   74 1
  54   24   75 1
  55   27   45 am
  56   27   29 1
  57   28   29 ar
  58   28   30 ar
  59   29   33 ar
  60   30   31 ar
  61   30   76 1
  62   31   32 ar
  63   32   33 ar
  64   32   34 1
  65   33   77 1
  66   35   36 ar
  67   35   37 ar
  68   35   45 1
  69   36   42 1
  70   36   40 ar
  71   37   38 ar
  72   37   78 1
  73   38   39 ar
  74   38   79 1
  75   39   40 ar
  76   39   41 1
  77   40   80 1
  78   42   43 1
  79   43   44 1
  80   43   81 1
  81   43   82 1
  82   44   83 1
  83   44   84 1
  84   44   85 1
  85   45   46 2
  86   45   47 2
  87   48   49 1
  88   49   50 1
  89   49   86 1
  90   49   87 1
  91   50   51 1
  92   50   52 1
  93   50   88 1

#	End of record

