#	Name: ASD01885116
#	Creating user name:	WinNT
#	Creation time:	15. 06. 2019 19:49

#	Modifying user name:	WinNT
#	Modification time:	15. 06. 2019 19:49

#	Program:	/corina/corina34_cracker 3.40 0067  02.08.2006

@<TRIPOS>MOLECULE
ASD01885116
  49   53    0    0    0
SMALL
NO_CHARGES


@<TRIPOS>ATOM
   1 C1             0.0849     1.3297     0.5681 C.2     
   2 C2             1.0988    -0.5719    -0.4611 C.2     
   3 C3             2.2954     0.1582    -0.5620 C.2     
   4 C4             2.3608     1.4272    -0.1072 C.2     
   5 N5             1.2681     2.0180     0.4558 N.pl3   
   6 C6             1.0353     3.2481     0.9887 C.2     
   7 N7            -0.2101     3.2747     1.3880 N.2     
   8 N8            -0.7822     2.1490     1.1403 N.2     
   9 C9             2.0308     4.3741     1.0996 C.3     
  10 C10            1.0319    -1.9886    -0.9707 C.3     
  11 C11            1.9632     5.2404    -0.1596 C.3     
  12 N12            0.7279    -1.9782    -2.4079 N.3     
  13 C13            0.0013     0.0049     0.0982 C.2     
  14 C14           -1.2890    -0.7649     0.2141 C.3     
  15 C15            2.8180     6.5090    -0.1911 C.3     
  16 C16            3.2106     5.3006    -1.0435 C.3     
  17 F17           -1.2062    -1.6546     1.2906 F       
  18 F18           -2.3464     0.1263     0.4260 F       
  19 F19           -1.5124    -1.4812    -0.9667 F       
  20 C20            0.8877    -3.3230    -2.9917 C.3     
  21 C21            1.9032    -1.5584    -3.1937 C.3     
  22 C22            1.5488    -2.6565    -4.2063 C.3     
  23 C23            2.7399    -3.4040    -4.7481 C.ar    
  24 C24            2.7330    -3.8634    -6.0518 C.ar    
  25 C25            3.8256    -4.5491    -6.5488 C.ar    
  26 C26            4.9252    -4.7750    -5.7421 C.ar    
  27 C27            4.9325    -4.3148    -4.4386 C.ar    
  28 C28            3.8416    -3.6253    -3.9430 C.ar    
  29 H29            3.1676    -0.2988    -1.0056 H       
  30 H30            3.2855     1.9789    -0.1895 H       
  31 H31            1.7950     4.9828     1.9725 H       
  32 H32            3.0347     3.9625     1.2041 H       
  33 H33            1.9909    -2.4797    -0.8058 H       
  34 H34            0.2501    -2.5299    -0.4379 H       
  35 H35            0.9929     5.2750    -0.6550 H       
  36 H36            2.4102     7.3780    -0.7074 H       
  37 H37            3.4284     6.7264     0.6854 H       
  38 H38            4.0795     4.7230    -0.7278 H       
  39 H39            3.0612     5.3747    -2.1206 H       
  40 H40            1.5642    -3.9642    -2.4265 H       
  41 H41           -0.0589    -3.8102    -3.2254 H       
  42 H42            1.8172    -0.5501    -3.5987 H       
  43 H43            2.8507    -1.7287    -2.6824 H       
  44 H44            0.8476    -2.3415    -4.9791 H       
  45 H45            1.8739    -3.6869    -6.6820 H       
  46 H46            3.8200    -4.9087    -7.5671 H       
  47 H47            5.7786    -5.3113    -6.1302 H       
  48 H48            5.7915    -4.4915    -3.8083 H       
  49 H49            3.8488    -3.2625    -2.9258 H       
@<TRIPOS>BOND
   1    1   13 1
   2    1    5 1
   3    1    8 2
   4    2    3 1
   5    2   10 1
   6    2   13 2
   7    3    4 2
   8    3   29 1
   9    4    5 1
  10    4   30 1
  11    5    6 1
  12    6    7 2
  13    6    9 1
  14    7    8 1
  15    9   11 1
  16    9   31 1
  17    9   32 1
  18   10   12 1
  19   10   33 1
  20   10   34 1
  21   11   15 1
  22   11   16 1
  23   11   35 1
  24   12   20 1
  25   12   21 1
  26   13   14 1
  27   14   17 1
  28   14   18 1
  29   14   19 1
  30   15   16 1
  31   15   36 1
  32   15   37 1
  33   16   38 1
  34   16   39 1
  35   20   22 1
  36   20   40 1
  37   20   41 1
  38   21   22 1
  39   21   42 1
  40   21   43 1
  41   22   23 1
  42   22   44 1
  43   23   24 ar
  44   23   28 ar
  45   24   25 ar
  46   24   45 1
  47   25   26 ar
  48   25   46 1
  49   26   27 ar
  50   26   47 1
  51   27   28 ar
  52   27   48 1
  53   28   49 1

#	End of record

