#	Name: ASD01917001
#	Creating user name:	WinNT
#	Creation time:	15. 06. 2019 20:08

#	Modifying user name:	WinNT
#	Modification time:	15. 06. 2019 20:08

#	Program:	/corina/corina34_cracker 3.40 0067  02.08.2006

@<TRIPOS>MOLECULE
ASD01917001
  59   63    0    0    0
SMALL
NO_CHARGES


@<TRIPOS>ATOM
   1 C1            -0.1128     1.8965     1.1531 C.ar    
   2 C2            -0.1219     0.5786     1.5805 C.ar    
   3 C3             1.0711    -0.0925     1.7948 C.ar    
   4 C4             2.2738     0.5496     1.5833 C.ar    
   5 C5             2.2875     1.8749     1.1531 C.ar    
   6 C6             1.0854     2.5461     0.9387 C.ar    
   7 C7             3.5788     2.5698     0.9247 C.2     
   8 N8             4.7916     2.0322     1.0961 N.2     
   9 N9             3.7161     3.8125     0.5154 N.2     
  10 N10            5.0949     4.0654     0.4327 N.pl3   
  11 C11            5.7167     2.9224     0.8053 C.2     
  12 C12            7.1794     2.7110     0.8746 C.ar    
  13 C13            5.7340     5.3176     0.0206 C.3     
  14 C14            5.8376     6.2425     1.2058 C.2     
  15 O15            5.4188     5.8905     2.2882 O.2     
  16 N16            6.3956     7.4610     1.0630 N.am    
  17 C17            6.5066     8.3792     2.2066 C.3     
  18 C18            7.9562     8.8673     2.3001 C.3     
  19 N19            8.3632     9.4335     1.0071 N.3     
  20 C20            8.3434     8.4144    -0.0507 C.3     
  21 C21            6.9152     7.9054    -0.2392 C.3     
  22 C22            9.6139    10.0334     1.0976 C.ar    
  23 C23            8.0403     3.8038     0.9804 C.ar    
  24 N24           10.6693     9.3041     1.4262 N.ar    
  25 C25            9.7466    11.3932     0.8366 C.ar    
  26 C26           10.9971    11.9773     0.9303 C.ar    
  27 C27           12.0767    11.1788     1.2832 C.ar    
  28 C28           11.8736     9.8344     1.5230 C.ar    
  29 F29           -1.2974    -0.0537     1.7892 F       
  30 C30            9.4030     3.6014     1.0446 C.ar    
  31 C31            9.9176     2.3152     1.0038 C.ar    
  32 C32            9.0667     1.2264     0.8984 C.ar    
  33 C33            7.7021     1.4178     0.8402 C.ar    
  34 F34           11.2532     2.1222     1.0667 F       
  35 C35            8.5445    12.2187     0.4564 C.3     
  36 F36            8.9482    13.5285     0.1757 F       
  37 F37            7.9377    11.6650    -0.6760 F       
  38 F38            7.6317    12.2292     1.5165 F       
  39 H39           -1.0450     2.4147     0.9833 H       
  40 H40            1.0595    -1.1197     2.1283 H       
  41 H41            3.2033     0.0260     1.7513 H       
  42 H42            1.0916     3.5733     0.6052 H       
  43 H43            6.7319     5.1068    -0.3641 H       
  44 H44            5.1368     5.7910    -0.7587 H       
  45 H45            5.8424     9.2307     2.0583 H       
  46 H46            6.2365     7.8560     3.1239 H       
  47 H47            8.0332     9.6324     3.0726 H       
  48 H48            8.6066     8.0295     2.5512 H       
  49 H49            8.7013     8.8511    -0.9831 H       
  50 H50            8.9884     7.5829     0.2331 H       
  51 H51            6.9135     7.0706    -0.9401 H       
  52 H52            6.2873     8.7099    -0.6221 H       
  53 H53            7.6404     4.8065     1.0115 H       
  54 H54           11.1306    13.0307     0.7330 H       
  55 H55           13.0661    11.6040     1.3647 H       
  56 H56           12.7105     9.2096     1.7978 H       
  57 H57           10.0703     4.4466     1.1265 H       
  58 H58            9.4726     0.2261     0.8663 H       
  59 H59            7.0397     0.5687     0.7584 H       
@<TRIPOS>BOND
   1    1    2 ar
   2    1    6 ar
   3    1   39 1
   4    2    3 ar
   5    2   29 1
   6    3    4 ar
   7    3   40 1
   8    4    5 ar
   9    4   41 1
  10    5    6 ar
  11    5    7 1
  12    6   42 1
  13    7    8 1
  14    7    9 2
  15    8   11 2
  16    9   10 1
  17   10   11 1
  18   10   13 1
  19   11   12 1
  20   12   23 ar
  21   12   33 ar
  22   13   14 1
  23   13   43 1
  24   13   44 1
  25   14   15 2
  26   14   16 am
  27   16   17 1
  28   16   21 1
  29   17   18 1
  30   17   45 1
  31   17   46 1
  32   18   19 1
  33   18   47 1
  34   18   48 1
  35   19   20 1
  36   19   22 1
  37   20   21 1
  38   20   49 1
  39   20   50 1
  40   21   51 1
  41   21   52 1
  42   22   25 ar
  43   22   24 ar
  44   23   30 ar
  45   23   53 1
  46   24   28 ar
  47   25   26 ar
  48   25   35 1
  49   26   27 ar
  50   26   54 1
  51   27   28 ar
  52   27   55 1
  53   28   56 1
  54   30   31 ar
  55   30   57 1
  56   31   32 ar
  57   31   34 1
  58   32   33 ar
  59   32   58 1
  60   33   59 1
  61   35   36 1
  62   35   37 1
  63   35   38 1

#	End of record

