#	Name: ASD01910482
#	Creating user name:	WinNT
#	Creation time:	15. 06. 2019 19:55

#	Modifying user name:	WinNT
#	Modification time:	15. 06. 2019 19:55

#	Program:	/corina/corina34_cracker 3.40 0067  02.08.2006

@<TRIPOS>MOLECULE
ASD01910482
  44   47    0    0    0
SMALL
NO_CHARGES


@<TRIPOS>ATOM
   1 C1             0.0501     1.4691     0.0547 C.ar    
   2 C2             0.0549    -0.0144     0.0358 C.2     
   3 N3            -1.0306    -0.8209     0.0395 N.2     
   4 C4            -0.5607    -2.0433     0.0179 C.2     
   5 O5             0.7728    -1.9522     0.0019 O.3     
   6 N6             1.1097    -0.7871     0.0067 N.2     
   7 C7            -1.3713    -3.3137     0.0122 C.3     
   8 C8            -1.0540    -4.1163    -1.2517 C.3     
   9 C9            -1.9008    -5.3909    -1.2746 C.3     
  10 C10           -1.5542    -6.2515    -0.0556 C.3     
  11 N11           -1.7180    -5.4399     1.1582 N.am    
  12 C12           -1.0186    -4.1508     1.2458 C.3     
  13 C13           -2.4950    -5.8699     2.1721 C.2     
  14 C14           -3.2647    -7.1212     2.0324 C.ar    
  15 O15           -2.5618    -5.2268     3.2017 O.2     
  16 C16            1.2545     2.1737     0.0482 C.ar    
  17 C17            1.2424     3.5566     0.0659 C.ar    
  18 C18            0.0405     4.2390     0.0906 C.ar    
  19 C19           -1.1561     3.5442     0.0976 C.ar    
  20 C20           -1.1573     2.1645     0.0732 C.ar    
  21 C21           -2.6147    -8.3104     1.6935 C.ar    
  22 C22           -3.3380    -9.4760     1.5649 C.ar    
  23 C23           -4.7098    -9.4720     1.7709 C.ar    
  24 C24           -5.3624    -8.2972     2.1073 C.ar    
  25 C25           -4.6479    -7.1228     2.2446 C.ar    
  26 F26           -5.4125   -10.6187     1.6425 F       
  27 F27           -5.2842    -5.9771     2.5730 F       
  28 F28            2.4292     1.5069     0.0250 F       
  29 H29           -2.4330    -3.0679     0.0301 H       
  30 H30           -1.2810    -3.5137    -2.1311 H       
  31 H31            0.0030    -4.3825    -1.2570 H       
  32 H32           -2.9577    -5.1260    -1.2442 H       
  33 H33           -1.6915    -5.9504    -2.1863 H       
  34 H34           -2.2228    -7.1113    -0.0132 H       
  35 H35           -0.5216    -6.5923    -0.1306 H       
  36 H36            0.0577    -4.3203     1.2768 H       
  37 H37           -1.3338    -3.6245     2.1468 H       
  38 H38            2.1733     4.1041     0.0609 H       
  39 H39            0.0354     5.3189     0.1047 H       
  40 H40           -2.0918     4.0832     0.1172 H       
  41 H41           -2.0925     1.6244     0.0784 H       
  42 H42           -1.5468    -8.3160     1.5322 H       
  43 H43           -2.8356   -10.3953     1.3025 H       
  44 H44           -6.4306    -8.3002     2.2661 H       
@<TRIPOS>BOND
   1    1    2 1
   2    1   16 ar
   3    1   20 ar
   4    2    3 1
   5    2    6 2
   6    3    4 2
   7    4    5 1
   8    4    7 1
   9    5    6 1
  10    7    8 1
  11    7   12 1
  12    7   29 1
  13    8    9 1
  14    8   30 1
  15    8   31 1
  16    9   10 1
  17    9   32 1
  18    9   33 1
  19   10   11 1
  20   10   34 1
  21   10   35 1
  22   11   12 1
  23   11   13 am
  24   12   36 1
  25   12   37 1
  26   13   14 1
  27   13   15 2
  28   14   21 ar
  29   14   25 ar
  30   16   17 ar
  31   16   28 1
  32   17   18 ar
  33   17   38 1
  34   18   19 ar
  35   18   39 1
  36   19   20 ar
  37   19   40 1
  38   20   41 1
  39   21   22 ar
  40   21   42 1
  41   22   23 ar
  42   22   43 1
  43   23   24 ar
  44   23   26 1
  45   24   25 ar
  46   24   44 1
  47   25   27 1

#	End of record

