#	Name: ASD02038816
#	Creating user name:	WinNT
#	Creation time:	15. 06. 2019 20:17

#	Modifying user name:	WinNT
#	Modification time:	15. 06. 2019 20:17

#	Program:	/corina/corina34_cracker 3.40 0067  02.08.2006

@<TRIPOS>MOLECULE
ASD02038816
  49   52    0    0    0
SMALL
NO_CHARGES


@<TRIPOS>ATOM
   1 C1            -1.2822    -0.8506     0.4647 C.2     
   2 C2            -0.0603    -0.0340     0.3013 C.2     
   3 N3             1.1371    -0.6350     0.1537 N.am    
   4 C4             1.2417    -2.0930     0.2504 C.3     
   5 C5             1.2141    -2.6914    -1.1325 C.ar    
   6 C6             2.3338     0.1699    -0.1034 C.3     
   7 O7            -0.1356     1.1792     0.3002 O.2     
   8 N8            -1.3381    -2.1946     0.4954 N.2     
   9 C9            -2.5937    -2.5276     0.6547 C.2     
  10 N10           -3.3113    -1.3911     0.7223 N.pl3   
  11 N11           -2.5058    -0.3916     0.6114 N.2     
  12 C12            2.3968    -3.0125    -1.7680 C.ar    
  13 C13            2.1225     1.0141    -1.3640 C.3     
  14 C14            3.3456     1.9091    -1.5803 C.3     
  15 O15            3.5451     2.7279    -0.4262 O.3     
  16 C16            3.7946     1.9935     0.7741 C.3     
  17 C17            2.5896     1.1019     1.0850 C.3     
  18 C18           -4.7632    -1.3048     0.8982 C.3     
  19 C19            0.0038    -2.9230    -1.7603 C.ar    
  20 C20           -0.0287    -3.4725    -3.0294 C.ar    
  21 C21            1.1479    -3.7924    -3.6759 C.ar    
  22 C22            2.3698    -3.5655    -3.0461 C.ar    
  23 C23            3.6388    -3.9077    -3.7367 C.2     
  24 C24            3.7577    -4.4479    -4.9839 C.2     
  25 N25            5.0727    -4.6039    -5.2372 N.pl3   
  26 N26            5.7897    -4.1508    -4.1232 N.2     
  27 C27            4.9390    -3.7281    -3.2259 C.2     
  28 H28            2.1775    -2.3583     0.7424 H       
  29 H29            0.4039    -2.4798     0.8304 H       
  30 H30            3.1919    -0.4873    -0.2443 H       
  31 H31           -2.9834    -3.5327     0.7199 H       
  32 H32            3.3413    -2.8350    -1.2752 H       
  33 H33            1.9947     0.3577    -2.2247 H       
  34 H34            1.2343     1.6341    -1.2425 H       
  35 H35            4.2265     1.2880    -1.7420 H       
  36 H36            3.1825     2.5430    -2.4519 H       
  37 H37            4.6815     1.3735     0.6432 H       
  38 H38            3.9551     2.6883     1.5986 H       
  39 H39            1.7109     1.7237     1.2560 H       
  40 H40            2.7959     0.5083     1.9756 H       
  41 H41           -4.9986    -1.2653     1.9617 H       
  42 H42           -5.1354    -0.4042     0.4099 H       
  43 H43           -5.2357    -2.1808     0.4537 H       
  44 H44           -0.9192    -2.6744    -1.2578 H       
  45 H45           -0.9765    -3.6517    -3.5151 H       
  46 H46            1.1215    -4.2220    -4.6664 H       
  47 H47            2.9454    -4.7047    -5.6478 H       
  48 H48            5.4559    -4.9675    -6.0508 H       
  49 H49            5.1892    -3.3189    -2.2582 H       
@<TRIPOS>BOND
   1    1    2 1
   2    1    8 1
   3    1   11 2
   4    2    3 am
   5    2    7 2
   6    3    4 1
   7    3    6 1
   8    4    5 1
   9    4   28 1
  10    4   29 1
  11    5   12 ar
  12    5   19 ar
  13    6   13 1
  14    6   17 1
  15    6   30 1
  16    8    9 2
  17    9   10 1
  18    9   31 1
  19   10   11 1
  20   10   18 1
  21   12   22 ar
  22   12   32 1
  23   13   14 1
  24   13   33 1
  25   13   34 1
  26   14   15 1
  27   14   35 1
  28   14   36 1
  29   15   16 1
  30   16   17 1
  31   16   37 1
  32   16   38 1
  33   17   39 1
  34   17   40 1
  35   18   41 1
  36   18   42 1
  37   18   43 1
  38   19   20 ar
  39   19   44 1
  40   20   21 ar
  41   20   45 1
  42   21   22 ar
  43   21   46 1
  44   22   23 1
  45   23   24 2
  46   23   27 1
  47   24   25 1
  48   24   47 1
  49   25   26 1
  50   25   48 1
  51   26   27 2
  52   27   49 1

#	End of record

