#	Name: ASD03092854
#	Creating user name:	WinNT
#	Creation time:	15. 06. 2019 20:33

#	Modifying user name:	WinNT
#	Modification time:	15. 06. 2019 20:33

#	Program:	/corina/corina34_cracker 3.40 0067  02.08.2006

@<TRIPOS>MOLECULE
ASD03092854
  52   55    0    0    0
SMALL
NO_CHARGES


@<TRIPOS>ATOM
   1 F1             0.0187    -0.0206    -0.0081 F       
   2 C2            -0.0060     1.3782    -0.0003 C.3     
   3 F3             1.3045     1.8677    -0.0071 F       
   4 F4            -0.6818     1.8391    -1.1352 F       
   5 O5            -0.6795     1.8362     1.1739 O.3     
   6 C6            -0.1477     1.4734     2.3717 C.ar    
   7 C7             1.0070     0.6940     2.4097 C.ar    
   8 C8             1.5572     0.3182     3.6016 C.ar    
   9 C9             0.9655     0.7131     4.7984 C.ar    
  10 N10            1.2685     0.5032     6.1202 N.pl3   
  11 N11            0.3134     1.1451     6.9152 N.2     
  12 C12           -0.5665     1.7423     6.1631 C.2     
  13 C13           -0.2011     1.5010     4.7710 C.ar    
  14 C14           -0.7509     1.8835     3.5421 C.ar    
  15 C15            2.4090    -0.2695     6.6187 C.3     
  16 C16            3.3019     0.6331     7.4732 C.3     
  17 C17            4.5112    -0.1691     7.9641 C.3     
  18 N18            4.0309    -1.3726     8.6565 N.am    
  19 C19            3.0950    -2.2637     7.9574 C.3     
  20 C20            1.9015    -1.4381     7.4666 C.3     
  21 C21            4.4414    -1.6542     9.9090 C.2     
  22 O22            5.2874    -0.9620    10.4415 O.2     
  23 N23            3.9142    -2.7029    10.5712 N.am    
  24 C24            4.4386    -3.0772    11.8869 C.3     
  25 C25            3.7448    -2.2459    12.9704 C.3     
  26 C26            4.2415    -2.6984    14.3460 C.3     
  27 O27            3.9838    -4.0946    14.5085 O.3     
  28 C28            4.6450    -4.9251    13.5519 C.3     
  29 C29            4.1646    -4.5621    12.1444 C.3     
  30 H30            1.4718     0.3833     1.4856 H       
  31 H31            2.4521    -0.2862     3.6159 H       
  32 H32           -1.4154     2.3138     6.5082 H       
  33 H33           -1.6432     2.4912     3.5106 H       
  34 H34            2.9828    -0.6547     5.7758 H       
  35 H35            3.6440     1.4777     6.8751 H       
  36 H36            2.7359     0.9988     8.3299 H       
  37 H37            5.1275    -0.4586     7.1129 H       
  38 H38            5.0979     0.4390     8.6526 H       
  39 H39            3.5958    -2.7241     7.1057 H       
  40 H40            2.7472    -3.0377     8.6416 H       
  41 H41            1.3487    -1.0528     8.3234 H       
  42 H42            1.2469    -2.0676     6.8639 H       
  43 H43            3.1874    -3.2100    10.1766 H       
  44 H44            5.5127    -2.8941    11.9168 H       
  45 H45            3.9802    -1.1913    12.8270 H       
  46 H46            2.6665    -2.3914    12.9065 H       
  47 H47            5.3131    -2.5151    14.4239 H       
  48 H48            3.7195    -2.1396    15.1228 H       
  49 H49            5.7219    -4.7709    13.6194 H       
  50 H50            4.4137    -5.9704    13.7566 H       
  51 H51            3.0947    -4.7543    12.0638 H       
  52 H52            4.7001    -5.1639    11.4101 H       
@<TRIPOS>BOND
   1    1    2 1
   2    2    3 1
   3    2    4 1
   4    2    5 1
   5    5    6 1
   6    6   14 ar
   7    6    7 ar
   8    7    8 ar
   9    7   30 1
  10    8    9 ar
  11    8   31 1
  12    9   13 ar
  13    9   10 1
  14   10   11 1
  15   10   15 1
  16   11   12 2
  17   12   13 1
  18   12   32 1
  19   13   14 ar
  20   14   33 1
  21   15   20 1
  22   15   16 1
  23   15   34 1
  24   16   17 1
  25   16   35 1
  26   16   36 1
  27   17   18 1
  28   17   37 1
  29   17   38 1
  30   18   19 1
  31   18   21 am
  32   19   20 1
  33   19   39 1
  34   19   40 1
  35   20   41 1
  36   20   42 1
  37   21   22 2
  38   21   23 am
  39   23   24 1
  40   23   43 1
  41   24   29 1
  42   24   25 1
  43   24   44 1
  44   25   26 1
  45   25   45 1
  46   25   46 1
  47   26   27 1
  48   26   47 1
  49   26   48 1
  50   27   28 1
  51   28   29 1
  52   28   49 1
  53   28   50 1
  54   29   51 1
  55   29   52 1

#	End of record

