#	Name: ASD01028492
#	Creating user name:	WinNT
#	Creation time:	15. 06. 2019 18:57

#	Modifying user name:	WinNT
#	Modification time:	15. 06. 2019 18:57

#	Program:	/corina/corina34_cracker 3.40 0067  02.08.2006

@<TRIPOS>MOLECULE
ASD01028492
  47   51    0    0    0
SMALL
NO_CHARGES


@<TRIPOS>ATOM
   1 C1            -0.0171     1.4118     0.0098 C.ar    
   2 C2             0.0021    -0.0041     0.0020 C.ar    
   3 C3             1.2105     2.1116     0.0018 C.ar    
   4 C4             2.3793     1.3714    -0.0133 C.ar    
   5 C5             2.3160    -0.0162    -0.0202 C.ar    
   6 N6             1.1704    -0.6565    -0.0123 N.ar    
   7 O7             1.2420     3.4670     0.0084 O.3     
   8 C8             2.5299     4.0861    -0.0005 C.3     
   9 C9             2.3673     5.5842     0.0086 C.2     
  10 N10            2.2907     6.3787     1.1109 N.pl3   
  11 C11            2.1478     7.6610     0.6412 C.2     
  12 N12            2.1445     7.5867    -0.6802 N.2     
  13 N13            2.2796     6.3592    -1.0416 N.2     
  14 C14            2.3286     6.1314     2.4512 C.2     
  15 C15            2.2251     7.1543     3.3429 C.2     
  16 C16            2.0767     8.4842     2.8830 C.2     
  17 C17            2.0395     8.7335     1.5488 C.2     
  18 C18           -1.2152    -0.7043     0.0100 C.ar    
  19 C19           -2.4012    -0.0065     0.0251 C.ar    
  20 C20           -2.4085     1.3917     0.0322 C.ar    
  21 C21           -1.2431     2.0938     0.0309 C.ar    
  22 O22           -3.5786    -0.6840     0.0328 O.3     
  23 C23           -4.7758     0.0961     0.0485 C.3     
  24 C24            2.2675     6.8745     4.7996 C.2     
  25 C25            2.1707     7.8389     5.7328 C.2     
  26 S26            2.2655     7.0753     7.3173 S.3     
  27 C27            2.4256     5.5398     6.5840 C.2     
  28 N28            2.3987     5.6497     5.2959 N.2     
  29 O29            2.5577     4.3713     7.2577 O.3     
  30 C30            2.5615     4.4421     8.6850 C.3     
  31 H31            3.3370     1.8705    -0.0202 H       
  32 H32            3.2348    -0.5838    -0.0321 H       
  33 H33            3.0883     3.7758     0.8827 H       
  34 H34            3.0716     3.7849    -0.8972 H       
  35 H35            2.4411     5.1180     2.8072 H       
  36 H36            1.9937     9.2968     3.5896 H       
  37 H37            1.9268     9.7446     1.1864 H       
  38 H38           -1.2205    -1.7843     0.0039 H       
  39 H39           -3.3501     1.9205     0.0433 H       
  40 H40           -1.2617     3.1736     0.0364 H       
  41 H41           -5.6412    -0.5666     0.0533 H       
  42 H42           -4.7911     0.7202     0.9420 H       
  43 H43           -4.8082     0.7297    -0.8378 H       
  44 H44            2.0551     8.8959     5.5435 H       
  45 H45            1.6221     4.8744     9.0298 H       
  46 H46            2.6735     3.4397     9.0982 H       
  47 H47            3.3917     5.0663     9.0156 H       
@<TRIPOS>BOND
   1    1    2 ar
   2    1    3 ar
   3    1   21 ar
   4    2   18 ar
   5    2    6 ar
   6    3    4 ar
   7    3    7 1
   8    4    5 ar
   9    4   31 1
  10    5    6 ar
  11    5   32 1
  12    7    8 1
  13    8    9 1
  14    8   33 1
  15    8   34 1
  16    9   10 1
  17    9   13 2
  18   10   11 1
  19   10   14 1
  20   11   12 2
  21   11   17 1
  22   12   13 1
  23   14   15 2
  24   14   35 1
  25   15   16 1
  26   15   24 1
  27   16   17 2
  28   16   36 1
  29   17   37 1
  30   18   19 ar
  31   18   38 1
  32   19   20 ar
  33   19   22 1
  34   20   21 ar
  35   20   39 1
  36   21   40 1
  37   22   23 1
  38   23   41 1
  39   23   42 1
  40   23   43 1
  41   24   25 2
  42   24   28 1
  43   25   26 1
  44   25   44 1
  45   26   27 1
  46   27   28 2
  47   27   29 1
  48   29   30 1
  49   30   45 1
  50   30   46 1
  51   30   47 1

#	End of record

