#	Name: ASD03430848
#	Creating user name:	WinNT
#	Creation time:	15. 06. 2019 20:41

#	Modifying user name:	WinNT
#	Modification time:	15. 06. 2019 20:41

#	Program:	/corina/corina34_cracker 3.40 0067  02.08.2006

@<TRIPOS>MOLECULE
ASD03430848
  54   60    0    0    0
SMALL
NO_CHARGES


@<TRIPOS>ATOM
   1 O1            -0.0173     1.4278     0.0099 O.3     
   2 C2             0.0021    -0.0041     0.0020 C.3     
   3 C3             1.0250    -0.4754     1.0444 C.3     
   4 O4             2.3064     0.0538     0.6873 O.3     
   5 C5             2.3518     1.3707     0.3444 C.ar    
   6 C6             1.1912     2.0550     0.0017 C.ar    
   7 C7             3.5703     2.0291     0.3404 C.ar    
   8 C8             3.6450     3.3730    -0.0119 C.ar    
   9 C9             2.4786     4.0435    -0.3679 C.ar    
  10 C10            1.2629     3.3927    -0.3553 C.ar    
  11 O11            4.7262     4.2029    -0.0611 O.3     
  12 C12            2.8831     5.4488    -0.7255 C.3     
  13 C13            4.4077     5.3501    -0.8722 C.3     
  14 N14            1.5506     7.0427    -1.6785 N.am    
  15 C15            2.2303     5.9220    -1.9925 C.2     
  16 C16            2.4837     6.4435     0.3233 C.ar    
  17 C17            2.7534     6.5693     1.6674 C.ar    
  18 C18            2.2235     7.6273     2.3847 C.ar    
  19 C19            1.4228     8.5577     1.7487 C.ar    
  20 C20            1.1499     8.4364     0.4018 C.ar    
  21 C21            1.6791     7.3756    -0.3279 C.ar    
  22 O22            2.3013     5.3985    -3.0843 O.2     
  23 C23            0.7679     7.8212    -2.6416 C.3     
  24 O24           -4.5279     5.8900    -2.7691 O.3     
  25 C25           -5.3635     6.1892    -1.6456 C.3     
  26 C26           -5.1953     7.6759    -1.3041 C.3     
  27 O27           -3.8178     7.9109    -0.9920 O.3     
  28 C28           -2.8985     7.3745    -1.8402 C.ar    
  29 C29           -3.2525     6.3633    -2.7260 C.ar    
  30 C30           -1.5944     7.8451    -1.8166 C.ar    
  31 C31           -0.6486     7.3077    -2.6697 C.ar    
  32 C32           -1.0000     6.3007    -3.5486 C.ar    
  33 C33           -2.2988     5.8282    -3.5785 C.ar    
  34 H34           -0.9861    -0.3866     0.2574 H       
  35 H35            0.2918    -0.3625    -0.9858 H       
  36 H36            0.7389    -0.1110     2.0310 H       
  37 H37            1.0665    -1.5646     1.0521 H       
  38 H38            4.4690     1.4954     0.6122 H       
  39 H39            0.3637     3.9267    -0.6252 H       
  40 H40            4.8926     6.2455    -0.4834 H       
  41 H41            4.6861     5.1783    -1.9119 H       
  42 H42            3.3788     5.8412     2.1625 H       
  43 H43            2.4348     7.7259     3.4393 H       
  44 H44            1.0086     9.3829     2.3089 H       
  45 H45            0.5233     9.1669    -0.0881 H       
  46 H46            0.7683     8.8705    -2.3464 H       
  47 H47            1.2099     7.7226    -3.6331 H       
  48 H48           -6.4044     5.9853    -1.8970 H       
  49 H49           -5.0646     5.5800    -0.7926 H       
  50 H50           -5.4874     8.2850    -2.1596 H       
  51 H51           -5.8153     7.9280    -0.4438 H       
  52 H52           -1.3171     8.6318    -1.1306 H       
  53 H53           -0.2588     5.8824    -4.2134 H       
  54 H54           -2.5709     5.0412    -4.2663 H       
@<TRIPOS>BOND
   1    1    2 1
   2    1    6 1
   3    2    3 1
   4    2   34 1
   5    2   35 1
   6    3    4 1
   7    3   36 1
   8    3   37 1
   9    4    5 1
  10    5    6 ar
  11    5    7 ar
  12    6   10 ar
  13    7    8 ar
  14    7   38 1
  15    8    9 ar
  16    8   11 1
  17    9   10 ar
  18    9   12 1
  19   10   39 1
  20   11   13 1
  21   12   13 1
  22   12   15 1
  23   12   16 1
  24   13   40 1
  25   13   41 1
  26   14   15 am
  27   14   21 1
  28   14   23 1
  29   15   22 2
  30   16   17 ar
  31   16   21 ar
  32   17   18 ar
  33   17   42 1
  34   18   19 ar
  35   18   43 1
  36   19   20 ar
  37   19   44 1
  38   20   21 ar
  39   20   45 1
  40   23   31 1
  41   23   46 1
  42   23   47 1
  43   24   25 1
  44   24   29 1
  45   25   26 1
  46   25   48 1
  47   25   49 1
  48   26   27 1
  49   26   50 1
  50   26   51 1
  51   27   28 1
  52   28   29 ar
  53   28   30 ar
  54   29   33 ar
  55   30   31 ar
  56   30   52 1
  57   31   32 ar
  58   32   33 ar
  59   32   53 1
  60   33   54 1

#	End of record

