#	Name: ASD01880521
#	Creating user name:	WinNT
#	Creation time:	15. 06. 2019 19:40

#	Modifying user name:	WinNT
#	Modification time:	15. 06. 2019 19:40

#	Program:	/corina/corina34_cracker 3.40 0067  02.08.2006

@<TRIPOS>MOLECULE
ASD01880521
  54   57    0    0    0
SMALL
NO_CHARGES


@<TRIPOS>ATOM
   1 N1            -0.0168     1.3127     0.0133 N.ar    
   2 C2             0.0031    -0.0058     0.0027 C.ar    
   3 N3             1.1346    -0.6838    -0.0157 N.ar    
   4 C4             2.3040    -0.0601    -0.0244 C.ar    
   5 C5             2.3316     1.3208    -0.0139 C.ar    
   6 C6             1.1166     2.0084     0.0056 C.ar    
   7 C7             3.6409     2.0669    -0.0228 C.3     
   8 O8             4.7203     1.1361     0.0791 O.3     
   9 C9             5.9771     1.6482     0.0850 C.ar    
  10 C10            7.0739     0.7974     0.1818 C.ar    
  11 C11            8.3446     1.3167     0.1872 C.ar    
  12 C12            8.5451     2.6981     0.0959 C.ar    
  13 C13            7.4400     3.5481    -0.0015 C.ar    
  14 C14            6.1676     3.0215    -0.0114 C.ar    
  15 C15            9.7150     0.6927     0.2770 C.3     
  16 N16           10.6742     1.8021     0.2302 N.am    
  17 C17            9.9950     2.9572     0.1257 C.2     
  18 O18           10.5049     4.0593     0.0642 O.2     
  19 Cl19          -1.5008    -0.8730     0.0140 Cl      
  20 N20            1.0920     3.3935     0.0163 N.3     
  21 C21            0.5158     3.8959    -1.1620 C.3     
  22 C22            0.6577     5.4307    -1.2501 C.3     
  23 C23           -0.3308     6.0730    -0.3109 C.3     
  24 O24            0.2188     6.3157     1.0003 O.3     
  25 C25            1.0454     5.2704     1.5442 C.3     
  26 C26            0.4807     3.9021     1.2598 C.3     
  27 C27           14.2108     1.3887    -1.0688 C.3     
  28 C28           12.6881     1.5245    -1.1295 C.3     
  29 C29           12.1323     1.6721     0.2884 C.3     
  30 H30            3.2244    -0.6248    -0.0392 H       
  31 H31            3.7324     2.6291    -0.9521 H       
  32 H32            3.6730     2.7544     0.8225 H       
  33 H33            6.9257    -0.2700     0.2530 H       
  34 H34            7.5838     4.6162    -0.0721 H       
  35 H35            5.3140     3.6788    -0.0871 H       
  36 H36            9.8178     0.1478     1.2155 H       
  37 H37            9.8770     0.0214    -0.5663 H       
  38 H38            1.0094     3.4424    -2.0216 H       
  39 H39           -0.5422     3.6342    -1.1810 H       
  40 H40            1.6699     5.7199    -0.9673 H       
  41 H41            0.4561     5.7573    -2.2703 H       
  42 H42           -0.6549     7.0223    -0.7372 H       
  43 H43           -1.1980     5.4199    -0.2130 H       
  44 H44            2.0411     5.3414     1.1064 H       
  45 H45            1.1234     5.4049     2.6231 H       
  46 H46           -0.6000     3.9705     1.1353 H       
  47 H47            0.7156     3.2300     2.0851 H       
  48 H48           14.6068     1.2835    -2.0788 H       
  49 H49           14.6365     2.2771    -0.6023 H       
  50 H50           14.4740     0.5087    -0.4819 H       
  51 H51           12.4249     2.4045    -1.7163 H       
  52 H52           12.2624     0.6360    -1.5959 H       
  53 H53           12.5580     2.5605     0.7548 H       
  54 H54           12.3955     0.7921     0.8752 H       
@<TRIPOS>BOND
   1    1    2 ar
   2    1    6 ar
   3    2    3 ar
   4    2   19 1
   5    3    4 ar
   6    4    5 ar
   7    4   30 1
   8    5    6 ar
   9    5    7 1
  10    6   20 1
  11    7    8 1
  12    7   31 1
  13    7   32 1
  14    8    9 1
  15    9   10 ar
  16    9   14 ar
  17   10   11 ar
  18   10   33 1
  19   11   12 ar
  20   11   15 1
  21   12   13 ar
  22   12   17 1
  23   13   14 ar
  24   13   34 1
  25   14   35 1
  26   15   16 1
  27   15   36 1
  28   15   37 1
  29   16   17 am
  30   16   29 1
  31   17   18 2
  32   20   21 1
  33   20   26 1
  34   21   22 1
  35   21   38 1
  36   21   39 1
  37   22   23 1
  38   22   40 1
  39   22   41 1
  40   23   24 1
  41   23   42 1
  42   23   43 1
  43   24   25 1
  44   25   26 1
  45   25   44 1
  46   25   45 1
  47   26   46 1
  48   26   47 1
  49   27   28 1
  50   27   48 1
  51   27   49 1
  52   27   50 1
  53   28   29 1
  54   28   51 1
  55   28   52 1
  56   29   53 1
  57   29   54 1

#	End of record

