#	Name: ASD01140400
#	Creating user name:	WinNT
#	Creation time:	15. 06. 2019 19:00

#	Modifying user name:	WinNT
#	Modification time:	15. 06. 2019 19:00

#	Program:	/corina/corina34_cracker 3.40 0067  02.08.2006

@<TRIPOS>MOLECULE
ASD01140400
  39   40    0    0    0
SMALL
NO_CHARGES


@<TRIPOS>ATOM
   1 C1            -0.0167     1.3838     0.0097 C.ar    
   2 C2             0.0021    -0.0041     0.0020 C.ar    
   3 N3            -1.1191    -0.6985     0.0090 N.ar    
   4 C4            -2.2995    -0.1153     0.0239 C.ar    
   5 C5            -2.4064     1.2762     0.0328 C.ar    
   6 C6            -1.2381     2.0447     0.0307 C.ar    
   7 O7             1.1460     2.0876     0.0023 O.3     
   8 C8             2.3602     1.3342    -0.0133 C.3     
   9 C9             3.5541     2.2911    -0.0196 C.3     
  10 C10            4.9169     1.5831     0.0864 C.3     
  11 C11            5.4048     2.5758    -0.9842 C.3     
  12 N12            3.9832     2.6999    -1.3753 N.3     
  13 C13           -3.6920     1.9069     0.0484 C.1     
  14 C14           -4.7459     2.4240     0.0612 C.1     
  15 C15           -6.0673     3.0723     0.0773 C.3     
  16 C16           -5.8898     4.5920     0.0843 C.3     
  17 C17           -7.2633     5.2659     0.1010 C.3     
  18 C18           -7.0857     6.7855     0.1081 C.3     
  19 O19           -8.3685     7.4149     0.1236 O.3     
  20 H20            0.9491    -0.5231    -0.0102 H       
  21 H21           -3.1944    -0.7200     0.0288 H       
  22 H22           -1.2845     3.1237     0.0374 H       
  23 H23            2.4065     0.7013     0.8729 H       
  24 H24            2.3895     0.7108    -0.9070 H       
  25 H25            3.4360     3.1227     0.6751 H       
  26 H26            5.4021     1.7082     1.0544 H       
  27 H27            4.9003     0.5468    -0.2511 H       
  28 H28            5.8288     3.4919    -0.5730 H       
  29 H29            6.0330     2.1215    -1.7505 H       
  30 H30            3.7341     2.0014    -2.0594 H       
  31 H31           -6.6281     2.7762    -0.8092 H       
  32 H32           -6.6115     2.7660     0.9706 H       
  33 H33           -5.3290     4.8881     0.9708 H       
  34 H34           -5.3456     4.8983    -0.8090 H       
  35 H35           -7.8241     4.9697    -0.7855 H       
  36 H36           -7.8075     4.9595     0.9944 H       
  37 H37           -6.5249     7.0817     0.9946 H       
  38 H38           -6.5415     7.0919    -0.7853 H       
  39 H39           -8.3325     8.3812     0.1288 H       
@<TRIPOS>BOND
   1    1    2 ar
   2    1    7 1
   3    1    6 ar
   4    2    3 ar
   5    2   20 1
   6    3    4 ar
   7    4    5 ar
   8    4   21 1
   9    5    6 ar
  10    5   13 1
  11    6   22 1
  12    7    8 1
  13    8    9 1
  14    8   23 1
  15    8   24 1
  16    9   10 1
  17    9   12 1
  18    9   25 1
  19   10   11 1
  20   10   26 1
  21   10   27 1
  22   11   12 1
  23   11   28 1
  24   11   29 1
  25   12   30 1
  26   13   14 3
  27   14   15 1
  28   15   16 1
  29   15   31 1
  30   15   32 1
  31   16   17 1
  32   16   33 1
  33   16   34 1
  34   17   18 1
  35   17   35 1
  36   17   36 1
  37   18   19 1
  38   18   37 1
  39   18   38 1
  40   19   39 1

#	End of record

