#	Name: ASD04590759
#	Creating user name:	WinNT
#	Creation time:	15. 06. 2019 20:51

#	Modifying user name:	WinNT
#	Modification time:	15. 06. 2019 20:51

#	Program:	/corina/corina34_cracker 3.40 0067  02.08.2006

@<TRIPOS>MOLECULE
ASD04590759
  35   38    0    0    0
SMALL
NO_CHARGES


@<TRIPOS>ATOM
   1 N1            -0.0159     1.3233     0.0093 N.ar    
   2 C2             0.0021    -0.0041     0.0020 C.ar    
   3 N3             1.1308    -0.6959    -0.0120 N.ar    
   4 C4             2.3057    -0.0742    -0.0199 C.ar    
   5 C5             2.3202     1.3354    -0.0129 C.ar    
   6 C6             1.1086     2.0194     0.0023 C.ar    
   7 N7             3.6047    -0.5218    -0.0348 N.pl3   
   8 C8             4.4812     0.5417    -0.0379 C.ar    
   9 C9             3.7323     1.7355    -0.0246 C.ar    
  10 C10            4.0022    -1.9318    -0.0457 C.3     
  11 C11            3.4611    -2.6418     1.2077 C.3     
  12 C12            2.5270    -3.7640     0.7098 C.3     
  13 C13            3.0188    -4.0570    -0.7294 C.3     
  14 C14            3.3780    -2.6474    -1.2615 C.3     
  15 S15           -1.5294    -0.8754     0.0120 S.3     
  16 C16            5.8680     0.6540    -0.0508 C.ar    
  17 N17            6.4224     1.8502    -0.0501 N.ar    
  18 N18            5.7399     2.9357    -0.0380 N.ar    
  19 C19            4.4204     2.9449    -0.0248 C.ar    
  20 C20           -2.6839     0.5185     0.0305 C.3     
  21 H21            1.0869     3.0992     0.0076 H       
  22 H22            5.0886    -2.0129    -0.0811 H       
  23 H23            4.2849    -3.0681     1.7801 H       
  24 H24            2.9028    -1.9372     1.8241 H       
  25 H25            2.6287    -4.6506     1.3356 H       
  26 H26            1.4923    -3.4215     0.6971 H       
  27 H27            3.8990    -4.6997    -0.7135 H       
  28 H28            2.2235    -4.5040    -1.3259 H       
  29 H29            2.4807    -2.1246    -1.5926 H       
  30 H30            4.1006    -2.7192    -2.0744 H       
  31 H31            6.4856    -0.2320    -0.0609 H       
  32 H32            3.8807     3.8803    -0.0152 H       
  33 H33           -2.5115     1.1213     0.9221 H       
  34 H34           -2.5285     1.1308    -0.8578 H       
  35 H35           -3.7071     0.1427     0.0382 H       
@<TRIPOS>BOND
   1    1    2 ar
   2    1    6 ar
   3    2    3 ar
   4    2   15 1
   5    3    4 ar
   6    4    5 ar
   7    4    7 1
   8    5    6 ar
   9    5    9 1
  10    6   21 1
  11    7    8 1
  12    7   10 1
  13    8    9 ar
  14    8   16 ar
  15    9   19 ar
  16   10   11 1
  17   10   14 1
  18   10   22 1
  19   11   12 1
  20   11   23 1
  21   11   24 1
  22   12   13 1
  23   12   25 1
  24   12   26 1
  25   13   14 1
  26   13   27 1
  27   13   28 1
  28   14   29 1
  29   14   30 1
  30   15   20 1
  31   16   17 ar
  32   16   31 1
  33   17   18 ar
  34   18   19 ar
  35   19   32 1
  36   20   33 1
  37   20   34 1
  38   20   35 1

#	End of record

