#	Name: ASD03082105
#	Creating user name:	WinNT
#	Creation time:	15. 06. 2019 20:27

#	Modifying user name:	WinNT
#	Modification time:	15. 06. 2019 20:27

#	Program:	/corina/corina34_cracker 3.40 0067  02.08.2006

@<TRIPOS>MOLECULE
ASD03082105
  42   45    0    0    0
SMALL
NO_CHARGES


@<TRIPOS>ATOM
   1 C1            -0.0487     1.4122     0.2326 C.ar    
   2 C2            -0.0534     0.0285     0.4094 C.ar    
   3 C3            -1.2258    -0.6821     0.2540 C.ar    
   4 C4            -2.4017    -0.0304    -0.0776 C.ar    
   5 C5            -2.4162     1.3387    -0.2565 C.ar    
   6 C6            -1.2452     2.0739    -0.0985 C.ar    
   7 C7            -1.2561     3.5433    -0.2895 C.ar    
   8 C8            -2.1034     4.3425     0.4772 C.ar    
   9 C9            -2.1092     5.7103     0.2948 C.ar    
  10 C10           -1.2766     6.2889    -0.6463 C.ar    
  11 C11           -0.4341     5.5012    -1.4102 C.ar    
  12 C12           -0.4150     4.1329    -1.2325 C.ar    
  13 C13            1.2021     2.1778     0.3980 C.2     
  14 N14            2.3685     1.5300     0.5889 N.am    
  15 O15            1.1804     3.3930     0.3621 O.2     
  16 C16            3.5639     2.2471     0.6434 C.ar    
  17 C17            4.7622     1.6707     0.1706 C.ar    
  18 C18            5.9642     2.4178     0.2355 C.ar    
  19 C19            5.9428     3.7176     0.7690 C.ar    
  20 C20            4.7724     4.2489     1.2185 C.ar    
  21 C21            3.5843     3.5273     1.1544 C.ar    
  22 C22            4.7854     0.3722    -0.3617 C.ar    
  23 C23            5.9599    -0.1523    -0.8083 C.ar    
  24 C24            7.1428     0.5815    -0.7446 C.ar    
  25 C25            7.1577     1.8436    -0.2356 C.ar    
  26 H26            0.8602    -0.4863     0.6674 H       
  27 H27           -1.2262    -1.7534     0.3914 H       
  28 H28           -3.3135    -0.5967    -0.1975 H       
  29 H29           -3.3373     1.8396    -0.5154 H       
  30 H30           -2.7541     3.8918     1.2120 H       
  31 H31           -2.7652     6.3303     0.8878 H       
  32 H32           -1.2846     7.3599    -0.7855 H       
  33 H33            0.2134     5.9585    -2.1437 H       
  34 H34            0.2433     3.5189    -1.8292 H       
  35 H35            2.3768     0.5651     0.6884 H       
  36 H36            6.8541     4.2946     0.8229 H       
  37 H37            4.7653     5.2485     1.6274 H       
  38 H38            2.6694     3.9718     1.5174 H       
  39 H39            3.8763    -0.2082    -0.4165 H       
  40 H40            5.9749    -1.1517    -1.2174 H       
  41 H41            8.0613     0.1423    -1.1049 H       
  42 H42            8.0819     2.4007    -0.1928 H       
@<TRIPOS>BOND
   1    1    2 ar
   2    1   13 1
   3    1    6 ar
   4    2    3 ar
   5    2   26 1
   6    3    4 ar
   7    3   27 1
   8    4    5 ar
   9    4   28 1
  10    5    6 ar
  11    5   29 1
  12    6    7 1
  13    7    8 ar
  14    7   12 ar
  15    8    9 ar
  16    8   30 1
  17    9   10 ar
  18    9   31 1
  19   10   11 ar
  20   10   32 1
  21   11   12 ar
  22   11   33 1
  23   12   34 1
  24   13   14 am
  25   13   15 2
  26   14   16 1
  27   14   35 1
  28   16   17 ar
  29   16   21 ar
  30   17   18 ar
  31   17   22 ar
  32   18   19 ar
  33   18   25 ar
  34   19   20 ar
  35   19   36 1
  36   20   21 ar
  37   20   37 1
  38   21   38 1
  39   22   23 ar
  40   22   39 1
  41   23   24 ar
  42   23   40 1
  43   24   25 ar
  44   24   41 1
  45   25   42 1

#	End of record

