#	Name: ASD03090808
#	Creating user name:	WinNT
#	Creation time:	15. 06. 2019 20:29

#	Modifying user name:	WinNT
#	Modification time:	15. 06. 2019 20:29

#	Program:	/corina/corina34_cracker 3.40 0067  02.08.2006

@<TRIPOS>MOLECULE
ASD03090808
  50   54    0    0    0
SMALL
NO_CHARGES


@<TRIPOS>ATOM
   1 N1            -0.0380     1.2405    -0.4471 N.am    
   2 C2            -0.0172    -0.0395     0.0378 C.2     
   3 N3            -1.0825    -0.6551     0.4826 N.2     
   4 C4            -2.2938    -0.0541     0.4919 C.ar    
   5 C5            -2.4082     1.2711     0.0087 C.ar    
   6 C6            -1.1954     1.9432    -0.4812 C.2     
   7 O7            -1.2317     3.0822    -0.9081 O.2     
   8 C8            -3.4422    -0.6968     0.9630 C.ar    
   9 N9            -4.6009    -0.0734     0.9524 N.ar    
  10 C10           -4.7418     1.1677     0.5065 C.ar    
  11 C11           -3.6564     1.8853     0.0193 C.ar    
  12 N12           -6.0004     1.7620     0.5261 N.3     
  13 C13           -7.0081     0.8432     1.0739 C.3     
  14 C14           -8.0076     1.6028     1.9334 C.3     
  15 C15           -8.9796     2.4407     1.1274 C.3     
  16 N16           -8.7988     2.2392    -0.3174 N.3     
  17 C17           -7.6650     3.0428    -0.7991 C.3     
  18 C18           -6.3887     2.2161    -0.8145 C.3     
  19 C19           -8.8005     0.8424    -0.6960 C.3     
  20 C20           -7.6513     0.0734    -0.0650 C.3     
  21 C21            1.2014     1.8567    -0.9270 C.3     
  22 C22            1.2723    -0.7618     0.0595 C.ar    
  23 C23            1.6267    -1.5303     1.1695 C.ar    
  24 C24            2.8316    -2.2019     1.1833 C.ar    
  25 C25            3.6880    -2.1149     0.1001 C.ar    
  26 C26            3.3428    -1.3549    -1.0034 C.ar    
  27 C27            2.1383    -0.6830    -1.0324 C.ar    
  28 H28           -3.3783    -1.7082     1.3363 H       
  29 H29           -3.7786     2.8957    -0.3420 H       
  30 H30           -6.4957     0.1207     1.7092 H       
  31 H31           -8.5737     0.8855     2.5276 H       
  32 H32           -7.4594     2.2579     2.6104 H       
  33 H33           -9.9982     2.1651     1.4004 H       
  34 H34           -8.8219     3.4933     1.3624 H       
  35 H35           -7.8773     3.3943    -1.8088 H       
  36 H36           -7.5286     3.9016    -0.1419 H       
  37 H37           -5.5819     2.8198    -1.2302 H       
  38 H38           -6.5399     1.3451    -1.4522 H       
  39 H39           -9.7420     0.3921    -0.3815 H       
  40 H40           -8.7209     0.7700    -1.7806 H       
  41 H41           -6.8982    -0.1267    -0.8272 H       
  42 H42           -8.0275    -0.8757     0.3168 H       
  43 H43            1.3591     1.5896    -1.9720 H       
  44 H44            1.1273     2.9404    -0.8362 H       
  45 H45            2.0401     1.4986    -0.3299 H       
  46 H46            0.9593    -1.5987     2.0159 H       
  47 H47            3.1073    -2.7965     2.0417 H       
  48 H48            4.6303    -2.6424     0.1161 H       
  49 H49            4.0158    -1.2913    -1.8456 H       
  50 H50            1.8700    -0.0901    -1.8943 H       
@<TRIPOS>BOND
   1    1    2 1
   2    1   21 1
   3    1    6 am
   4    2    3 2
   5    2   22 1
   6    3    4 1
   7    4    5 ar
   8    4    8 ar
   9    5    6 1
  10    5   11 ar
  11    6    7 2
  12    8    9 ar
  13    8   28 1
  14    9   10 ar
  15   10   11 ar
  16   10   12 1
  17   11   29 1
  18   12   13 1
  19   12   18 1
  20   13   14 1
  21   13   20 1
  22   13   30 1
  23   14   15 1
  24   14   31 1
  25   14   32 1
  26   15   16 1
  27   15   33 1
  28   15   34 1
  29   16   17 1
  30   16   19 1
  31   17   18 1
  32   17   35 1
  33   17   36 1
  34   18   37 1
  35   18   38 1
  36   19   20 1
  37   19   39 1
  38   19   40 1
  39   20   41 1
  40   20   42 1
  41   21   43 1
  42   21   44 1
  43   21   45 1
  44   22   23 ar
  45   22   27 ar
  46   23   24 ar
  47   23   46 1
  48   24   25 ar
  49   24   47 1
  50   25   26 ar
  51   25   48 1
  52   26   27 ar
  53   26   49 1
  54   27   50 1

#	End of record

