#	Name: ASD02560550
#	Creating user name:	WinNT
#	Creation time:	15. 06. 2019 20:25

#	Modifying user name:	WinNT
#	Modification time:	15. 06. 2019 20:25

#	Program:	/corina/corina34_cracker 3.40 0067  02.08.2006

@<TRIPOS>MOLECULE
ASD02560550
  55   59    0    0    0
SMALL
NO_CHARGES


@<TRIPOS>ATOM
   1 N1            -0.0191     1.2805     0.0820 N.2     
   2 N2            -0.0010    -0.0042     0.0570 N.2     
   3 C3             1.1979     1.7476     0.0504 C.2     
   4 N4             2.0453     0.6720     0.0018 N.pl3   
   5 C5             1.2383    -0.4337     0.0077 C.2     
   6 S6             1.7636    -2.1148    -0.0417 S.3     
   7 C7             0.1569    -2.9474    -0.0040 C.3     
   8 C8             0.3635    -4.4398    -0.0392 C.2     
   9 O9             1.4865    -4.8956    -0.0852 O.2     
  10 N10           -0.6996    -5.2679    -0.0196 N.am    
  11 C11            3.4447     0.6983    -0.0446 C.ar    
  12 Br12           1.7000     3.5706     0.0683 Br      
  13 C13            4.1794     0.6886     1.1217 C.ar    
  14 C14            5.5715     0.7141     1.0862 C.ar    
  15 C15            6.2435     0.7497    -0.0974 C.ar    
  16 C16            5.5312     0.7607    -1.3084 C.ar    
  17 C17            4.1147     0.7291    -1.2850 C.ar    
  18 C18            6.1983     0.7967    -2.5453 C.ar    
  19 C19            5.4773     0.8060    -3.6995 C.ar    
  20 C20            4.0841     0.7804    -3.6753 C.ar    
  21 C21            3.4047     0.7394    -2.4963 C.ar    
  22 C22           -0.5128    -6.6452    -0.1340 C.ar    
  23 C23           -1.5317    -7.4442    -0.6469 C.ar    
  24 C24           -1.3502    -8.8047    -0.7611 C.ar    
  25 C25           -0.1411    -9.3827    -0.3618 C.ar    
  26 C26            0.8790    -8.5770     0.1520 C.ar    
  27 C27            0.6927    -7.2170     0.2590 C.ar    
  28 C28            0.0571   -10.8390    -0.4820 C.2     
  29 O29           -0.8308   -11.5381    -0.9284 O.2     
  30 Cl30          -3.0320    -6.7249    -1.1421 Cl      
  31 O31            1.2228   -11.3944    -0.0967 O.3     
  32 C32            7.7502     0.7778    -0.1085 C.3     
  33 Cl33           3.3605     0.6447     2.6517 Cl      
  34 C34            8.3490     1.9954     0.6152 C.3     
  35 C35            9.4174     1.0400     1.1723 C.3     
  36 C36            8.3906    -0.0898     0.9879 C.3     
  37 H37           -0.3720    -2.6753     0.9094 H       
  38 H38           -0.4312    -2.6415    -0.8693 H       
  39 H39           -1.5947    -4.9060     0.0742 H       
  40 H40            6.1269     0.7059     2.0124 H       
  41 H41            7.2776     0.8172    -2.5794 H       
  42 H42            5.9924     0.8341    -4.6483 H       
  43 H43            3.5356     0.7886    -4.6056 H       
  44 H44            2.3249     0.7195    -2.4926 H       
  45 H45           -2.1406    -9.4243    -1.1582 H       
  46 H46            1.8140    -9.0204     0.4613 H       
  47 H47            1.4809    -6.5942     0.6556 H       
  48 H48            1.3059   -12.3528    -0.1945 H       
  49 H49            8.1694     0.6098    -1.1005 H       
  50 H50            8.7490     2.7516    -0.0603 H       
  51 H51            7.6952     2.4134     1.3807 H       
  52 H52           10.2934     0.9428     0.5310 H       
  53 H53            9.6736     1.2313     2.2144 H       
  54 H54            7.7482    -0.2419     1.8552 H       
  55 H55            8.8242    -1.0171     0.6133 H       
@<TRIPOS>BOND
   1    1    2 1
   2    1    3 2
   3    2    5 2
   4    3    4 1
   5    3   12 1
   6    4    5 1
   7    4   11 1
   8    5    6 1
   9    6    7 1
  10    7    8 1
  11    7   37 1
  12    7   38 1
  13    8    9 2
  14    8   10 am
  15   10   22 1
  16   10   39 1
  17   11   13 ar
  18   11   17 ar
  19   13   14 ar
  20   13   33 1
  21   14   15 ar
  22   14   40 1
  23   15   16 ar
  24   15   32 1
  25   16   17 ar
  26   16   18 ar
  27   17   21 ar
  28   18   19 ar
  29   18   41 1
  30   19   20 ar
  31   19   42 1
  32   20   21 ar
  33   20   43 1
  34   21   44 1
  35   22   23 ar
  36   22   27 ar
  37   23   24 ar
  38   23   30 1
  39   24   25 ar
  40   24   45 1
  41   25   26 ar
  42   25   28 1
  43   26   27 ar
  44   26   46 1
  45   27   47 1
  46   28   29 2
  47   28   31 1
  48   31   48 1
  49   32   34 1
  50   32   36 1
  51   32   49 1
  52   34   35 1
  53   34   50 1
  54   34   51 1
  55   35   36 1
  56   35   52 1
  57   35   53 1
  58   36   54 1
  59   36   55 1

#	End of record

