#	Name: ASD01900675
#	Creating user name:	WinNT
#	Creation time:	15. 06. 2019 19:52

#	Modifying user name:	WinNT
#	Modification time:	15. 06. 2019 19:52

#	Program:	/corina/corina34_cracker 3.40 0067  02.08.2006

@<TRIPOS>MOLECULE
ASD01900675
  38   41    0    0    0
SMALL
NO_CHARGES


@<TRIPOS>ATOM
   1 C1            -0.0184     1.4084     0.1340 C.ar    
   2 C2            -0.0082     0.0179     0.1229 C.ar    
   3 C3             1.1888    -0.6777     0.0633 C.ar    
   4 C4             2.3901     0.0138     0.0139 C.ar    
   5 C5             2.3726     1.4163     0.0297 C.ar    
   6 O6             3.5628    -0.6517    -0.0562 O.3     
   7 C7             4.7364    -0.0445     0.1904 C.2     
   8 C8             4.8728     1.3019     0.2217 C.2     
   9 C9             3.6736     2.1296    -0.0105 C.2     
  10 C10            5.9273    -0.8817     0.4381 C.ar    
  11 N11            7.1009    -0.2927     0.6847 N.ar    
  12 C12            8.1976    -0.9710     0.9129 C.ar    
  13 C13            8.1756    -2.3768     0.9059 C.ar    
  14 C14            6.9473    -3.0418     0.6479 C.ar    
  15 C15            5.8028    -2.2620     0.4155 C.ar    
  16 C16            9.3302    -3.1368     1.1456 C.ar    
  17 C17            9.2557    -4.4970     1.1273 C.ar    
  18 C18            8.0504    -5.1488     0.8736 C.ar    
  19 C19            6.9085    -4.4446     0.6369 C.ar    
  20 C20            1.1692     2.1086     0.0875 C.ar    
  21 O21           -1.1816    -0.6643     0.1714 O.3     
  22 C22           -2.3807     0.1107     0.2321 C.3     
  23 N23            3.7525     3.4186    -0.2380 N.2     
  24 O24            2.5930     4.1457    -0.6012 O.3     
  25 H25           -0.9572     1.9407     0.1745 H       
  26 H26            1.1864    -1.7577     0.0557 H       
  27 H27            5.8333     1.7579     0.4111 H       
  28 H28            9.1227    -0.4485     1.1070 H       
  29 H29            4.8489    -2.7272     0.2154 H       
  30 H30           10.2721    -2.6467     1.3430 H       
  31 H31           10.1459    -5.0800     1.3121 H       
  32 H32            8.0211    -6.2283     0.8646 H       
  33 H33            5.9807    -4.9618     0.4420 H       
  34 H34            1.1637     3.1885     0.0960 H       
  35 H35           -3.2426    -0.5556     0.2665 H       
  36 H36           -2.3663     0.7327     1.1272 H       
  37 H37           -2.4476     0.7462    -0.6509 H       
  38 H38            2.7500     5.0885    -0.7482 H       
@<TRIPOS>BOND
   1    1    2 ar
   2    1   20 ar
   3    1   25 1
   4    2    3 ar
   5    2   21 1
   6    3    4 ar
   7    3   26 1
   8    4    5 ar
   9    4    6 1
  10    5   20 ar
  11    5    9 1
  12    6    7 1
  13    7    8 2
  14    7   10 1
  15    8    9 1
  16    8   27 1
  17    9   23 2
  18   10   11 ar
  19   10   15 ar
  20   11   12 ar
  21   12   13 ar
  22   12   28 1
  23   13   14 ar
  24   13   16 ar
  25   14   15 ar
  26   14   19 ar
  27   15   29 1
  28   16   17 ar
  29   16   30 1
  30   17   18 ar
  31   17   31 1
  32   18   19 ar
  33   18   32 1
  34   19   33 1
  35   20   34 1
  36   21   22 1
  37   22   35 1
  38   22   36 1
  39   22   37 1
  40   23   24 1
  41   24   38 1

#	End of record

