#	Name: ASD07930061
#	Creating user name:	WinNT
#	Creation time:	15. 06. 2019 21:11

#	Modifying user name:	WinNT
#	Modification time:	15. 06. 2019 21:11

#	Program:	/corina/corina34_cracker 3.40 0067  02.08.2006

@<TRIPOS>MOLECULE
ASD07930061
  51   53    0    0    0
SMALL
NO_CHARGES


@<TRIPOS>ATOM
   1 C1            -0.5564     1.9784    -0.1762 C.ar    
   2 C2             0.9169     2.2717    -0.0552 C.3     
   3 C3             1.1197     3.6883     0.4917 C.3     
   4 C4             0.8312     4.7005    -0.5818 C.2     
   5 N5             0.8747     4.3972    -1.8874 N.am    
   6 C6             1.1290     3.1175    -2.3139 C.2     
   7 N7             1.5498     2.2005    -1.3845 N.pl3   
   8 C8             1.5707     1.2561     0.8839 C.3     
   9 N9             0.9724     2.7778    -3.5850 N.2     
  10 O10            0.5482     5.8331    -0.2550 O.2     
  11 C11            0.6459     5.4522    -2.8777 C.3     
  12 C12           -1.0404     1.3120    -1.2889 C.ar    
  13 C13           -2.3937     1.0426    -1.4000 C.ar    
  14 C14           -3.2630     1.4394    -0.3983 C.ar    
  15 C15           -2.7788     2.1051     0.7147 C.ar    
  16 C16           -1.4249     2.3705     0.8279 C.ar    
  17 C17            2.5443     3.8454     0.9573 C.ar    
  18 C18            3.5857     3.6786     0.0639 C.ar    
  19 C19            4.8927     3.8227     0.4911 C.ar    
  20 C20            5.1579     4.1339     1.8114 C.ar    
  21 C21            4.1162     4.3016     2.7048 C.ar    
  22 C22            2.8095     4.1619     2.2768 C.ar    
  23 F23           -0.1920     0.9248    -2.2664 F       
  24 F24           -4.5838     1.1773    -0.5072 F       
  25 F25           -0.9524     3.0202     1.9142 F       
  26 C26            0.2684     3.5604    -4.4021 C.2     
  27 C27            0.8723     4.0318    -5.6998 C.3     
  28 F28           -0.0506     4.8340    -6.3794 F       
  29 F29            2.0282     4.7737    -5.4340 F       
  30 F30            1.1999     2.9254    -6.4908 F       
  31 O31           -0.8606     3.8940    -4.1007 O.2     
  32 S32            4.4636     4.7086     4.4339 Du      
  33 F33            5.6189     3.5877     4.4656 F       
  34 F34            3.3857     3.6110     4.9088 F       
  35 F35            3.3083     5.8295     4.4021 F       
  36 F36            4.7726     5.0706     5.9719 F       
  37 F37            5.5415     5.8062     3.9590 F       
  38 H38            0.4459     3.8512     1.3329 H       
  39 H39            2.2295     1.5402    -1.5916 H       
  40 H40            1.3545     0.2465     0.5347 H       
  41 H41            2.6493     1.4135     0.8951 H       
  42 H42            1.1743     1.3849     1.8911 H       
  43 H43            0.9664     6.4104    -2.4686 H       
  44 H44            1.2166     5.2334    -3.7802 H       
  45 H45           -0.4156     5.4979    -3.1212 H       
  46 H46           -2.7714     0.5233    -2.2684 H       
  47 H47           -3.4570     2.4146     1.4962 H       
  48 H48            3.3784     3.4355    -0.9677 H       
  49 H49            5.7064     3.6917    -0.2068 H       
  50 H50            6.1789     4.2458     2.1452 H       
  51 H51            1.9957     4.2929     2.9747 H       
@<TRIPOS>BOND
   1    1   12 ar
   2    1    2 1
   3    1   16 ar
   4    2    8 1
   5    2    3 1
   6    2    7 1
   7    3    4 1
   8    3   17 1
   9    3   38 1
  10    4    5 am
  11    4   10 2
  12    5    6 1
  13    5   11 1
  14    6    7 1
  15    6    9 2
  16    7   39 1
  17    8   40 1
  18    8   41 1
  19    8   42 1
  20    9   26 1
  21   11   43 1
  22   11   44 1
  23   11   45 1
  24   12   13 ar
  25   12   23 1
  26   13   14 ar
  27   13   46 1
  28   14   15 ar
  29   14   24 1
  30   15   16 ar
  31   15   47 1
  32   16   25 1
  33   17   18 ar
  34   17   22 ar
  35   18   19 ar
  36   18   48 1
  37   19   20 ar
  38   19   49 1
  39   20   21 ar
  40   20   50 1
  41   21   22 ar
  42   21   32 1
  43   22   51 1
  44   26   27 1
  45   26   31 2
  46   27   28 1
  47   27   29 1
  48   27   30 1
  49   32   33 1
  50   32   34 1
  51   32   35 1
  52   32   36 1
  53   32   37 1

#	End of record

