#	Name: ASD01885927
#	Creating user name:	WinNT
#	Creation time:	15. 06. 2019 19:50

#	Modifying user name:	WinNT
#	Modification time:	15. 06. 2019 19:50

#	Program:	/corina/corina34_cracker 3.40 0067  02.08.2006

@<TRIPOS>MOLECULE
ASD01885927
  55   58    0    0    0
SMALL
NO_CHARGES


@<TRIPOS>ATOM
   1 C1            -0.0170     1.4037     0.0098 C.ar    
   2 C2            -1.2665     2.0740     0.0193 C.ar    
   3 C3            -1.2874     3.4920     0.0272 C.ar    
   4 C4            -0.0700     4.1597     0.0250 C.ar    
   5 C5             1.1199     3.4234     0.0154 C.ar    
   6 N6             1.1178     2.1038     0.0027 N.ar    
   7 C7             0.0021    -0.0041     0.0020 C.ar    
   8 C8            -1.1700    -0.6951     0.0090 C.ar    
   9 C9            -2.3952    -0.0320     0.0237 C.ar    
  10 C10           -2.4530     1.3298     0.0204 C.ar    
  11 C11           -2.5666     4.2367     0.0368 C.ar    
  12 C12           -3.5655     3.9228    -0.8856 C.ar    
  13 C13           -4.7557     4.6181    -0.8733 C.ar    
  14 C14           -2.7787     5.2506     0.9723 C.ar    
  15 C15            2.4157     4.1442     0.0060 C.2     
  16 N16            3.5718     3.4518    -0.0152 N.am    
  17 O17            2.4352     5.3590     0.0175 O.2     
  18 C18           -1.1424    -2.2019     0.0132 C.3     
  19 C19           -4.9611     5.6302     0.0552 C.ar    
  20 C20           -3.9710     5.9415     0.9787 C.ar    
  21 O21           -6.1349     6.3135     0.0641 O.3     
  22 C22           -1.1528    -2.7162    -1.4277 C.3     
  23 C23           -7.1115     5.9380    -0.9091 C.3     
  24 C24           -4.1988     7.0403     1.9846 C.3     
  25 C25           -1.1251    -4.2229    -1.4235 C.ar    
  26 C26           -2.3023    -4.9543    -1.4052 C.ar    
  27 N27           -2.2388    -6.2761    -1.4019 N.ar    
  28 C28           -1.0760    -6.8963    -1.4159 C.ar    
  29 N29            0.0632    -6.2339    -1.4335 N.ar    
  30 C30            0.0780    -4.9107    -1.4436 C.ar    
  31 C31           -1.0484    -8.4031    -1.4111 C.3     
  32 H32           -0.0416     5.2393     0.0305 H       
  33 H33            0.9434    -0.5334    -0.0098 H       
  34 H34           -3.3109    -0.6043     0.0376 H       
  35 H35           -3.4089     1.8323     0.0276 H       
  36 H36           -3.4062     3.1363    -1.6084 H       
  37 H37           -5.5293     4.3757    -1.5869 H       
  38 H38           -2.0095     5.4932     1.6906 H       
  39 H39            3.5562     2.4820    -0.0243 H       
  40 H40            4.4195     3.9233    -0.0213 H       
  41 H41           -0.2389    -2.5473     0.5158 H       
  42 H42           -2.0184    -2.5799     0.5402 H       
  43 H43           -2.0562    -2.3708    -1.9303 H       
  44 H44           -0.2767    -2.3382    -1.9547 H       
  45 H45           -6.6999     6.0759    -1.9089 H       
  46 H46           -7.3810     4.8912    -0.7683 H       
  47 H47           -7.9987     6.5604    -0.7924 H       
  48 H48           -4.6512     6.6217     2.8837 H       
  49 H49           -3.2453     7.5031     2.2393 H       
  50 H50           -4.8646     7.7907     1.5585 H       
  51 H51           -3.2584    -4.4522    -1.3933 H       
  52 H52            1.0151    -4.3739    -1.4581 H       
  53 H53           -1.0559    -8.7699    -2.4375 H       
  54 H54           -0.1448    -8.7483    -0.9086 H       
  55 H55           -1.9243    -8.7809    -0.8838 H       
@<TRIPOS>BOND
   1    1    7 ar
   2    1    6 ar
   3    1    2 ar
   4    2    3 ar
   5    2   10 ar
   6    3   11 1
   7    3    4 ar
   8    4    5 ar
   9    4   32 1
  10    5   15 1
  11    5    6 ar
  12    7    8 ar
  13    7   33 1
  14    8    9 ar
  15    8   18 1
  16    9   10 ar
  17    9   34 1
  18   10   35 1
  19   11   12 ar
  20   11   14 ar
  21   12   13 ar
  22   12   36 1
  23   13   19 ar
  24   13   37 1
  25   14   20 ar
  26   14   38 1
  27   15   16 am
  28   15   17 2
  29   16   39 1
  30   16   40 1
  31   18   22 1
  32   18   41 1
  33   18   42 1
  34   19   20 ar
  35   19   21 1
  36   20   24 1
  37   21   23 1
  38   22   25 1
  39   22   43 1
  40   22   44 1
  41   23   45 1
  42   23   46 1
  43   23   47 1
  44   24   48 1
  45   24   49 1
  46   24   50 1
  47   25   26 ar
  48   25   30 ar
  49   26   27 ar
  50   26   51 1
  51   27   28 ar
  52   28   29 ar
  53   28   31 1
  54   29   30 ar
  55   30   52 1
  56   31   53 1
  57   31   54 1
  58   31   55 1

#	End of record

