#	Name: ASD01884796
#	Creating user name:	WinNT
#	Creation time:	15. 06. 2019 19:48

#	Modifying user name:	WinNT
#	Modification time:	15. 06. 2019 19:48

#	Program:	/corina/corina34_cracker 3.40 0067  02.08.2006

@<TRIPOS>MOLECULE
ASD01884796
  52   56    0    0    0
SMALL
NO_CHARGES


@<TRIPOS>ATOM
   1 C1            -1.6889     1.3633    -1.0490 C.2     
   2 C2            -1.7621    -0.0384    -0.9829 C.2     
   3 C3            -1.2364    -0.6831     0.1038 C.2     
   4 C4            -0.6323     0.0687     1.1351 C.2     
   5 C5            -0.5732     1.4121     1.0511 C.2     
   6 N6            -1.0890     2.0639    -0.0310 N.pl3   
   7 C7            -1.1754     3.3788    -0.3833 C.2     
   8 N8            -1.7885     3.4372    -1.5360 N.2     
   9 N9            -2.0923     2.2546    -1.9417 N.2     
  10 N10           -1.2973    -2.0706     0.1920 N.pl3   
  11 C11           -0.6589     4.5503     0.4117 C.3     
  12 C12           -2.4116    -0.8219    -2.0944 C.3     
  13 C13            0.7847     4.8482     0.0016 C.3     
  14 C14            1.4527     6.0813     0.6131 C.3     
  15 C15            1.8705     4.6810     1.0664 C.3     
  16 C16           -2.5898    -2.7562     0.3256 C.3     
  17 C17           -2.5360    -3.6757     1.5497 C.3     
  18 C18           -1.3355    -4.6165     1.4236 C.3     
  19 C19           -0.0445    -3.7958     1.3788 C.3     
  20 C20           -0.0706    -2.8780     0.1471 C.3     
  21 C21           -1.2989    -5.5456     2.6096 C.ar    
  22 F22           -3.7561    -1.0486    -1.7812 F       
  23 F23           -2.3267    -0.0965    -3.2876 F       
  24 F24           -1.7551    -2.0479    -2.2462 F       
  25 C25           -1.1872    -5.0311     3.8876 C.ar    
  26 C26           -1.1541    -5.8830     4.9756 C.ar    
  27 C27           -1.2323    -7.2505     4.7870 C.ar    
  28 C28           -1.3436    -7.7671     3.5103 C.ar    
  29 C29           -1.3830    -6.9143     2.4199 C.ar    
  30 F30           -1.4979    -7.4180     1.1715 F       
  31 H31           -0.2163    -0.4352     1.9950 H       
  32 H32           -0.1093     1.9779     1.8455 H       
  33 H33           -1.2799     5.4244     0.2160 H       
  34 H34           -0.6926     4.3112     1.4746 H       
  35 H35            1.0436     4.5931    -1.0261 H       
  36 H36            2.1515     6.6373    -0.0120 H       
  37 H37            0.8638     6.6803     1.3077 H       
  38 H38            1.5564     4.3588     2.0592 H       
  39 H39            2.8441     4.3157     0.7395 H       
  40 H40           -3.3824    -2.0195     0.4566 H       
  41 H41           -2.7832    -3.3489    -0.5684 H       
  42 H42           -2.4332    -3.0738     2.4526 H       
  43 H43           -3.4533    -4.2619     1.6051 H       
  44 H44           -1.4265    -5.2006     0.5077 H       
  45 H45            0.0348    -3.1928     2.2833 H       
  46 H46            0.8114    -4.4675     1.3125 H       
  47 H47           -0.0627    -3.4805    -0.7612 H       
  48 H48            0.7996    -2.2217     0.1603 H       
  49 H49           -1.1253    -3.9632     4.0361 H       
  50 H50           -1.0667    -5.4801     5.9739 H       
  51 H51           -1.2059    -7.9151     5.6378 H       
  52 H52           -1.4043    -8.8353     3.3631 H       
@<TRIPOS>BOND
   1    1    2 1
   2    1    9 2
   3    1    6 1
   4    2    3 2
   5    2   12 1
   6    3    4 1
   7    3   10 1
   8    4    5 2
   9    4   31 1
  10    5    6 1
  11    5   32 1
  12    6    7 1
  13    7    8 2
  14    7   11 1
  15    8    9 1
  16   10   16 1
  17   10   20 1
  18   11   13 1
  19   11   33 1
  20   11   34 1
  21   12   22 1
  22   12   23 1
  23   12   24 1
  24   13   14 1
  25   13   15 1
  26   13   35 1
  27   14   15 1
  28   14   36 1
  29   14   37 1
  30   15   38 1
  31   15   39 1
  32   16   17 1
  33   16   40 1
  34   16   41 1
  35   17   18 1
  36   17   42 1
  37   17   43 1
  38   18   19 1
  39   18   21 1
  40   18   44 1
  41   19   20 1
  42   19   45 1
  43   19   46 1
  44   20   47 1
  45   20   48 1
  46   21   25 ar
  47   21   29 ar
  48   25   26 ar
  49   25   49 1
  50   26   27 ar
  51   26   50 1
  52   27   28 ar
  53   27   51 1
  54   28   29 ar
  55   28   52 1
  56   29   30 1

#	End of record

