#	Name: ASD01813029
#	Creating user name:	WinNT
#	Creation time:	15. 06. 2019 19:29

#	Modifying user name:	WinNT
#	Modification time:	15. 06. 2019 19:29

#	Program:	/corina/corina34_cracker 3.40 0067  02.08.2006

@<TRIPOS>MOLECULE
ASD01813029
  51   54    0    0    0
SMALL
NO_CHARGES


@<TRIPOS>ATOM
   1 C1            -1.9065     1.4014     0.0373 C.2     
   2 C2            -2.0104     0.0627     0.0826 C.2     
   3 N3            -0.9002    -0.7284    -0.0086 N.pl3   
   4 C4             0.3412    -0.2442    -0.1331 C.2     
   5 C5             0.5526     1.1196    -0.1787 C.2     
   6 C6            -0.6214     1.9978    -0.0941 C.2     
   7 O7            -0.4970     3.2118    -0.1282 O.2     
   8 C8            -1.0779    -2.1820     0.0326 C.3     
   9 C9            -0.8981    -2.6702     1.4469 C.ar    
  10 C10           -3.0928     2.3253     0.1128 C.3     
  11 C11           -4.3117     1.5969     0.6749 C.3     
  12 C12           -4.4910     0.2909    -0.1090 C.3     
  13 C13           -3.3353    -0.6415     0.2446 C.3     
  14 C14           -2.0039    -2.8622     2.2554 C.ar    
  15 C15           -1.8450    -3.3096     3.5514 C.ar    
  16 C16           -0.5678    -3.5679     4.0449 C.ar    
  17 C17            0.5425    -3.3728     3.2261 C.ar    
  18 C18            0.3717    -2.9301     1.9300 C.ar    
  19 C19           -0.3908    -4.0487     5.4376 C.ar    
  20 C20           -1.5018    -4.2431     6.2561 C.ar    
  21 C21           -1.3356    -4.6901     7.5520 C.ar    
  22 C22           -0.0693    -4.9459     8.0420 C.ar    
  23 C23            1.0446    -4.7551     7.2326 C.ar    
  24 C24            0.8855    -4.3120     5.9281 C.ar    
  25 O25           -2.7743     3.4317     0.9593 O.3     
  26 N26            2.3234    -5.0143     7.7315 N.pl3   
  27 C27            1.9088     1.6745    -0.3123 C.2     
  28 O28            2.8660     0.9290    -0.3845 O.2     
  29 O29            2.0896     3.0095    -0.3546 O.3     
  30 H30            1.1797    -0.9218    -0.1977 H       
  31 H31           -2.0795    -2.4356    -0.3147 H       
  32 H32           -0.3386    -2.6568    -0.6124 H       
  33 H33           -3.3245     2.6941    -0.8864 H       
  34 H34           -4.1529     1.3740     1.7300 H       
  35 H35           -5.1985     2.2201     0.5593 H       
  36 H36           -5.4370    -0.1757     0.1655 H       
  37 H37           -4.4803     0.4999    -1.1788 H       
  38 H38           -3.3621    -1.5111    -0.4120 H       
  39 H39           -3.4429    -0.9700     1.2784 H       
  40 H40           -2.9933    -2.6613     1.8720 H       
  41 H41           -2.7090    -3.4588     4.1820 H       
  42 H42            1.5347    -3.5711     3.6037 H       
  43 H43            1.2316    -2.7788     1.2943 H       
  44 H44           -2.4931    -4.0439     5.8767 H       
  45 H45           -2.1981    -4.8397     8.1846 H       
  46 H46            0.0553    -5.2946     9.0565 H       
  47 H47            1.7495    -4.1631     5.2975 H       
  48 H48           -3.4924     4.0719     1.0568 H       
  49 H49            2.4342    -5.3274     8.6428 H       
  50 H50            3.1006    -4.8812     7.1665 H       
  51 H51            2.9988     3.3268    -0.4431 H       
@<TRIPOS>BOND
   1    1    2 2
   2    1   10 1
   3    1    6 1
   4    2    3 1
   5    2   13 1
   6    3    4 1
   7    3    8 1
   8    4    5 2
   9    4   30 1
  10    5    6 1
  11    5   27 1
  12    6    7 2
  13    8    9 1
  14    8   31 1
  15    8   32 1
  16    9   14 ar
  17    9   18 ar
  18   10   11 1
  19   10   25 1
  20   10   33 1
  21   11   12 1
  22   11   34 1
  23   11   35 1
  24   12   13 1
  25   12   36 1
  26   12   37 1
  27   13   38 1
  28   13   39 1
  29   14   15 ar
  30   14   40 1
  31   15   16 ar
  32   15   41 1
  33   16   17 ar
  34   16   19 1
  35   17   18 ar
  36   17   42 1
  37   18   43 1
  38   19   20 ar
  39   19   24 ar
  40   20   21 ar
  41   20   44 1
  42   21   22 ar
  43   21   45 1
  44   22   23 ar
  45   22   46 1
  46   23   24 ar
  47   23   26 1
  48   24   47 1
  49   25   48 1
  50   26   49 1
  51   26   50 1
  52   27   28 2
  53   27   29 1
  54   29   51 1

#	End of record

