#	Name: ASD01900605
#	Creating user name:	WinNT
#	Creation time:	15. 06. 2019 19:52

#	Modifying user name:	WinNT
#	Modification time:	15. 06. 2019 19:52

#	Program:	/corina/corina34_cracker 3.40 0067  02.08.2006

@<TRIPOS>MOLECULE
ASD01900605
  42   45    0    0    0
SMALL
NO_CHARGES


@<TRIPOS>ATOM
   1 C1            -0.0168     1.3901     0.0097 C.ar    
   2 C2             0.0021    -0.0041     0.0020 C.ar    
   3 C3             1.2210    -0.6601    -0.0132 C.ar    
   4 C4             2.3823     0.0989    -0.0202 C.ar    
   5 C5             2.2916     1.4794    -0.0120 C.ar    
   6 N6             1.1190     2.0804     0.0025 N.ar    
   7 O7             1.0678     3.4954     0.0107 O.3     
   8 C8            -1.3109     2.1065     0.0197 C.2     
   9 N9            -1.4572     3.4675     0.0278 N.pl3   
  10 C10           -2.8121     3.7325     0.0357 C.ar    
  11 C11           -3.4566     2.4820     0.0319 C.ar    
  12 N12           -2.4893     1.5336     0.0165 N.2     
  13 C13           -4.8543     2.4293     0.0383 C.ar    
  14 C14           -5.5790     3.5872     0.0480 C.ar    
  15 C15           -4.9432     4.8205     0.0517 C.ar    
  16 C16           -3.5663     4.8975     0.0460 C.ar    
  17 S17           -7.3395     3.5138     0.0553 S.o2    
  18 O18           -7.7438     4.7385    -0.5412 O.2     
  19 O19           -7.6408     2.2667    -0.5556 O.2     
  20 C20           -7.7840     3.4850     1.8138 C.3     
  21 C21           -9.2833     3.4218     1.9520 C.ar    
  22 C22           -9.9223     2.1944     2.0085 C.ar    
  23 C23          -11.2994     2.1372     2.1359 C.ar    
  24 C24          -12.0358     3.3061     2.2066 C.ar    
  25 C25          -11.3958     4.5313     2.1500 C.ar    
  26 C26          -10.0199     4.5884     2.0281 C.ar    
  27 F27           -9.2020     1.0535     1.9389 F       
  28 Cl28         -13.7630     3.2355     2.3658 Cl      
  29 H29           -0.9213    -0.5643     0.0082 H       
  30 H30            1.2669    -1.7391    -0.0191 H       
  31 H31            3.3485    -0.3836    -0.0317 H       
  32 H32            3.1941     2.0725    -0.0171 H       
  33 H33            1.0620     3.8837     0.8963 H       
  34 H34           -0.7425     4.1233     0.0283 H       
  35 H35           -5.3596     1.4748     0.0351 H       
  36 H36           -5.5309     5.7266     0.0594 H       
  37 H37           -3.0769     5.8603     0.0487 H       
  38 H38           -7.3382     2.6101     2.2870 H       
  39 H39           -7.4123     4.3885     2.2973 H       
  40 H40          -11.7986     1.1805     2.1797 H       
  41 H41          -11.9711     5.4437     2.2052 H       
  42 H42           -9.5209     5.5453     1.9881 H       
@<TRIPOS>BOND
   1    1    2 ar
   2    1    6 ar
   3    1    8 1
   4    2    3 ar
   5    2   29 1
   6    3    4 ar
   7    3   30 1
   8    4    5 ar
   9    4   31 1
  10    5    6 ar
  11    5   32 1
  12    6    7 1
  13    7   33 1
  14    8    9 1
  15    8   12 2
  16    9   10 1
  17    9   34 1
  18   10   11 ar
  19   10   16 ar
  20   11   12 1
  21   11   13 ar
  22   13   14 ar
  23   13   35 1
  24   14   15 ar
  25   14   17 1
  26   15   16 ar
  27   15   36 1
  28   16   37 1
  29   17   18 2
  30   17   19 2
  31   17   20 1
  32   20   21 1
  33   20   38 1
  34   20   39 1
  35   21   22 ar
  36   21   26 ar
  37   22   23 ar
  38   22   27 1
  39   23   24 ar
  40   23   40 1
  41   24   25 ar
  42   24   28 1
  43   25   26 ar
  44   25   41 1
  45   26   42 1

#	End of record

