#	Name: ASD03740055
#	Creating user name:	WinNT
#	Creation time:	15. 06. 2019 20:46

#	Modifying user name:	WinNT
#	Modification time:	15. 06. 2019 20:46

#	Program:	/corina/corina34_cracker 3.40 0067  02.08.2006

@<TRIPOS>MOLECULE
ASD03740055
  67   70    0    0    0
SMALL
NO_CHARGES


@<TRIPOS>ATOM
   1 C1            -0.0168     1.3849     0.0097 C.ar    
   2 C2             0.0021    -0.0041     0.0020 C.ar    
   3 C3             1.1850    -0.6877    -0.0125 C.ar    
   4 C4             2.3894     0.0113    -0.0203 C.ar    
   5 C5             2.3718     1.4195    -0.0131 C.ar    
   6 C6             1.1486     2.0963     0.0023 C.ar    
   7 N7             3.7063    -0.3680    -0.0346 N.pl3   
   8 N8             4.5133     0.7743    -0.0364 N.2     
   9 C9             3.7704     1.8474    -0.0241 C.2     
  10 O10            4.2163     3.1315    -0.0222 O.3     
  11 C11            4.1915    -1.7503    -0.0454 C.3     
  12 C12            4.3467    -2.2250    -1.4916 C.3     
  13 C13            5.6318     3.3268    -0.0344 C.3     
  14 C14            5.9400     4.8254    -0.0302 C.3     
  15 N15            5.4770     5.4170     1.2321 N.3     
  16 C16            5.9642     6.8010     1.3771 C.3     
  17 C17            4.9705    -3.6225    -1.5053 C.3     
  18 C18            5.1562    -4.0802    -2.9554 C.3     
  19 C19            3.1353    -2.7139    -3.6207 C.3     
  20 C20            4.7272     7.7034     1.5693 C.3     
  21 C21            3.6510     6.7149     2.0903 C.3     
  22 C22            4.0002     5.4281     1.3019 C.3     
  23 C23            2.9723    -2.2715    -2.1632 C.3     
  24 N24            3.8642    -3.9893    -3.6491 N.am    
  25 O25            2.1723    -4.9580    -4.9309 O.3     
  26 C26            1.6879    -6.1462    -5.6106 C.3     
  27 C27            1.5221    -7.2811    -4.5981 C.3     
  28 C28            0.3380    -5.8449    -6.2646 C.3     
  29 C29            2.6933    -6.5644    -6.6855 C.3     
  30 C30            3.3574    -5.0555    -4.2994 C.2     
  31 O31            3.9702    -6.1047    -4.3159 O.2     
  32 H32           -0.9621     1.9071     0.0170 H       
  33 H33           -0.9296    -0.5502     0.0080 H       
  34 H34            1.1859    -1.7677    -0.0176 H       
  35 H35            1.1256     3.1760     0.0077 H       
  36 H36            5.1565    -1.8005     0.4590 H       
  37 H37            3.4771    -2.3902     0.4724 H       
  38 H38            4.9922    -1.5339    -2.0334 H       
  39 H39            6.0702     2.8632     0.8494 H       
  40 H40            6.0537     2.8716    -0.9305 H       
  41 H41            7.0151     4.9756    -0.1291 H       
  42 H42            5.4280     5.3039    -0.8651 H       
  43 H43            6.6162     6.8754     2.2474 H       
  44 H44            6.5052     7.0997     0.4792 H       
  45 H45            5.9390    -3.5934    -1.0061 H       
  46 H46            4.3133    -4.3194    -0.9851 H       
  47 H47            5.8832    -3.4371    -3.4513 H       
  48 H48            5.5074    -5.1120    -2.9708 H       
  49 H49            2.1531    -2.8442    -4.0751 H       
  50 H50            3.6975    -1.9594    -4.1709 H       
  51 H51            4.9274     8.4797     2.3079 H       
  52 H52            4.4197     8.1430     0.6204 H       
  53 H53            3.7544     6.5554     3.1636 H       
  54 H54            2.6483     7.0639     1.8438 H       
  55 H55            3.5733     5.4694     0.2998 H       
  56 H56            3.6388     4.5476     1.8332 H       
  57 H57            2.3339    -2.9811    -1.6368 H       
  58 H58            2.5186    -1.2809    -2.1322 H       
  59 H59            0.8059    -6.9831    -3.8324 H       
  60 H60            1.1585    -8.1730    -5.1083 H       
  61 H61            2.4839    -7.4958    -4.1322 H       
  62 H62            0.4561    -5.0363    -6.9860 H       
  63 H63           -0.0257    -6.7368    -6.7749 H       
  64 H64           -0.3783    -5.5469    -5.4989 H       
  65 H65            3.6550    -6.7791    -6.2195 H       
  66 H66            2.3296    -7.4563    -7.1957 H       
  67 H67            2.8114    -5.7559    -7.4068 H       
@<TRIPOS>BOND
   1    1    2 ar
   2    1    6 ar
   3    1   32 1
   4    2    3 ar
   5    2   33 1
   6    3    4 ar
   7    3   34 1
   8    4    5 ar
   9    4    7 1
  10    5    6 ar
  11    5    9 1
  12    6   35 1
  13    7    8 1
  14    7   11 1
  15    8    9 2
  16    9   10 1
  17   10   13 1
  18   11   12 1
  19   11   36 1
  20   11   37 1
  21   12   17 1
  22   12   23 1
  23   12   38 1
  24   13   14 1
  25   13   39 1
  26   13   40 1
  27   14   15 1
  28   14   41 1
  29   14   42 1
  30   15   16 1
  31   15   22 1
  32   16   20 1
  33   16   43 1
  34   16   44 1
  35   17   18 1
  36   17   45 1
  37   17   46 1
  38   18   24 1
  39   18   47 1
  40   18   48 1
  41   19   23 1
  42   19   24 1
  43   19   49 1
  44   19   50 1
  45   20   21 1
  46   20   51 1
  47   20   52 1
  48   21   22 1
  49   21   53 1
  50   21   54 1
  51   22   55 1
  52   22   56 1
  53   23   57 1
  54   23   58 1
  55   24   30 am
  56   25   26 1
  57   25   30 1
  58   26   27 1
  59   26   28 1
  60   26   29 1
  61   27   59 1
  62   27   60 1
  63   27   61 1
  64   28   62 1
  65   28   63 1
  66   28   64 1
  67   29   65 1
  68   29   66 1
  69   29   67 1
  70   30   31 2

#	End of record

