#	Name: ASD01208728
#	Creating user name:	WinNT
#	Creation time:	15. 06. 2019 19:10

#	Modifying user name:	WinNT
#	Modification time:	15. 06. 2019 19:10

#	Program:	/corina/corina34_cracker 3.40 0067  02.08.2006

@<TRIPOS>MOLECULE
ASD01208728
  55   58    0    0    0
SMALL
NO_CHARGES


@<TRIPOS>ATOM
   1 C1            -0.0506     1.3603    -0.4066 C.2     
   2 C2             0.0243     0.0687     0.2967 C.ar    
   3 C3             1.2621    -0.5718     0.4644 C.ar    
   4 C4             1.3233    -1.7857     1.1268 C.ar    
   5 C5             0.1645    -2.3655     1.6223 C.ar    
   6 C6            -1.0632    -1.7320     1.4564 C.ar    
   7 C7            -1.1365    -0.5221     0.8053 C.ar    
   8 O8             0.9614     1.8743    -0.8437 O.2     
   9 N9            -1.2413     1.9700    -0.5710 N.am    
  10 S10           -2.7859     4.1080    -1.5290 S.3     
  11 C11           -1.3120     3.1892    -1.2349 C.2     
  12 N12           -0.3026     3.8325    -1.7367 N.2     
  13 C13           -0.5609     4.9810    -2.3339 C.2     
  14 C14           -1.8437     5.3496    -2.3516 C.2     
  15 F15           -2.3351     6.4799    -2.9049 F       
  16 O16            2.3940    -0.0034    -0.0212 O.3     
  17 C17            3.5509    -0.7093     0.0680 C.ar    
  18 C18            3.9125    -1.5787    -0.9533 C.ar    
  19 C19            5.0856    -2.2967    -0.8664 C.ar    
  20 C20            5.9113    -2.1491     0.2499 C.ar    
  21 C21            5.5446    -1.2739     1.2742 C.ar    
  22 C22            4.3723    -0.5557     1.1777 C.ar    
  23 O23            8.0571    -2.8737     1.3612 O.3     
  24 C24            7.1698    -2.9174     0.3472 C.2     
  25 N25            7.6319    -3.7702    -0.5374 N.2     
  26 N26            8.7509    -4.2492    -0.1205 N.2     
  27 C27            9.0451    -3.7259     1.0366 C.2     
  28 C28           10.2710    -4.0226     1.8613 C.3     
  29 C29           11.3908    -3.0532     1.4774 C.3     
  30 O30            0.2286    -3.5558     2.2712 O.3     
  31 C31           -1.0017    -4.0972     2.7562 C.3     
  32 C32           -0.7316    -5.4318     3.4539 C.3     
  33 C33           -2.0291    -6.0029     3.9654 C.2     
  34 C34           -2.3946    -7.2119     3.6182 C.2     
  35 H35            2.2737    -2.2819     1.2576 H       
  36 H36           -1.9614    -2.1894     1.8445 H       
  37 H37           -2.0908    -0.0314     0.6829 H       
  38 H38           -2.0489     1.5581    -0.2259 H       
  39 H39            0.2162     5.5843    -2.7795 H       
  40 H40            3.2734    -1.6924    -1.8164 H       
  41 H41            5.3658    -2.9730    -1.6605 H       
  42 H42            6.1807    -1.1570     2.1391 H       
  43 H43            4.0900     0.1245     1.9677 H       
  44 H44           10.0348    -3.9044     2.9188 H       
  45 H45           10.5961    -5.0459     1.6738 H       
  46 H46           12.2774    -3.2678     2.0740 H       
  47 H47           11.6270    -3.1714     0.4199 H       
  48 H48           11.0656    -2.0299     1.6649 H       
  49 H49           -1.4507    -3.4012     3.4648 H       
  50 H50           -1.6835    -4.2555     1.9207 H       
  51 H51           -0.2826    -6.1279     2.7454 H       
  52 H52           -0.0498    -5.2736     4.2895 H       
  53 H53           -2.6575    -5.4153     4.6183 H       
  54 H54           -1.7662    -7.7995     2.9654 H       
  55 H55           -3.3244    -7.6212     3.9848 H       
@<TRIPOS>BOND
   1    1    2 1
   2    1    8 2
   3    1    9 am
   4    2    3 ar
   5    2    7 ar
   6    3    4 ar
   7    3   16 1
   8    4    5 ar
   9    4   35 1
  10    5    6 ar
  11    5   30 1
  12    6    7 ar
  13    6   36 1
  14    7   37 1
  15    9   11 1
  16    9   38 1
  17   10   11 1
  18   10   14 1
  19   11   12 2
  20   12   13 1
  21   13   14 2
  22   13   39 1
  23   14   15 1
  24   16   17 1
  25   17   18 ar
  26   17   22 ar
  27   18   19 ar
  28   18   40 1
  29   19   20 ar
  30   19   41 1
  31   20   21 ar
  32   20   24 1
  33   21   22 ar
  34   21   42 1
  35   22   43 1
  36   23   24 1
  37   23   27 1
  38   24   25 2
  39   25   26 1
  40   26   27 2
  41   27   28 1
  42   28   29 1
  43   28   44 1
  44   28   45 1
  45   29   46 1
  46   29   47 1
  47   29   48 1
  48   30   31 1
  49   31   32 1
  50   31   49 1
  51   31   50 1
  52   32   33 1
  53   32   51 1
  54   32   52 1
  55   33   34 2
  56   33   53 1
  57   34   54 1
  58   34   55 1

#	End of record

