#	Name: ASD01230830
#	Creating user name:	WinNT
#	Creation time:	15. 06. 2019 19:15

#	Modifying user name:	WinNT
#	Modification time:	15. 06. 2019 19:15

#	Program:	/corina/corina34_cracker 3.40 0067  02.08.2006

@<TRIPOS>MOLECULE
ASD01230830
  57   60    0    0    0
SMALL
NO_CHARGES


@<TRIPOS>ATOM
   1 C1             0.9974    -0.1183    -0.6747 C.3     
   2 C2             1.4229    -1.5090    -0.1960 C.3     
   3 C3             0.3049    -2.5240    -0.3881 C.3     
   4 C4            -1.0786    -1.8911    -0.3369 C.3     
   5 N5            -1.0808    -0.6812     0.4887 N.pl3   
   6 C6            -0.1827     0.3079     0.1817 C.2     
   7 C7            -1.9911    -0.5567     1.6243 C.3     
   8 C8            -2.7625     0.7597     1.5173 C.3     
   9 S9            -1.5893     2.1331     1.3717 S.o2    
  10 N10           -0.3068     1.5267     0.5352 N.am    
  11 C11            2.1351     0.8547    -0.5020 C.ar    
  12 O12           -2.1122     3.1438     0.5205 O.2     
  13 O13           -1.0496     2.4612     2.6446 O.2     
  14 C14            2.6528     1.5135    -1.6019 C.ar    
  15 C15            3.6958     2.4058    -1.4464 C.ar    
  16 C16            4.2235     2.6412    -0.1848 C.ar    
  17 C17            3.7019     1.9791     0.9174 C.ar    
  18 C18            2.6557     1.0913     0.7569 C.ar    
  19 O19            5.2498     3.5182    -0.0292 O.3     
  20 C20            5.6571     4.2231    -1.1171 C.ar    
  21 C21            5.0645     5.4412    -1.4178 C.ar    
  22 C22            5.4808     6.1560    -2.5241 C.ar    
  23 C23            6.4868     5.6585    -3.3318 C.ar    
  24 C24            7.0790     4.4449    -3.0344 C.ar    
  25 C25            6.6703     3.7288    -1.9261 C.ar    
  26 C26            6.9383     6.4400    -4.5386 C.3     
  27 C27            7.4621     7.8071    -4.0942 C.3     
  28 C28            8.0532     5.6746    -5.2541 C.3     
  29 C29            5.7578     6.6318    -5.4929 C.3     
  30 H30            0.7011    -0.1607    -1.7228 H       
  31 H31            2.2975    -1.8295    -0.7621 H       
  32 H32            1.6819    -1.4589     0.8616 H       
  33 H33            0.4337    -3.0106    -1.3549 H       
  34 H34            0.3760    -3.2784     0.3954 H       
  35 H35           -1.3906    -1.6330    -1.3489 H       
  36 H36           -1.7843    -2.6092     0.0807 H       
  37 H37           -2.6931    -1.3905     1.6204 H       
  38 H38           -1.4186    -0.5680     2.5518 H       
  39 H39           -3.4043     0.7347     0.6366 H       
  40 H40           -3.3738     0.8966     2.4093 H       
  41 H41            2.2417     1.3299    -2.5836 H       
  42 H42            4.1003     2.9196    -2.3059 H       
  43 H43            4.1109     2.1605     1.9003 H       
  44 H44            2.2491     0.5760     1.6145 H       
  45 H45            4.2783     5.8299    -0.7876 H       
  46 H46            5.0199     7.1042    -2.7586 H       
  47 H47            7.8643     4.0583    -3.6671 H       
  48 H48            7.1332     2.7809    -1.6942 H       
  49 H49            8.3031     7.6705    -3.4144 H       
  50 H50            7.7886     8.3724    -4.9671 H       
  51 H51            6.6678     8.3524    -3.5845 H       
  52 H52            7.6800     4.7006    -5.5707 H       
  53 H53            8.3798     6.2399    -6.1270 H       
  54 H54            8.8942     5.5380    -4.5743 H       
  55 H55            4.9634     7.1771    -4.9832 H       
  56 H56            6.0843     7.1971    -6.3658 H       
  57 H57            5.3846     5.6578    -5.8095 H       
@<TRIPOS>BOND
   1    1    2 1
   2    1   11 1
   3    1    6 1
   4    1   30 1
   5    2    3 1
   6    2   31 1
   7    2   32 1
   8    3    4 1
   9    3   33 1
  10    3   34 1
  11    4    5 1
  12    4   35 1
  13    4   36 1
  14    5    6 1
  15    5    7 1
  16    6   10 2
  17    7    8 1
  18    7   37 1
  19    7   38 1
  20    8    9 1
  21    8   39 1
  22    8   40 1
  23    9   10 am
  24    9   12 2
  25    9   13 2
  26   11   14 ar
  27   11   18 ar
  28   14   15 ar
  29   14   41 1
  30   15   16 ar
  31   15   42 1
  32   16   17 ar
  33   16   19 1
  34   17   18 ar
  35   17   43 1
  36   18   44 1
  37   19   20 1
  38   20   21 ar
  39   20   25 ar
  40   21   22 ar
  41   21   45 1
  42   22   23 ar
  43   22   46 1
  44   23   24 ar
  45   23   26 1
  46   24   25 ar
  47   24   47 1
  48   25   48 1
  49   26   27 1
  50   26   28 1
  51   26   29 1
  52   27   49 1
  53   27   50 1
  54   27   51 1
  55   28   52 1
  56   28   53 1
  57   28   54 1
  58   29   55 1
  59   29   56 1
  60   29   57 1

#	End of record

