#	Name: ASD01884386
#	Creating user name:	WinNT
#	Creation time:	15. 06. 2019 19:48

#	Modifying user name:	WinNT
#	Modification time:	15. 06. 2019 19:48

#	Program:	/corina/corina34_cracker 3.40 0067  02.08.2006

@<TRIPOS>MOLECULE
ASD01884386
  63   65    0    0    0
SMALL
NO_CHARGES


@<TRIPOS>ATOM
   1 C1            -0.1244     1.9951     0.4609 C.2     
   2 C2            -0.3353     0.6187     0.4405 C.2     
   3 C3            -1.6248     0.1293     0.6531 C.2     
   4 C4            -2.6515     0.9883     0.8750 C.2     
   5 N5            -2.4538     2.3288     0.8962 N.am    
   6 C6            -1.2287     2.8533     0.7028 C.2     
   7 O7            -1.0705     4.0618     0.7255 O.2     
   8 C8            -3.5900     3.2213     1.1389 C.3     
   9 C9             1.1847     2.5348     0.2474 C.1     
  10 N10            2.2232     2.9630     0.0780 N.1     
  11 N11            1.3542    -0.7866     1.4776 N.3     
  12 C12            2.3105    -1.8853     1.2830 C.3     
  13 C13            2.9115    -2.2803     2.6340 C.3     
  14 N14            1.8331    -2.6805     3.5486 N.3     
  15 C15            0.8767    -1.5818     3.7433 C.3     
  16 C16            0.2758    -1.1867     2.3923 C.3     
  17 N17            2.3707    -3.1348     4.8209 N.3     
  18 C18           -3.7299     3.4718     2.6417 C.3     
  19 C19            0.8110    -0.3275     0.1922 C.3     
  20 C20           -4.9165     4.4038     2.8951 C.3     
  21 C21           -5.1335     4.5550     4.4021 C.3     
  22 C22           -4.6279     5.7753     2.2813 C.3     
  23 C23            1.3097    -3.6872     5.6736 C.3     
  24 C24            3.4465    -4.1143     4.6181 C.3     
  25 C25            0.7114    -4.9001     5.0088 C.ar    
  26 C26            1.2152    -6.1577     5.2840 C.ar    
  27 C27            0.6670    -7.2707     4.6753 C.ar    
  28 C28           -0.3872    -7.1260     3.7896 C.ar    
  29 C29           -0.8911    -5.8659     3.5147 C.ar    
  30 C30           -0.3447    -4.7548     4.1286 C.ar    
  31 F31           -0.9236    -8.2133     3.1936 F       
  32 H32           -1.8060    -0.9353     0.6406 H       
  33 H33           -3.6447     0.5964     1.0373 H       
  34 H34           -3.4236     4.1689     0.6265 H       
  35 H35           -4.5021     2.7593     0.7611 H       
  36 H36            1.7960    -2.7427     0.8491 H       
  37 H37            3.1059    -1.5605     0.6122 H       
  38 H38            3.5995    -3.1144     2.4960 H       
  39 H39            3.4491    -1.4309     3.0552 H       
  40 H40            0.0813    -1.9066     4.4141 H       
  41 H41            1.3913    -0.7244     4.1771 H       
  42 H42           -0.4122    -0.3526     2.5302 H       
  43 H43           -0.2619    -2.0362     1.9710 H       
  44 H44           -3.8963     2.5242     3.1541 H       
  45 H45           -2.8178     3.9338     3.0195 H       
  46 H46            0.4568    -1.1852    -0.3797 H       
  47 H47            1.5913     0.1864    -0.3692 H       
  48 H48           -5.8128     3.9831     2.4393 H       
  49 H49           -4.2372     4.9757     4.8579 H       
  50 H50           -5.9789     5.2190     4.5826 H       
  51 H51           -5.3391     3.5780     4.8394 H       
  52 H52           -4.4732     5.6676     1.2077 H       
  53 H53           -5.4732     6.4393     2.4618 H       
  54 H54           -3.7316     6.1960     2.7371 H       
  55 H55            1.7300    -3.9718     6.6382 H       
  56 H56            0.5349    -2.9352     5.8226 H       
  57 H57            4.2509    -3.6566     4.0423 H       
  58 H58            3.8307    -4.4376     5.5856 H       
  59 H59            3.0563    -4.9757     4.0760 H       
  60 H60            2.0378    -6.2703     5.9747 H       
  61 H61            1.0611    -8.2531     4.8902 H       
  62 H62           -1.7134    -5.7518     2.8239 H       
  63 H63           -0.7375    -3.7719     3.9144 H       
@<TRIPOS>BOND
   1    1    2 2
   2    1    9 1
   3    1    6 1
   4    2    3 1
   5    2   19 1
   6    3    4 2
   7    3   32 1
   8    4    5 1
   9    4   33 1
  10    5    6 am
  11    5    8 1
  12    6    7 2
  13    8   18 1
  14    8   34 1
  15    8   35 1
  16    9   10 3
  17   11   12 1
  18   11   16 1
  19   11   19 1
  20   12   13 1
  21   12   36 1
  22   12   37 1
  23   13   14 1
  24   13   38 1
  25   13   39 1
  26   14   15 1
  27   14   17 1
  28   15   16 1
  29   15   40 1
  30   15   41 1
  31   16   42 1
  32   16   43 1
  33   17   23 1
  34   17   24 1
  35   18   20 1
  36   18   44 1
  37   18   45 1
  38   19   46 1
  39   19   47 1
  40   20   21 1
  41   20   22 1
  42   20   48 1
  43   21   49 1
  44   21   50 1
  45   21   51 1
  46   22   52 1
  47   22   53 1
  48   22   54 1
  49   23   25 1
  50   23   55 1
  51   23   56 1
  52   24   57 1
  53   24   58 1
  54   24   59 1
  55   25   26 ar
  56   25   30 ar
  57   26   27 ar
  58   26   60 1
  59   27   28 ar
  60   27   61 1
  61   28   29 ar
  62   28   31 1
  63   29   30 ar
  64   29   62 1
  65   30   63 1

#	End of record

