#	Name: ASD01811248
#	Creating user name:	WinNT
#	Creation time:	15. 06. 2019 19:26

#	Modifying user name:	WinNT
#	Modification time:	15. 06. 2019 19:26

#	Program:	/corina/corina34_cracker 3.40 0067  02.08.2006

@<TRIPOS>MOLECULE
ASD01811248
  63   67    0    0    0
SMALL
NO_CHARGES


@<TRIPOS>ATOM
   1 C1            -7.3363     2.1311    -3.9034 C.1     
   2 C2            -6.3588     2.9294    -3.2269 C.ar    
   3 C3            -5.1973     2.3394    -2.7244 C.ar    
   4 C4            -4.2598     3.1144    -2.0737 C.ar    
   5 C5            -4.4685     4.4733    -1.9181 C.ar    
   6 C6            -5.6174     5.0644    -2.4133 C.ar    
   7 C7            -6.5600     4.3024    -3.0719 C.ar    
   8 N8            -8.1118     1.4977    -4.4401 N.1     
   9 N9            -2.4146     7.7426    -0.1822 N.am    
  10 C10           -1.8515     7.2271    -1.4376 C.3     
  11 C11           -2.9215     6.3971    -2.1538 C.3     
  12 C12           -3.4401     5.3134    -1.2057 C.3     
  13 C13           -4.0783     5.9692     0.0209 C.3     
  14 C14           -3.0215     6.7944     0.7618 C.3     
  15 C15           -2.3704     9.0597     0.1005 C.2     
  16 C16           -3.0176     9.5749     1.3260 C.ar    
  17 C17           -3.9733    10.5899     1.2392 C.ar    
  18 C18           -4.5783    11.0720     2.3825 C.ar    
  19 C19           -4.2433    10.5554     3.6188 C.ar    
  20 C20           -3.2897     9.5407     3.7197 C.ar    
  21 C21           -2.6797     9.0453     2.5695 C.ar    
  22 O22           -1.7984     9.8239    -0.6521 O.2     
  23 C23           -2.9319     8.9889     5.0448 C.2     
  24 N24           -3.5069     9.2947     6.1865 N.2     
  25 C25           -2.9240     8.6041     7.1731 C.2     
  26 C26           -1.9509     7.8384     6.6388 C.2     
  27 N27           -1.9526     8.0714     5.2899 N.pl3   
  28 C28           -1.0382     6.8994     7.3848 C.3     
  29 C29           -4.3444    11.1603    -0.1055 C.3     
  30 C30           -4.9083    11.0885     4.8616 C.3     
  31 C31           -4.7681    12.6105     5.0307 C.3     
  32 C32           -6.2264    12.6115     5.5187 C.3     
  33 C33           -6.4191    11.3248     4.6989 C.3     
  34 H34           -5.0335     1.2787    -2.8445 H       
  35 H35           -3.3610     2.6593    -1.6845 H       
  36 H36           -5.7742     6.1256    -2.2881 H       
  37 H37           -7.4541     4.7659    -3.4622 H       
  38 H38           -1.5500     8.0604    -2.0722 H       
  39 H39           -0.9873     6.5996    -1.2198 H       
  40 H40           -3.7459     7.0451    -2.4513 H       
  41 H41           -2.4880     5.9298    -3.0380 H       
  42 H42           -2.6108     4.6809    -0.8889 H       
  43 H43           -4.8919     6.6212    -0.2971 H       
  44 H44           -4.4683     5.1974     0.6845 H       
  45 H45           -2.2526     6.1315     1.1589 H       
  46 H46           -3.4919     7.3421     1.5783 H       
  47 H47           -5.3167    11.8568     2.3100 H       
  48 H48           -1.9449     8.2571     2.6418 H       
  49 H49           -3.1876     8.6521     8.2193 H       
  50 H50           -1.3672     7.6630     4.6331 H       
  51 H51           -1.4927     5.9097     7.4291 H       
  52 H52           -0.0805     6.8367     6.8681 H       
  53 H53           -0.8813     7.2728     8.3968 H       
  54 H54           -5.1116    10.5373    -0.5652 H       
  55 H55           -4.7270    12.1728     0.0224 H       
  56 H56           -3.4629    11.1832    -0.7462 H       
  57 H57           -4.6472    10.5238     5.7567 H       
  58 H58           -4.0506    12.9003     5.7983 H       
  59 H59           -4.6219    13.1426     4.0907 H       
  60 H60           -6.3271    12.4633     6.5939 H       
  61 H61           -6.8096    13.4554     5.1503 H       
  62 H62           -6.7242    11.5054     3.6681 H       
  63 H63           -7.0344    10.5766     5.1986 H       
@<TRIPOS>BOND
   1    1    2 1
   2    1    8 3
   3    2    3 ar
   4    2    7 ar
   5    3    4 ar
   6    3   34 1
   7    4    5 ar
   8    4   35 1
   9    5    6 ar
  10    5   12 1
  11    6    7 ar
  12    6   36 1
  13    7   37 1
  14    9   10 1
  15    9   14 1
  16    9   15 am
  17   10   11 1
  18   10   38 1
  19   10   39 1
  20   11   12 1
  21   11   40 1
  22   11   41 1
  23   12   13 1
  24   12   42 1
  25   13   14 1
  26   13   43 1
  27   13   44 1
  28   14   45 1
  29   14   46 1
  30   15   16 1
  31   15   22 2
  32   16   17 ar
  33   16   21 ar
  34   17   18 ar
  35   17   29 1
  36   18   19 ar
  37   18   47 1
  38   19   20 ar
  39   19   30 1
  40   20   21 ar
  41   20   23 1
  42   21   48 1
  43   23   24 2
  44   23   27 1
  45   24   25 1
  46   25   26 2
  47   25   49 1
  48   26   27 1
  49   26   28 1
  50   27   50 1
  51   28   51 1
  52   28   52 1
  53   28   53 1
  54   29   54 1
  55   29   55 1
  56   29   56 1
  57   30   31 1
  58   30   33 1
  59   30   57 1
  60   31   32 1
  61   31   58 1
  62   31   59 1
  63   32   33 1
  64   32   60 1
  65   32   61 1
  66   33   62 1
  67   33   63 1

#	End of record

