#	Name: ASD00071108
#	Creating user name:	WinNT
#	Creation time:	15. 06. 2019 18:30

#	Modifying user name:	WinNT
#	Modification time:	15. 06. 2019 18:30

#	Program:	/corina/corina34_cracker 3.40 0067  02.08.2006

@<TRIPOS>MOLECULE
ASD00071108
  40   41    0    0    0
SMALL
NO_CHARGES


@<TRIPOS>ATOM
   1 C1            -0.0178     1.4648     0.0101 C.3     
   2 N2             0.0021    -0.0041     0.0020 N.3     
   3 C3            -1.3620    -0.5491     0.0121 C.3     
   4 C4            -1.3014    -2.0549     0.0034 C.ar    
   5 C5            -1.2620    -2.7551     1.1993 C.ar    
   6 C6            -1.2062    -4.1416     1.1887 C.ar    
   7 C7            -1.1898    -4.8244    -0.0125 C.ar    
   8 C8            -1.2290    -4.1288    -1.2057 C.ar    
   9 C9            -1.2906    -2.7424    -1.2004 C.ar    
  10 O10           -1.3348    -2.0591    -2.3742 O.3     
  11 C11           -1.3205    -2.8322    -3.5759 C.3     
  12 O12           -1.2776    -2.0841     2.3810 O.3     
  13 C13           -1.2348    -2.8699     3.5738 C.3     
  14 C14            1.3960     1.9864    -0.0006 C.ar    
  15 C15            2.1051     2.0369    -1.1865 C.ar    
  16 C16            3.4019     2.5152    -1.1971 C.ar    
  17 C17            3.9904     2.9438    -0.0220 C.ar    
  18 C18            3.2813     2.8939     1.1647 C.ar    
  19 C19            1.9814     2.4195     1.1739 C.ar    
  20 N20            1.4755     1.5781    -2.4451 N.pl3   
  21 O21            2.1000     1.6225    -3.4898 O.2     
  22 O22            0.3329     1.1562    -2.4359 O.2     
  23 Cl23           4.0197     3.4320     2.6408 Cl      
  24 H24           -0.5450     1.8259    -0.8730 H       
  25 H25           -0.5280     1.8163     0.9069 H       
  26 H26            0.5256    -0.3543    -0.7863 H       
  27 H27           -1.8815    -0.2116     0.9089 H       
  28 H28           -1.8985    -0.2020    -0.8709 H       
  29 H29           -1.1751    -4.6875     2.1201 H       
  30 H30           -1.1459    -5.9035    -0.0187 H       
  31 H31           -1.2161    -4.6646    -2.1433 H       
  32 H32           -1.3596    -2.1655    -4.4373 H       
  33 H33           -0.4064    -3.4245    -3.6160 H       
  34 H34           -2.1847    -3.4963    -3.5909 H       
  35 H35           -2.0987    -3.5340     3.6026 H       
  36 H36           -0.3203    -3.4628     3.5857 H       
  37 H37           -1.2529    -2.2124     4.4429 H       
  38 H38            3.9555     2.5537    -2.1235 H       
  39 H39            5.0038     3.3172    -0.0303 H       
  40 H40            1.4260     2.3839     2.0994 H       
@<TRIPOS>BOND
   1    1    2 1
   2    1   14 1
   3    1   24 1
   4    1   25 1
   5    2    3 1
   6    2   26 1
   7    3    4 1
   8    3   27 1
   9    3   28 1
  10    4    5 ar
  11    4    9 ar
  12    5    6 ar
  13    5   12 1
  14    6    7 ar
  15    6   29 1
  16    7    8 ar
  17    7   30 1
  18    8    9 ar
  19    8   31 1
  20    9   10 1
  21   10   11 1
  22   11   32 1
  23   11   33 1
  24   11   34 1
  25   12   13 1
  26   13   35 1
  27   13   36 1
  28   13   37 1
  29   14   15 ar
  30   14   19 ar
  31   15   16 ar
  32   15   20 1
  33   16   17 ar
  34   16   38 1
  35   17   18 ar
  36   17   39 1
  37   18   19 ar
  38   18   23 1
  39   19   40 1
  40   20   21 2
  41   20   22 2

#	End of record

