#	Name: ASD04012001
#	Creating user name:	WinNT
#	Creation time:	15. 06. 2019 20:48

#	Modifying user name:	WinNT
#	Modification time:	15. 06. 2019 20:48

#	Program:	/corina/corina34_cracker 3.40 0067  02.08.2006

@<TRIPOS>MOLECULE
ASD04012001
  27   29    0    0    0
SMALL
NO_CHARGES


@<TRIPOS>ATOM
   1 N1            -0.0169     1.3966     0.0097 N.pl3   
   2 C2             1.2885     1.8004    -0.0006 C.2     
   3 N3             1.5928     3.1035     0.0035 N.2     
   4 C4             0.6476     4.0208     0.0175 C.2     
   5 C5            -0.6977     3.6478     0.0288 C.2     
   6 C6            -1.0210     2.3193     0.0193 C.2     
   7 N7             0.0021    -0.0041     0.0020 N.2     
   8 C8             1.2602    -0.3712    -0.0120 C.2     
   9 N9             2.0384     0.7041    -0.0136 N.2     
  10 O10           -2.3151     1.9268     0.0298 O.3     
  11 C11           -1.7800     4.6963     0.0457 C.3     
  12 C12           -2.0405     5.1266     1.4663 C.ar    
  13 Cl13           1.0771     5.7028     0.0224 Cl      
  14 C14           -1.3312     6.1811     2.0101 C.ar    
  15 C15           -1.5701     6.5757     3.3132 C.ar    
  16 C16           -2.5186     5.9161     4.0723 C.ar    
  17 C17           -3.2285     4.8622     3.5281 C.ar    
  18 C18           -2.9927     4.4704     2.2236 C.ar    
  19 H19            1.6104    -1.3928    -0.0205 H       
  20 H20           -2.4352     0.9673     0.0217 H       
  21 H21           -1.4611     5.5572    -0.5420 H       
  22 H22           -2.6933     4.2827    -0.3819 H       
  23 H23           -0.5902     6.6964     1.4171 H       
  24 H24           -1.0154     7.3991     3.7384 H       
  25 H25           -2.7047     6.2240     5.0906 H       
  26 H26           -3.9693     4.3467     4.1213 H       
  27 H27           -3.5473     3.6470     1.7985 H       
@<TRIPOS>BOND
   1    1    7 1
   2    1    2 1
   3    1    6 1
   4    2    3 1
   5    2    9 2
   6    3    4 2
   7    4    5 1
   8    4   13 1
   9    5    6 2
  10    5   11 1
  11    6   10 1
  12    7    8 2
  13    8    9 1
  14    8   19 1
  15   10   20 1
  16   11   12 1
  17   11   21 1
  18   11   22 1
  19   12   14 ar
  20   12   18 ar
  21   14   15 ar
  22   14   23 1
  23   15   16 ar
  24   15   24 1
  25   16   17 ar
  26   16   25 1
  27   17   18 ar
  28   17   26 1
  29   18   27 1

#	End of record

