#	Name: ASD05490151
#	Creating user name:	WinNT
#	Creation time:	15. 06. 2019 21:01

#	Modifying user name:	WinNT
#	Modification time:	15. 06. 2019 21:01

#	Program:	/corina/corina34_cracker 3.40 0067  02.08.2006

@<TRIPOS>MOLECULE
ASD05490151
  71   76    0    0    0
SMALL
NO_CHARGES


@<TRIPOS>ATOM
   1 O1            -2.2665     1.8171     0.0253 O.2     
   2 N2            -0.0178     1.4608     0.0101 N.am    
   3 O3             4.5863     2.8160    -0.0274 O.3     
   4 N4             2.8511     4.3367    -0.0019 N.ar    
   5 C5             1.5540     4.6376     0.0121 C.ar    
   6 C6             3.2565     3.0770    -0.0133 C.ar    
   7 N7             2.4054     2.0644    -0.0102 N.ar    
   8 C8             1.0946     2.2826     0.0039 C.ar    
   9 C9             0.6266     3.5971     0.0154 C.ar    
  10 N10            1.1342     5.9598     0.0237 N.pl3   
  11 C11           -1.1223     2.2312     0.0189 C.2     
  12 N12           -0.7663     3.5310     0.0284 N.am    
  13 C13            5.4681     3.9405    -0.0289 C.3     
  14 C14            6.9178     3.4517    -0.0454 C.3     
  15 C15            7.8616     4.6514    -0.1729 C.3     
  16 C16            9.3102     4.1602    -0.1094 C.3     
  17 C17            0.0021    -0.0041     0.0020 C.3     
  18 C18            0.0225    -0.5140     1.4200 C.ar    
  19 C19           -1.1614    -0.7663     2.0879 C.ar    
  20 N20           -1.1568    -1.2123     3.3278 N.ar    
  21 C21           -0.0248    -1.4361     3.9821 C.ar    
  22 C22            1.2049    -1.2028     3.3700 C.ar    
  23 C23            1.2299    -0.7401     2.0658 C.ar    
  24 C24           -0.0686    -1.9384     5.3773 C.ar    
  25 C25           -1.2942    -2.1741     5.9977 C.ar    
  26 C26            1.1155    -2.1818     6.0703 C.ar    
  27 C27            1.0688    -2.6496     7.3681 C.ar    
  28 C28           -0.1502    -2.8767     7.9806 C.ar    
  29 C29           -1.3289    -2.6418     7.2955 C.ar    
  30 C30           -2.0361    -1.1518     9.5491 C.3     
  31 C31           -2.7416    -0.5255    10.7663 C.3     
  32 C32           -4.2510    -0.7480    10.5168 C.3     
  33 C33           -4.2664    -1.9371     9.5237 C.3     
  34 N34           -3.0935    -1.6680     8.6530 N.3     
  35 O35            9.5192     3.4543     1.1154 O.3     
  36 C36            8.6972     2.2954     1.2684 C.3     
  37 C37            7.2240     2.7117     1.2603 C.3     
  38 C38           -2.6533    -2.8917     7.9697 C.3     
  39 H39            1.7881     6.6762     0.0216 H       
  40 H40            0.1868     6.1678     0.0339 H       
  41 H41           -1.3727     4.2880     0.0359 H       
  42 H42            5.2796     4.5488    -0.9135 H       
  43 H43            5.2964     4.5381     0.8664 H       
  44 H44            7.0663     2.7796    -0.8906 H       
  45 H45            7.6881     5.1518    -1.1256 H       
  46 H46            7.6772     5.3484     0.6446 H       
  47 H47            9.5056     3.4949    -0.9504 H       
  48 H48            9.9860     5.0141    -0.1567 H       
  49 H49           -0.8878    -0.3767    -0.5053 H       
  50 H50            0.8920    -0.3525    -0.5222 H       
  51 H51           -2.1027    -0.5953     1.5868 H       
  52 H52            2.1258    -1.3852     3.9040 H       
  53 H53            2.1678    -0.5506     1.5651 H       
  54 H54           -2.2150    -1.9907     5.4639 H       
  55 H55            2.0679    -2.0051     5.5928 H       
  56 H56            1.9859    -2.8389     7.9061 H       
  57 H57           -0.1821    -3.2428     8.9962 H       
  58 H58           -1.4473    -0.3948     9.0311 H       
  59 H59           -1.3922    -1.9694     9.8732 H       
  60 H60           -2.4316    -1.0275    11.6828 H       
  61 H61           -2.5208     0.5403    10.8245 H       
  62 H62           -4.7602    -1.0127    11.4435 H       
  63 H63           -4.7020     0.1364    10.0666 H       
  64 H64           -4.1439    -2.8820    10.0530 H       
  65 H65           -5.1868    -1.9387     8.9397 H       
  66 H66            8.8846     1.6056     0.4454 H       
  67 H67            8.9314     1.8059     2.2137 H       
  68 H68            7.0267     3.3695     2.1067 H       
  69 H69            6.5945     1.8248     1.3325 H       
  70 H70           -3.3936    -3.1766     7.2221 H       
  71 H71           -2.5444    -3.6953     8.6979 H       
@<TRIPOS>BOND
   1    1   11 2
   2    2   17 1
   3    2    8 1
   4    2   11 am
   5    3   13 1
   6    3    6 1
   7    4    5 ar
   8    4    6 ar
   9    5   10 1
  10    5    9 ar
  11    6    7 ar
  12    7    8 ar
  13    8    9 ar
  14    9   12 1
  15   10   39 1
  16   10   40 1
  17   11   12 am
  18   12   41 1
  19   13   14 1
  20   13   42 1
  21   13   43 1
  22   14   15 1
  23   14   37 1
  24   14   44 1
  25   15   16 1
  26   15   45 1
  27   15   46 1
  28   16   35 1
  29   16   47 1
  30   16   48 1
  31   17   18 1
  32   17   49 1
  33   17   50 1
  34   18   19 ar
  35   18   23 ar
  36   19   20 ar
  37   19   51 1
  38   20   21 ar
  39   21   22 ar
  40   21   24 1
  41   22   23 ar
  42   22   52 1
  43   23   53 1
  44   24   25 ar
  45   24   26 ar
  46   25   29 ar
  47   25   54 1
  48   26   27 ar
  49   26   55 1
  50   27   28 ar
  51   27   56 1
  52   28   29 ar
  53   28   57 1
  54   29   38 1
  55   30   31 1
  56   30   34 1
  57   30   58 1
  58   30   59 1
  59   31   32 1
  60   31   60 1
  61   31   61 1
  62   32   33 1
  63   32   62 1
  64   32   63 1
  65   33   34 1
  66   33   64 1
  67   33   65 1
  68   34   38 1
  69   35   36 1
  70   36   37 1
  71   36   66 1
  72   36   67 1
  73   37   68 1
  74   37   69 1
  75   38   70 1
  76   38   71 1

#	End of record

