#	Name: ASD03540239
#	Creating user name:	WinNT
#	Creation time:	15. 06. 2019 20:42

#	Modifying user name:	WinNT
#	Modification time:	15. 06. 2019 20:42

#	Program:	/corina/corina34_cracker 3.40 0067  02.08.2006

@<TRIPOS>MOLECULE
ASD03540239
  53   56    0    0    0
SMALL
NO_CHARGES


@<TRIPOS>ATOM
   1 C1            -0.0161     1.3365     0.0094 C.2     
   2 N2             0.0021    -0.0041     0.0020 N.am    
   3 C3             1.1931    -0.7075    -0.0132 C.2     
   4 C4             2.3928    -0.0051    -0.0209 C.2     
   5 C5             2.3194     1.4734    -0.0115 C.2     
   6 N6             1.1110     2.0661     0.0025 N.am    
   7 C7             3.5129    -0.8381    -0.0361 C.2     
   8 C8             3.2256    -2.1516    -0.0404 C.2     
   9 S9             1.4874    -2.3902    -0.0250 S.3     
  10 C10            4.2183    -3.2259    -0.0565 C.2     
  11 O11            5.4048    -2.9577    -0.0671 O.2     
  12 O12            3.8179    -4.5143    -0.0595 O.3     
  13 O13            3.3358     2.1426    -0.0175 O.2     
  14 O14           -1.0880     1.9101     0.0175 O.2     
  15 C15           -1.2652    -0.7390     0.0107 C.3     
  16 C16            1.0243     3.5285     0.0113 C.3     
  17 C17            1.0079     4.0298     1.4567 C.3     
  18 S18            0.9006     5.8406     1.4675 S.o2    
  19 O19            2.1011     6.4143     0.9688 O.2     
  20 O20           -0.3684     6.2677     0.9916 O.2     
  21 C21            0.8909     6.2702     3.1763 C.ar    
  22 C22            2.0823     6.5097     3.8353 C.ar    
  23 C23            2.0753     6.8467     5.1757 C.ar    
  24 C24            0.8757     6.9445     5.8579 C.ar    
  25 C25           -0.3164     6.7048     5.1978 C.ar    
  26 C26           -0.3085     6.3733     3.8560 C.ar    
  27 Cl27           0.8662     7.3673     7.5416 Cl      
  28 C28            4.8413    -5.5116    -0.0754 C.3     
  29 C29            4.2094    -6.8798    -0.0765 C.ar    
  30 C30            3.9074    -7.5007    -1.2740 C.ar    
  31 C31            3.3277    -8.7556    -1.2750 C.ar    
  32 C32            3.0505    -9.3898    -0.0785 C.ar    
  33 C33            3.3533    -8.7693     1.1191 C.ar    
  34 C34            3.9370    -7.5162     1.1200 C.ar    
  35 H35            4.5244    -0.4597    -0.0438 H       
  36 H36           -2.0950    -0.0322     0.0228 H       
  37 H37           -1.3307    -1.3609    -0.8820 H       
  38 H38           -1.3130    -1.3705     0.8978 H       
  39 H39            1.8863     3.9467    -0.5086 H       
  40 H40            0.1095     3.8412    -0.4921 H       
  41 H41            0.1460     3.6116     1.9766 H       
  42 H42            1.9227     3.7170     1.9601 H       
  43 H43            3.0187     6.4329     3.3028 H       
  44 H44            3.0062     7.0334     5.6905 H       
  45 H45           -1.2532     6.7810     5.7298 H       
  46 H46           -1.2392     6.1905     3.3396 H       
  47 H47            5.4510    -5.3923    -0.9710 H       
  48 H48            5.4691    -5.4021     0.8089 H       
  49 H49            4.1240    -7.0051    -2.2089 H       
  50 H50            3.0911    -9.2404    -2.2107 H       
  51 H51            2.5970   -10.3700    -0.0792 H       
  52 H52            3.1364    -9.2647     2.0539 H       
  53 H53            4.1770    -7.0330     2.0556 H       
@<TRIPOS>BOND
   1    1    2 am
   2    1    6 am
   3    1   14 2
   4    2    3 1
   5    2   15 1
   6    3    4 2
   7    3    9 1
   8    4    5 1
   9    4    7 1
  10    5    6 am
  11    5   13 2
  12    6   16 1
  13    7    8 2
  14    7   35 1
  15    8    9 1
  16    8   10 1
  17   10   11 2
  18   10   12 1
  19   12   28 1
  20   15   36 1
  21   15   37 1
  22   15   38 1
  23   16   17 1
  24   16   39 1
  25   16   40 1
  26   17   18 1
  27   17   41 1
  28   17   42 1
  29   18   19 2
  30   18   20 2
  31   18   21 1
  32   21   22 ar
  33   21   26 ar
  34   22   23 ar
  35   22   43 1
  36   23   24 ar
  37   23   44 1
  38   24   25 ar
  39   24   27 1
  40   25   26 ar
  41   25   45 1
  42   26   46 1
  43   28   29 1
  44   28   47 1
  45   28   48 1
  46   29   30 ar
  47   29   34 ar
  48   30   31 ar
  49   30   49 1
  50   31   32 ar
  51   31   50 1
  52   32   33 ar
  53   32   51 1
  54   33   34 ar
  55   33   52 1
  56   34   53 1

#	End of record

