#	Name: ASD01916260
#	Creating user name:	WinNT
#	Creation time:	15. 06. 2019 20:07

#	Modifying user name:	WinNT
#	Modification time:	15. 06. 2019 20:07

#	Program:	/corina/corina34_cracker 3.40 0067  02.08.2006

@<TRIPOS>MOLECULE
ASD01916260
  28   30    0    0    0
SMALL
NO_CHARGES


@<TRIPOS>ATOM
   1 C1            -0.0161     1.3393     0.0094 C.2     
   2 N2             0.0021    -0.0041     0.0020 N.am    
   3 C3             1.2021    -0.6748    -0.0130 C.2     
   4 C4             2.4429     0.1042    -0.0210 C.2     
   5 C5             2.3547     1.4483    -0.0132 C.2     
   6 N6             1.1213     2.0552     0.0024 N.am    
   7 N7             0.9507    -1.9664    -0.0169 N.2     
   8 C8            -0.3752    -2.1594    -0.0048 C.2     
   9 C9            -0.9858    -0.9583     0.0071 C.2     
  10 O10           -1.0845     1.9199     0.0176 O.2     
  11 C11            1.0448     3.5181     0.0110 C.3     
  12 C12            1.0320     4.0197     1.4564 C.3     
  13 C13            1.0733     5.5328     1.6795 C.3     
  14 C14           -0.2197     4.7565     1.9373 C.3     
  15 C15           -1.0684    -3.4975    -0.0050 C.3     
  16 Cl16          -1.3287    -4.0397     1.6948 Cl      
  17 H17            3.4046    -0.3871    -0.0324 H       
  18 H18            3.2523     2.0489    -0.0187 H       
  19 H19           -2.0509    -0.7797     0.0184 H       
  20 H20            1.9097     3.9302    -0.5089 H       
  21 H21            0.1322     3.8372    -0.4925 H       
  22 H22            1.5539     3.3902     2.1771 H       
  23 H23            1.6222     5.8987     2.5472 H       
  24 H24            1.1097     6.1709     0.7965 H       
  25 H25           -1.0340     4.8840     1.2240 H       
  26 H26           -0.5215     4.6118     2.9747 H       
  27 H27           -2.0306    -3.4082    -0.5092 H       
  28 H28           -0.4502    -4.2269    -0.5284 H       
@<TRIPOS>BOND
   1    1    2 am
   2    1    6 am
   3    1   10 2
   4    2    3 1
   5    2    9 1
   6    3    4 1
   7    3    7 2
   8    4    5 2
   9    4   17 1
  10    5    6 1
  11    5   18 1
  12    6   11 1
  13    7    8 1
  14    8    9 2
  15    8   15 1
  16    9   19 1
  17   11   12 1
  18   11   20 1
  19   11   21 1
  20   12   13 1
  21   12   14 1
  22   12   22 1
  23   13   14 1
  24   13   23 1
  25   13   24 1
  26   14   25 1
  27   14   26 1
  28   15   16 1
  29   15   27 1
  30   15   28 1

#	End of record

