#	Name: ASD01310042
#	Creating user name:	WinNT
#	Creation time:	15. 06. 2019 19:15

#	Modifying user name:	WinNT
#	Modification time:	15. 06. 2019 19:15

#	Program:	/corina/corina34_cracker 3.40 0067  02.08.2006

@<TRIPOS>MOLECULE
ASD01310042
  46   50    0    0    0
SMALL
NO_CHARGES


@<TRIPOS>ATOM
   1 C1            -0.0182     1.4932     0.0103 C.3     
   2 C2             0.0021    -0.0041     0.0020 C.ar    
   3 C3             0.0458    -0.7188    -1.1859 C.ar    
   4 C4            -0.1965     1.2684    -2.4792 C.2     
   5 C5            -0.0205    -0.6876     1.2067 C.ar    
   6 C6             0.0105    -2.0727     1.2265 C.ar    
   7 C7             0.0654    -2.7839     0.0369 C.ar    
   8 C8             0.0831    -2.1073    -1.1663 C.ar    
   9 N9             1.2874     3.4102    -0.5713 N.am    
  10 C10            1.4190     2.0563    -0.0004 C.3     
  11 C11           -0.6140     2.0756    -1.2839 C.3     
  12 C12            0.0611     3.4639    -1.3807 C.3     
  13 N13            0.0493    -0.0453    -2.4115 N.am    
  14 O14           -0.0776     1.8291    -3.5482 O.2     
  15 S15            2.3459     4.6624    -0.3390 S.o2    
  16 O16            1.6102     5.8569    -0.5654 O.2     
  17 O17            3.0299     4.3894     0.8762 O.2     
  18 C18            3.5519     4.5705    -1.6203 C.ar    
  19 C19            4.7020     3.8264    -1.4329 C.ar    
  20 C20            3.3435     5.2379    -2.8128 C.ar    
  21 C21            5.4515     4.4219    -3.6309 C.ar    
  22 C22            5.6511     3.7511    -2.4352 C.ar    
  23 C23            4.2902     5.1666    -3.8219 C.ar    
  24 O24            4.3268     5.7196    -5.0693 O.3     
  25 C25            5.7034     5.6413    -5.4843 C.3     
  26 O26            6.2153     4.5077    -4.7589 O.3     
  27 H27           -0.5600     1.8576     0.8830 H       
  28 H28           -1.6994     2.1524    -1.2200 H       
  29 C29            0.3271    -0.7903    -3.6419 C.3     
  30 O30           -0.0126    -2.7356     2.4134 O.3     
  31 H31           -0.0622    -0.1380     2.1355 H       
  32 H32            0.0946    -3.8634     0.0519 H       
  33 H33            0.1253    -2.6585    -2.0941 H       
  34 H34            1.8137     2.1088     1.0142 H       
  35 H35            2.0633     1.4406    -0.6280 H       
  36 H36           -0.6083     4.2298    -0.9891 H       
  37 H37            0.3114     3.6828    -2.4188 H       
  38 H38            4.8594     3.3031    -0.5013 H       
  39 H39            2.4422     5.8148    -2.9581 H       
  40 H40            6.5487     3.1694    -2.2859 H       
  41 H41            5.7704     5.4705    -6.5588 H       
  42 H42            6.2396     6.5484    -5.2055 H       
  43 H43           -0.6073    -1.1688    -4.0563 H       
  44 H44            0.8049    -0.1305    -4.3661 H       
  45 H45            0.9904    -1.6259    -3.4187 H       
  46 H46           -0.9019    -2.9475     2.7284 H       
@<TRIPOS>BOND
   1    1    2 1
   2    1   10 1
   3    1   11 1
   4    1   27 1
   5    2    3 ar
   6    2    5 ar
   7    3   13 1
   8    3    8 ar
   9    4   11 1
  10    4   14 2
  11    4   13 am
  12    5    6 ar
  13    5   31 1
  14    6    7 ar
  15    6   30 1
  16    7    8 ar
  17    7   32 1
  18    8   33 1
  19    9   10 1
  20    9   12 1
  21    9   15 am
  22   10   34 1
  23   10   35 1
  24   11   12 1
  25   11   28 1
  26   12   36 1
  27   12   37 1
  28   13   29 1
  29   15   16 2
  30   15   17 2
  31   15   18 1
  32   18   20 ar
  33   18   19 ar
  34   19   22 ar
  35   19   38 1
  36   20   23 ar
  37   20   39 1
  38   21   22 ar
  39   21   26 1
  40   21   23 ar
  41   22   40 1
  42   23   24 1
  43   24   25 1
  44   25   26 1
  45   25   41 1
  46   25   42 1
  47   29   43 1
  48   29   44 1
  49   29   45 1
  50   30   46 1

#	End of record

