#	Name: ASD08170355
#	Creating user name:	WinNT
#	Creation time:	15. 06. 2019 21:17

#	Modifying user name:	WinNT
#	Modification time:	15. 06. 2019 21:17

#	Program:	/corina/corina34_cracker 3.40 0067  02.08.2006

@<TRIPOS>MOLECULE
ASD08170355
  68   71    0    0    0
SMALL
NO_CHARGES


@<TRIPOS>ATOM
   1 C1            -0.0155     1.2910     0.0091 C.2     
   2 N2             0.0021    -0.0041     0.0020 N.2     
   3 N3            -1.1192    -0.5842     0.0096 N.2     
   4 C4            -2.1834     0.1604     0.0237 C.2     
   5 S5            -1.7028     1.8047     0.0357 S.3     
   6 C6             1.1892     2.1964     0.0025 C.3     
   7 C7             1.5828     2.5110    -1.4422 C.3     
   8 C8             2.8059     3.4301    -1.4489 C.3     
   9 C9             3.1995     3.7447    -2.8935 C.3     
  10 C10            4.4042     4.6501    -2.9002 C.2     
  11 C11            5.1208     5.2044    -4.1153 C.3     
  12 C12            6.2368     6.0363    -3.5147 C.2     
  13 N13            6.1078     5.9230    -2.2240 N.2     
  14 N14            5.0316     5.1152    -1.8716 N.2     
  15 N15            7.1891     6.7606    -4.1930 N.am    
  16 C16            8.1217     7.4536    -3.5100 C.2     
  17 O17            8.1212     7.4385    -2.2975 O.2     
  18 C18            9.1651     8.2473    -4.2532 C.3     
  19 C19            8.4891     9.3842    -5.0223 C.3     
  20 N20           -3.4954    -0.3008     0.0334 N.am    
  21 C21           -3.7441    -1.6254     0.0287 C.2     
  22 O22           -2.8238    -2.4152     0.0161 O.2     
  23 C23           -5.1658    -2.1251     0.0391 C.3     
  24 C24           -5.8611    -1.7123    -1.2597 C.3     
  25 C25            9.5144    10.1019    -5.8617 C.ar    
  26 C26           -8.2478    -1.2200    -0.6887 C.ar    
  27 C27           -7.3149    -2.1040    -1.1977 C.ar    
  28 C28            9.7630     9.6844    -7.1559 C.ar    
  29 C29           -9.5815    -1.5793    -0.6319 C.ar    
  30 C30           -9.9822    -2.8226    -1.0840 C.ar    
  31 C31           -9.0493    -3.7065    -1.5934 C.ar    
  32 C32           -7.7157    -3.3472    -1.6502 C.ar    
  33 C33           10.2021    11.1814    -5.3396 C.ar    
  34 C34           11.1426    11.8398    -6.1096 C.ar    
  35 C35           11.3956    11.4185    -7.4017 C.ar    
  36 C36           10.7035    10.3428    -7.9259 C.ar    
  37 O37           -5.1691    -3.5499     0.1491 O.3     
  38 O38           10.1014     8.7931    -3.3217 O.3     
  39 H39            0.9501     3.1232     0.5240 H       
  40 H40            2.0193     1.7002     0.5054 H       
  41 H41            1.8219     1.5842    -1.9637 H       
  42 H42            0.7527     3.0071    -1.9450 H       
  43 H43            2.5668     4.3569    -0.9274 H       
  44 H44            3.6360     2.9340    -0.9460 H       
  45 H45            3.4386     2.8179    -3.4151 H       
  46 H46            2.3694     4.2409    -3.3964 H       
  47 H47            5.5282     4.3964    -4.7230 H       
  48 H48            4.4502     5.8295    -4.7049 H       
  49 H49            7.1895     6.7728    -5.1629 H       
  50 H50            9.6872     7.5952    -4.9533 H       
  51 H51            7.7128     8.9744    -5.6685 H       
  52 H52            8.0423    10.0847    -4.3168 H       
  53 H53           -4.2314     0.3309     0.0435 H       
  54 H54           -5.6963    -1.6940     0.8881 H       
  55 H55           -5.7808    -0.6328    -1.3876 H       
  56 H56           -5.3851    -2.2143    -2.1021 H       
  57 H57           -7.9341    -0.2503    -0.3314 H       
  58 H58            9.2227     8.8436    -7.5652 H       
  59 H59          -10.3103    -0.8887    -0.2339 H       
  60 H60          -11.0240    -3.1036    -1.0389 H       
  61 H61           -9.3624    -4.6779    -1.9466 H       
  62 H62           -6.9869    -4.0378    -2.0479 H       
  63 H63           10.0044    11.5106    -4.3302 H       
  64 H64           11.6794    12.6836    -5.7019 H       
  65 H65           12.1301    11.9331    -8.0034 H       
  66 H66           10.9011    10.0136    -8.9353 H       
  67 H67           -4.7133    -4.0013    -0.5745 H       
  68 H68            9.7056     9.3846    -2.6671 H       
@<TRIPOS>BOND
   1    1    2 2
   2    1    6 1
   3    1    5 1
   4    2    3 1
   5    3    4 2
   6    4    5 1
   7    4   20 1
   8    6    7 1
   9    6   39 1
  10    6   40 1
  11    7    8 1
  12    7   41 1
  13    7   42 1
  14    8    9 1
  15    8   43 1
  16    8   44 1
  17    9   10 1
  18    9   45 1
  19    9   46 1
  20   10   11 1
  21   10   14 2
  22   11   12 1
  23   11   47 1
  24   11   48 1
  25   12   13 2
  26   12   15 1
  27   13   14 1
  28   15   16 am
  29   15   49 1
  30   16   17 2
  31   16   18 1
  32   18   19 1
  33   18   38 1
  34   18   50 1
  35   19   25 1
  36   19   51 1
  37   19   52 1
  38   20   21 am
  39   20   53 1
  40   21   22 2
  41   21   23 1
  42   23   24 1
  43   23   37 1
  44   23   54 1
  45   24   27 1
  46   24   55 1
  47   24   56 1
  48   25   28 ar
  49   25   33 ar
  50   26   27 ar
  51   26   29 ar
  52   26   57 1
  53   27   32 ar
  54   28   36 ar
  55   28   58 1
  56   29   30 ar
  57   29   59 1
  58   30   31 ar
  59   30   60 1
  60   31   32 ar
  61   31   61 1
  62   32   62 1
  63   33   34 ar
  64   33   63 1
  65   34   35 ar
  66   34   64 1
  67   35   36 ar
  68   35   65 1
  69   36   66 1
  70   37   67 1
  71   38   68 1

#	End of record

