#	Name: ASD01916104
#	Creating user name:	WinNT
#	Creation time:	15. 06. 2019 20:06

#	Modifying user name:	WinNT
#	Modification time:	15. 06. 2019 20:06

#	Program:	/corina/corina34_cracker 3.40 0067  02.08.2006

@<TRIPOS>MOLECULE
ASD01916104
  38   40    0    0    0
SMALL
NO_CHARGES


@<TRIPOS>ATOM
   1 C1            -0.0169     1.3972     0.0097 C.ar    
   2 C2             0.0021    -0.0041     0.0020 C.ar    
   3 N3            -1.1443    -0.6595     0.0095 N.ar    
   4 C4            -2.2993    -0.0109     0.0240 C.ar    
   5 N5            -3.4810    -0.7398     0.0319 N.am    
   6 C6             1.2018     2.1490     0.0021 C.1     
   7 C7             2.2010     2.7654    -0.0041 C.1     
   8 C8             3.4197     3.5172    -0.0117 C.ar    
   9 C9             3.3829     4.9141    -0.0039 C.ar    
  10 C10            4.5608     5.6316    -0.0113 C.ar    
  11 N11           -2.3607     1.3125     0.0317 N.ar    
  12 C12           -1.2606     2.0429     0.0192 C.ar    
  13 C13            4.6515     2.8575    -0.0212 C.ar    
  14 C14            5.7769     4.9714    -0.0265 C.ar    
  15 N15           -4.7185    -0.1679     0.0469 N.3     
  16 C16           -5.6959    -1.1888    -0.3970 C.3     
  17 C17           -4.9832    -2.5050    -0.0024 C.3     
  18 C18           -3.5247    -2.0850     0.0198 C.2     
  19 C19           -7.0216    -1.0388     0.3519 C.3     
  20 C20            5.8212     3.5883    -0.0286 C.ar    
  21 O21           -2.5678    -2.8299     0.0321 O.2     
  22 C22           -5.9133    -1.1166    -1.9097 C.3     
  23 H23            0.9398    -0.5396    -0.0102 H       
  24 H24            2.4345     5.4307     0.0077 H       
  25 H25            4.5340     6.7112    -0.0056 H       
  26 H26           -1.3184     3.1213     0.0259 H       
  27 H27            4.6876     1.7781    -0.0225 H       
  28 H28            6.6961     5.5385    -0.0323 H       
  29 H29           -4.9471     0.1753     0.9678 H       
  30 H30           -5.3087    -2.8426     0.9815 H       
  31 H31           -5.1503    -3.2769    -0.7536 H       
  32 H32           -7.4501    -0.0593     0.1397 H       
  33 H33           -7.7129    -1.8161     0.0261 H       
  34 H34           -6.8464    -1.1343     1.4235 H       
  35 H35            6.7740     3.0799    -0.0359 H       
  36 H36           -4.9624    -1.2665    -2.4210 H       
  37 H37           -6.6155    -1.8931    -2.2133 H       
  38 H38           -6.3170    -0.1388    -2.1726 H       
@<TRIPOS>BOND
   1    1    2 ar
   2    1    6 1
   3    1   12 ar
   4    2    3 ar
   5    2   23 1
   6    3    4 ar
   7    4   11 ar
   8    4    5 1
   9    5   15 1
  10    5   18 am
  11    6    7 3
  12    7    8 1
  13    8    9 ar
  14    8   13 ar
  15    9   10 ar
  16    9   24 1
  17   10   14 ar
  18   10   25 1
  19   11   12 ar
  20   12   26 1
  21   13   20 ar
  22   13   27 1
  23   14   20 ar
  24   14   28 1
  25   15   16 1
  26   15   29 1
  27   16   17 1
  28   16   19 1
  29   16   22 1
  30   17   18 1
  31   17   30 1
  32   17   31 1
  33   18   21 2
  34   19   32 1
  35   19   33 1
  36   19   34 1
  37   20   35 1
  38   22   36 1
  39   22   37 1
  40   22   38 1

#	End of record

