#	Name: ASD00844590
#	Creating user name:	WinNT
#	Creation time:	15. 06. 2019 18:50

#	Modifying user name:	WinNT
#	Modification time:	15. 06. 2019 18:50

#	Program:	/corina/corina34_cracker 3.40 0067  02.08.2006

@<TRIPOS>MOLECULE
ASD00844590
  98  103    0    0    0
SMALL
NO_CHARGES


@<TRIPOS>ATOM
   1 C1             0.8110     1.2330    -0.4168 C.ar    
   2 C2             1.0376    -0.1101    -0.6788 C.ar    
   3 C3             0.9373    -1.0409     0.3453 C.ar    
   4 C4             0.6122    -0.6282     1.6227 C.ar    
   5 C5             0.3863     0.7114     1.8813 C.ar    
   6 C6             0.4861     1.6408     0.8627 C.ar    
   7 C7             1.1824    -2.5010     0.0640 C.3     
   8 C8             0.8791    -3.3356     1.2901 C.2     
   9 C9             0.3371    -2.9660    -1.1235 C.3     
  10 C10           -1.1143    -2.6596    -0.8575 C.2     
  11 N11           -2.0606    -3.0779    -1.7212 N.am    
  12 O12           -1.4307    -2.0366     0.1338 O.2     
  13 C13           -3.4690    -2.6937    -1.5422 C.3     
  14 C14           -3.9876    -2.1160    -2.8634 C.3     
  15 N15           -3.7388    -3.0775    -3.9457 N.3     
  16 C16           -2.3001    -3.3044    -4.1367 C.3     
  17 C17           -1.7113    -3.9258    -2.8712 C.3     
  18 C18           -4.3731    -2.6386    -5.1960 C.3     
  19 C19           -3.9902    -3.5963    -6.3277 C.3     
  20 C20           -4.7021    -3.1694    -7.6134 C.3     
  21 N21           -6.1549    -3.1909    -7.4002 N.3     
  22 C22           -6.5516    -2.2440    -6.3502 C.3     
  23 C23           -5.8949    -2.6433    -5.0268 C.3     
  24 C24           -6.8747    -2.9208    -8.6520 C.3     
  25 O25           -0.1930    -3.4312     1.8492 O.2     
  26 N26            2.0207    -3.9501     1.6429 N.am    
  27 C27            2.6501    -2.7509    -0.1970 C.ar    
  28 C28            3.0788    -3.6286     0.7912 C.ar    
  29 C29            3.5211    -2.2900    -1.1583 C.ar    
  30 C30            4.8432    -2.7017    -1.1474 C.ar    
  31 C31            5.2835    -3.5769    -0.1672 C.ar    
  32 C32            4.4096    -4.0398     0.7979 C.ar    
  33 Cl33           5.9454    -2.1238    -2.3578 Cl      
  34 F34            6.5731    -3.9794    -0.1552 F       
  35 C35            1.8027    -6.5980     2.3610 C.ar    
  36 C36            0.5333    -6.9065     1.8934 C.ar    
  37 C37            2.7912    -7.5638     2.3683 C.ar    
  38 C38            2.5185    -8.8382     1.9099 C.ar    
  39 C39            1.2503    -9.1517     1.4412 C.ar    
  40 C40            0.2570    -8.1849     1.4332 C.ar    
  41 O41            0.9825   -10.4056     0.9908 O.3     
  42 O42           -0.4385    -5.9565     1.8868 O.3     
  43 C43           -1.7216    -6.3444     1.3916 C.3     
  44 C44            2.0534   -11.3510     1.0286 C.3     
  45 C45           -8.3790    -3.0740    -8.4186 C.3     
  46 C46           -6.5733    -1.4943    -9.1160 C.3     
  47 O47            1.3569    -0.5138    -1.9366 O.3     
  48 C48            1.3771     0.4891    -2.9543 C.3     
  49 C49            1.8321    -0.1340    -4.2755 C.3     
  50 F50            3.0778    -0.7457    -4.0980 F       
  51 F51            0.8974    -1.0903    -4.6865 F       
  52 S52            2.1567    -4.9716     2.9392 S.o2    
  53 O53            3.5281    -4.9676     3.3111 O.2     
  54 O54            1.1078    -4.6266     3.8337 O.2     
  55 H55            0.8928     1.9600    -1.2113 H       
  56 H56            0.5340    -1.3523     2.4201 H       
  57 H57            0.1315     1.0320     2.8806 H       
  58 H58            0.3091     2.6864     1.0672 H       
  59 H59            0.6592    -2.4448    -2.0250 H       
  60 H60            0.4625    -4.0401    -1.2604 H       
  61 H61           -4.0561    -3.5709    -1.2706 H       
  62 H62           -3.5462    -1.9407    -0.7579 H       
  63 H63           -5.0582    -1.9280    -2.7828 H       
  64 H64           -3.4693    -1.1820    -3.0803 H       
  65 H65           -2.1469    -3.9784    -4.9796 H       
  66 H66           -1.8053    -2.3539    -4.3359 H       
  67 H67           -0.6273    -3.9900    -2.9650 H       
  68 H68           -2.1286    -4.9220    -2.7241 H       
  69 H69           -4.0360    -1.6315    -5.4414 H       
  70 H70           -2.9116    -3.5652    -6.4814 H       
  71 H71           -4.2918    -4.6101    -6.0641 H       
  72 H72           -4.3896    -2.1608    -7.8838 H       
  73 H73           -4.4429    -3.8577    -8.4178 H       
  74 H74           -6.2304    -1.2397    -6.6266 H       
  75 H75           -7.6356    -2.2602    -6.2372 H       
  76 H76           -6.2264    -3.6420    -4.7428 H       
  77 H77           -6.1770    -1.9313    -4.2512 H       
  78 H78           -6.5518    -3.6274    -9.4165 H       
  79 H79            3.1735    -1.6083    -1.9205 H       
  80 H80            4.7593    -4.7215     1.5592 H       
  81 H81            3.7787    -7.3217     2.7327 H       
  82 H82            3.2928    -9.5910     1.9160 H       
  83 H83           -0.7306    -8.4271     1.0692 H       
  84 H84           -1.6272    -6.6740     0.3569 H       
  85 H85           -2.1138    -7.1604     1.9986 H       
  86 H86           -2.4024    -5.4947     1.4416 H       
  87 H87            2.8789   -10.9896     0.4153 H       
  88 H88            2.3921   -11.4753     2.0571 H       
  89 H89            1.7060   -12.3091     0.6421 H       
  90 H90           -8.9130    -2.8736    -9.3474 H       
  91 H91           -8.5937    -4.0903    -8.0880 H       
  92 H92           -8.7019    -2.3674    -7.6540 H       
  93 H93           -5.5016    -1.3851    -9.2823 H       
  94 H94           -7.1074    -1.2939   -10.0448 H       
  95 H95           -6.8962    -0.7877    -8.3514 H       
  96 H96            0.3767     0.9051    -3.0743 H       
  97 H97            2.0685     1.2821    -2.6694 H       
  98 H98            1.9142     0.6437    -5.0348 H       
@<TRIPOS>BOND
   1    1    2 ar
   2    1    6 ar
   3    1   55 1
   4    2    3 ar
   5    2   47 1
   6    3    4 ar
   7    3    7 1
   8    4    5 ar
   9    4   56 1
  10    5    6 ar
  11    5   57 1
  12    6   58 1
  13    7    8 1
  14    7    9 1
  15    7   27 1
  16    8   25 2
  17    8   26 am
  18    9   10 1
  19    9   59 1
  20    9   60 1
  21   10   11 am
  22   10   12 2
  23   11   13 1
  24   11   17 1
  25   13   14 1
  26   13   61 1
  27   13   62 1
  28   14   15 1
  29   14   63 1
  30   14   64 1
  31   15   16 1
  32   15   18 1
  33   16   17 1
  34   16   65 1
  35   16   66 1
  36   17   67 1
  37   17   68 1
  38   18   19 1
  39   18   23 1
  40   18   69 1
  41   19   20 1
  42   19   70 1
  43   19   71 1
  44   20   21 1
  45   20   72 1
  46   20   73 1
  47   21   22 1
  48   21   24 1
  49   22   23 1
  50   22   74 1
  51   22   75 1
  52   23   76 1
  53   23   77 1
  54   24   45 1
  55   24   46 1
  56   24   78 1
  57   26   52 am
  58   26   28 1
  59   27   28 ar
  60   27   29 ar
  61   28   32 ar
  62   29   30 ar
  63   29   79 1
  64   30   31 ar
  65   30   33 1
  66   31   32 ar
  67   31   34 1
  68   32   80 1
  69   35   36 ar
  70   35   37 ar
  71   35   52 1
  72   36   42 1
  73   36   40 ar
  74   37   38 ar
  75   37   81 1
  76   38   39 ar
  77   38   82 1
  78   39   40 ar
  79   39   41 1
  80   40   83 1
  81   41   44 1
  82   42   43 1
  83   43   84 1
  84   43   85 1
  85   43   86 1
  86   44   87 1
  87   44   88 1
  88   44   89 1
  89   45   90 1
  90   45   91 1
  91   45   92 1
  92   46   93 1
  93   46   94 1
  94   46   95 1
  95   47   48 1
  96   48   49 1
  97   48   96 1
  98   48   97 1
  99   49   50 1
 100   49   51 1
 101   49   98 1
 102   52   53 2
 103   52   54 2

#	End of record

