#	Name: ASD00170202
#	Creating user name:	WinNT
#	Creation time:	15. 06. 2019 18:31

#	Modifying user name:	WinNT
#	Modification time:	15. 06. 2019 18:31

#	Program:	/corina/corina34_cracker 3.40 0067  02.08.2006

@<TRIPOS>MOLECULE
ASD00170202
  42   45    0    0    0
SMALL
NO_CHARGES


@<TRIPOS>ATOM
   1 C1            -0.0114     1.3316    -0.1063 C.2     
   2 C2             0.0076    -0.0025    -0.1359 C.2     
   3 C3            -1.3195    -0.5795     0.0261 C.2     
   4 C4            -2.3061     0.3606     0.1671 C.2     
   5 S5            -1.6506     1.9298     0.1144 S.3     
   6 C6             1.2057     2.2239    -0.2372 C.3     
   7 C7             2.0606     1.7726    -1.4202 C.3     
   8 C8             3.0805     0.7439    -0.9398 C.3     
   9 C9             2.4807    -0.0926     0.1883 C.3     
  10 C10            1.2574    -0.8446    -0.3271 C.3     
  11 N11           -3.6459     0.0743     0.3335 N.pl3   
  12 C12           -1.5741    -2.0198     0.0363 C.2     
  13 C13           -1.8294    -2.7345    -1.2326 C.ar    
  14 O14           -1.5757    -2.6304     1.0900 O.2     
  15 C15           -1.9383    -2.0091    -2.4322 C.ar    
  16 C16           -2.1729    -2.6423    -3.6098 C.ar    
  17 C17           -2.3100    -4.0420    -3.6411 C.ar    
  18 C18           -2.2017    -4.7851    -2.4379 C.ar    
  19 C19           -1.9539    -4.1141    -1.2314 C.ar    
  20 C20           -2.5536    -4.7194    -4.8475 C.ar    
  21 C21           -2.6820    -6.0748    -4.8465 C.ar    
  22 C22           -2.5761    -6.8053    -3.6643 C.ar    
  23 C23           -2.3402    -6.1844    -2.4765 C.ar    
  24 H24            0.8841     3.2533    -0.3953 H       
  25 H25            1.7955     2.1674     0.6776 H       
  26 H26            1.4217     1.3240    -2.1809 H       
  27 H27            2.5814     2.6322    -1.8419 H       
  28 H28            3.3545     0.0910    -1.7686 H       
  29 H29            3.9700     1.2582    -0.5759 H       
  30 H30            3.2227    -0.8072     0.5443 H       
  31 H31            2.1854     0.5622     1.0081 H       
  32 H32            1.1504    -1.7800     0.2221 H       
  33 H33            1.3875    -1.0629    -1.3870 H       
  34 H34           -3.9559    -0.8433     0.2807 H       
  35 H35           -4.2775     0.7906     0.5033 H       
  36 H36           -1.8343    -0.9342    -2.4164 H       
  37 H37           -2.2548    -2.0713    -4.5229 H       
  38 H38           -1.8692    -4.6677    -0.3080 H       
  39 H39           -2.6390    -4.1673    -5.7718 H       
  40 H40           -2.8693    -6.5918    -5.7760 H       
  41 H41           -2.6824    -7.8797    -3.6913 H       
  42 H42           -2.2600    -6.7631    -1.5681 H       
@<TRIPOS>BOND
   1    1    2 2
   2    1    6 1
   3    1    5 1
   4    2    3 1
   5    2   10 1
   6    3    4 2
   7    3   12 1
   8    4    5 1
   9    4   11 1
  10    6    7 1
  11    6   24 1
  12    6   25 1
  13    7    8 1
  14    7   26 1
  15    7   27 1
  16    8    9 1
  17    8   28 1
  18    8   29 1
  19    9   10 1
  20    9   30 1
  21    9   31 1
  22   10   32 1
  23   10   33 1
  24   11   34 1
  25   11   35 1
  26   12   13 1
  27   12   14 2
  28   13   15 ar
  29   13   19 ar
  30   15   16 ar
  31   15   36 1
  32   16   17 ar
  33   16   37 1
  34   17   18 ar
  35   17   20 ar
  36   18   19 ar
  37   18   23 ar
  38   19   38 1
  39   20   21 ar
  40   20   39 1
  41   21   22 ar
  42   21   40 1
  43   22   23 ar
  44   22   41 1
  45   23   42 1

#	End of record

