#	Name: ASD01901018
#	Creating user name:	WinNT
#	Creation time:	15. 06. 2019 19:53

#	Modifying user name:	WinNT
#	Modification time:	15. 06. 2019 19:53

#	Program:	/corina/corina34_cracker 3.40 0067  02.08.2006

@<TRIPOS>MOLECULE
ASD01901018
  26   27    0    0    0
SMALL
NO_CHARGES


@<TRIPOS>ATOM
   1 C1            -0.0168     1.3901     0.0097 C.ar    
   2 C2             0.0021    -0.0041     0.0020 C.ar    
   3 N3             1.1217     2.0678     0.0025 N.ar    
   4 N4             1.1522    -0.6524    -0.0124 N.ar    
   5 C5             2.2914     0.0151    -0.0197 C.ar    
   6 C6             2.2828     1.4119    -0.0122 C.ar    
   7 N7            -1.2296     2.0688     0.0191 N.pl3   
   8 C8             3.5526     2.1583    -0.0203 C.2     
   9 C9             3.5421     3.5014    -0.0130 C.2     
  10 C10            4.8126     4.2481    -0.0211 C.ar    
  11 C11            4.8057     5.6456    -0.0135 C.ar    
  12 C12            5.9986     6.3376    -0.0207 C.ar    
  13 C13            7.2003     5.6517    -0.0354 C.ar    
  14 C14            7.2150     4.2679    -0.0434 C.ar    
  15 C15            6.0301     3.5623    -0.0305 C.ar    
  16 H16           -0.9267    -0.5552     0.0083 H       
  17 H17            3.2300    -0.5190    -0.0312 H       
  18 H18           -2.0631     1.5726     0.0203 H       
  19 H19           -1.2426     3.0387     0.0244 H       
  20 H20            4.4920     1.6256    -0.0321 H       
  21 H21            2.6027     4.0340    -0.0011 H       
  22 H22            3.8685     6.1822    -0.0024 H       
  23 H23            5.9948     7.4176    -0.0152 H       
  24 H24            8.1314     6.1989    -0.0410 H       
  25 H25            8.1567     3.7393    -0.0552 H       
  26 H26            6.0431     2.4823    -0.0319 H       
@<TRIPOS>BOND
   1    1    2 ar
   2    1    3 ar
   3    1    7 1
   4    2    4 ar
   5    2   16 1
   6    3    6 ar
   7    4    5 ar
   8    5    6 ar
   9    5   17 1
  10    6    8 1
  11    7   18 1
  12    7   19 1
  13    8    9 2
  14    8   20 1
  15    9   10 1
  16    9   21 1
  17   10   11 ar
  18   10   15 ar
  19   11   12 ar
  20   11   22 1
  21   12   13 ar
  22   12   23 1
  23   13   14 ar
  24   13   24 1
  25   14   15 ar
  26   14   25 1
  27   15   26 1

#	End of record

