#	Name: ASD08150711
#	Creating user name:	WinNT
#	Creation time:	15. 06. 2019 21:16

#	Modifying user name:	WinNT
#	Modification time:	15. 06. 2019 21:16

#	Program:	/corina/corina34_cracker 3.40 0067  02.08.2006

@<TRIPOS>MOLECULE
ASD08150711
  48   52    0    0    0
SMALL
NO_CHARGES


@<TRIPOS>ATOM
   1 C1            -0.0158     1.3168     0.0093 C.2     
   2 N2             0.0021    -0.0041     0.0020 N.2     
   3 C3             1.1387    -0.6846    -0.0125 C.2     
   4 C4             2.3424     0.0131    -0.0203 C.2     
   5 C5             2.3160     1.4197    -0.0125 C.2     
   6 N6             1.1169     2.0725     0.0025 N.am    
   7 S7            -1.3641     2.4676     0.0209 S.3     
   8 C8             0.9183     3.4311     0.0113 C.2     
   9 C9            -0.3179     3.8980     0.0239 C.2     
  10 O10            3.3590     2.0528    -0.0187 O.2     
  11 C11            3.6328    -0.7145    -0.0361 C.ar    
  12 C12            4.4827    -0.6087    -1.1367 C.ar    
  13 C13            5.6833    -1.2888    -1.1456 C.ar    
  14 C14            6.0446    -2.0743    -0.0656 C.ar    
  15 C15            5.2057    -2.1831     1.0291 C.ar    
  16 C16            4.0051    -1.5033     1.0521 C.ar    
  17 C17            2.0925     4.3757     0.0053 C.3     
  18 C18            1.1279    -2.1915    -0.0200 C.3     
  19 C19            0.5275    -2.7038     1.2907 C.3     
  20 N20            0.3212    -2.6685    -1.1460 N.pl3   
  21 N21           -1.2296    -3.8894    -3.4997 N.2     
  22 C22           -1.5833    -4.7570    -4.4021 C.2     
  23 N23           -0.8102    -5.8766    -4.3001 N.pl3   
  24 C24            0.0708    -5.6753    -3.2679 C.ar    
  25 N25            1.0425    -6.3921    -2.7122 N.ar    
  26 C26            1.7387    -5.9088    -1.6960 C.ar    
  27 N27            1.5080    -4.7048    -1.1884 N.ar    
  28 C28            0.5554    -3.9221    -1.6829 C.ar    
  29 C29           -0.2098    -4.3949    -2.7629 C.ar    
  30 N30            2.7432    -6.6863    -1.1435 N.pl3   
  31 H31           -0.6257     4.9332     0.0300 H       
  32 H32            4.2016     0.0039    -1.9806 H       
  33 H33            6.3422    -1.2080    -1.9975 H       
  34 H34            6.9851    -2.6050    -0.0773 H       
  35 H35            5.4931    -2.7978     1.8693 H       
  36 H36            3.3531    -1.5854     1.9091 H       
  37 H37            2.3661     4.6087    -1.0238 H       
  38 H38            1.8226     5.2942     0.5263 H       
  39 H39            2.9382     3.9073     0.5089 H       
  40 H40            2.1481    -2.5617    -0.1214 H       
  41 H41            1.1277    -2.3489     2.1285 H       
  42 H42           -0.4928    -2.3337     1.3921 H       
  43 H43            0.5197    -3.7937     1.2853 H       
  44 H44           -0.3771    -2.1056    -1.5152 H       
  45 H45           -2.3724    -4.6124    -5.1252 H       
  46 H46           -0.8722    -6.6695    -4.8554 H       
  47 H47            2.9260    -7.5689    -1.5020 H       
  48 H48            3.2637    -6.3482    -0.3981 H       
@<TRIPOS>BOND
   1    1    2 2
   2    1    6 1
   3    1    7 1
   4    2    3 1
   5    3    4 2
   6    3   18 1
   7    4    5 1
   8    4   11 1
   9    5    6 am
  10    5   10 2
  11    6    8 1
  12    7    9 1
  13    8    9 2
  14    8   17 1
  15    9   31 1
  16   11   12 ar
  17   11   16 ar
  18   12   13 ar
  19   12   32 1
  20   13   14 ar
  21   13   33 1
  22   14   15 ar
  23   14   34 1
  24   15   16 ar
  25   15   35 1
  26   16   36 1
  27   17   37 1
  28   17   38 1
  29   17   39 1
  30   18   19 1
  31   18   20 1
  32   18   40 1
  33   19   41 1
  34   19   42 1
  35   19   43 1
  36   20   28 1
  37   20   44 1
  38   21   22 2
  39   21   29 1
  40   22   23 1
  41   22   45 1
  42   23   24 1
  43   23   46 1
  44   24   25 ar
  45   24   29 ar
  46   25   26 ar
  47   26   27 ar
  48   26   30 1
  49   27   28 ar
  50   28   29 ar
  51   30   47 1
  52   30   48 1

#	End of record

