#	Name: ASD01885468
#	Creating user name:	WinNT
#	Creation time:	15. 06. 2019 19:49

#	Modifying user name:	WinNT
#	Modification time:	15. 06. 2019 19:49

#	Program:	/corina/corina34_cracker 3.40 0067  02.08.2006

@<TRIPOS>MOLECULE
ASD01885468
  62   66    0    0    0
SMALL
NO_CHARGES


@<TRIPOS>ATOM
   1 C1             0.1977     1.2207     0.1498 C.ar    
   2 C2             0.3120    -0.1693     0.1722 C.ar    
   3 N3            -0.7484    -1.0138     0.2405 N.2     
   4 C4            -1.8549    -0.8985    -0.3987 C.2     
   5 C5            -2.1231     0.2667    -1.3146 C.3     
   6 C6            -2.1116     1.5272    -0.4873 C.2     
   7 N7            -1.0165     1.8939     0.1773 N.am    
   8 C8             1.3516     2.0013     0.0908 C.ar    
   9 C9             2.6034     1.4110     0.0494 C.ar    
  10 C10            2.7181     0.0244     0.0660 C.ar    
  11 C11            1.5894    -0.7563     0.1265 C.ar    
  12 C12           -2.8898    -1.9331    -0.2328 C.ar    
  13 O13           -3.1088     2.2150    -0.4279 O.2     
  14 C14           -2.6226    -3.0776     0.5251 C.ar    
  15 C15           -3.5931    -4.0464     0.6805 C.ar    
  16 C16           -4.8323    -3.8926     0.0897 C.ar    
  17 C17           -5.1122    -2.7559    -0.6689 C.ar    
  18 C18           -4.1430    -1.7718    -0.8270 C.ar    
  19 N19            3.7509     2.2074    -0.0096 N.am    
  20 C20            4.8774     1.8137     0.6169 C.2     
  21 C21           -6.4445    -2.5949    -1.3021 C.ar    
  22 O22            4.8690     0.8197     1.3119 O.2     
  23 C23            6.1473     2.6085     0.4540 C.3     
  24 C24            7.2506     1.9615     1.2511 C.ar    
  25 C25            8.0518     0.9983     0.6670 C.ar    
  26 C26            9.0638     0.4048     1.3982 C.ar    
  27 C27            9.2748     0.7748     2.7133 C.ar    
  28 C28            8.4741     1.7386     3.2971 C.ar    
  29 C29            7.4649     2.3353     2.5646 C.ar    
  30 C30           -7.4337    -3.5706    -1.1510 C.ar    
  31 C31           -8.6590    -3.3810    -1.7563 C.ar    
  32 N32           -8.9017    -2.2976    -2.4690 N.ar    
  33 C33           -7.9959    -1.3533    -2.6362 C.ar    
  34 C34           -6.7463    -1.4608    -2.0610 C.ar    
  35 C35           -8.3323    -0.1382    -3.4617 C.3     
  36 C36           -9.7342    -4.4255    -1.6017 C.3     
  37 H37           -1.3471     0.3207    -2.0782 H       
  38 H38           -3.0977     0.1461    -1.7877 H       
  39 H39           -1.0719     2.6921     0.7257 H       
  40 H40            1.2680     3.0779     0.0769 H       
  41 H41            3.6936    -0.4376     0.0318 H       
  42 H42            1.6838    -1.8321     0.1391 H       
  43 H43           -1.6555    -3.2035     0.9890 H       
  44 H44           -3.3826    -4.9290     1.2663 H       
  45 H45           -5.5868    -4.6551     0.2153 H       
  46 H46           -4.3558    -0.8902    -1.4136 H       
  47 H47            3.7364     3.0433    -0.5015 H       
  48 H48            6.4272     2.6344    -0.5991 H       
  49 H49            5.9881     3.6253     0.8128 H       
  50 H50            7.8870     0.7092    -0.3604 H       
  51 H51            9.6894    -0.3482     0.9421 H       
  52 H52           10.0649     0.3106     3.2848 H       
  53 H53            8.6387     2.0275     4.3247 H       
  54 H54            6.8394     3.0883     3.0207 H       
  55 H55           -7.2417    -4.4600    -0.5692 H       
  56 H56           -6.0094    -0.6839    -2.2021 H       
  57 H57           -8.7559     0.6326    -2.8178 H       
  58 H58           -7.4269     0.2413    -3.9354 H       
  59 H59           -9.0574    -0.4095    -4.2289 H       
  60 H60          -10.3361    -4.1999    -0.7214 H       
  61 H61          -10.3706    -4.4256    -2.4866 H       
  62 H62           -9.2737    -5.4065    -1.4853 H       
@<TRIPOS>BOND
   1    1    2 ar
   2    1    8 ar
   3    1    7 1
   4    2    3 1
   5    2   11 ar
   6    3    4 2
   7    4    5 1
   8    4   12 1
   9    5    6 1
  10    5   37 1
  11    5   38 1
  12    6    7 am
  13    6   13 2
  14    7   39 1
  15    8    9 ar
  16    8   40 1
  17    9   10 ar
  18    9   19 1
  19   10   11 ar
  20   10   41 1
  21   11   42 1
  22   12   14 ar
  23   12   18 ar
  24   14   15 ar
  25   14   43 1
  26   15   16 ar
  27   15   44 1
  28   16   17 ar
  29   16   45 1
  30   17   18 ar
  31   17   21 1
  32   18   46 1
  33   19   20 am
  34   19   47 1
  35   20   22 2
  36   20   23 1
  37   21   30 ar
  38   21   34 ar
  39   23   24 1
  40   23   48 1
  41   23   49 1
  42   24   25 ar
  43   24   29 ar
  44   25   26 ar
  45   25   50 1
  46   26   27 ar
  47   26   51 1
  48   27   28 ar
  49   27   52 1
  50   28   29 ar
  51   28   53 1
  52   29   54 1
  53   30   31 ar
  54   30   55 1
  55   31   32 ar
  56   31   36 1
  57   32   33 ar
  58   33   34 ar
  59   33   35 1
  60   34   56 1
  61   35   57 1
  62   35   58 1
  63   35   59 1
  64   36   60 1
  65   36   61 1
  66   36   62 1

#	End of record

