#	Name: ASD03082393
#	Creating user name:	WinNT
#	Creation time:	15. 06. 2019 20:27

#	Modifying user name:	WinNT
#	Modification time:	15. 06. 2019 20:27

#	Program:	/corina/corina34_cracker 3.40 0067  02.08.2006

@<TRIPOS>MOLECULE
ASD03082393
  37   39    0    0    0
SMALL
NO_CHARGES


@<TRIPOS>ATOM
   1 C1             1.8685     1.5203    -0.4090 C.ar    
   2 C2             2.0321     0.1516    -0.2253 C.ar    
   3 C3             3.3024    -0.3716    -0.0222 C.ar    
   4 C4             4.3994     0.4676    -0.0033 C.ar    
   5 C5             4.2354     1.8284    -0.1857 C.ar    
   6 C6             2.9725     2.3546    -0.3941 C.ar    
   7 Cl7            2.7716     4.0637    -0.6232 Cl      
   8 N8             0.9198    -0.6959    -0.2444 N.pl3   
   9 C9             1.0974    -2.0833    -0.2310 C.2     
  10 C10            0.0764    -3.0440    -0.1297 C.2     
  11 N11            2.2457    -2.7130    -0.3166 N.2     
  12 N12            1.9946    -4.0903    -0.2666 N.pl3   
  13 C13            0.6523    -4.2667    -0.1517 C.2     
  14 C14            2.9551    -5.1043    -0.3288 C.ar    
  15 C15            2.7009    -6.2881    -1.0184 C.ar    
  16 C16            4.1938    -4.9547     0.2924 C.ar    
  17 C17            5.1146    -5.9785     0.2072 C.ar    
  18 N18            4.8343    -7.0873    -0.4513 N.ar    
  19 C19            3.6755    -7.2645    -1.0566 C.ar    
  20 C20            6.4576    -5.8287     0.8742 C.3     
  21 H21            3.4854    -8.1871    -1.5848 H       
  22 C22           -0.0658    -5.5888    -0.0643 C.3     
  23 F23            0.6348     2.0339    -0.6073 F       
  24 C24           -0.5540    -5.9711    -1.3993 C.1     
  25 N25           -0.9308    -6.2662    -2.4296 N.1     
  26 H26            3.4324    -1.4341     0.1211 H       
  27 H27            5.3871     0.0601     0.1546 H       
  28 H28            5.0954     2.4816    -0.1700 H       
  29 H29            0.0252    -0.3217    -0.2669 H       
  30 H30           -0.9813    -2.8410    -0.0481 H       
  31 H31            1.7543    -6.4396    -1.5157 H       
  32 H32            4.4296    -4.0497     0.8326 H       
  33 H33            6.4005    -6.2066     1.8950 H       
  34 H34            7.2046    -6.3952     0.3183 H       
  35 H35            6.7390    -4.7758     0.8918 H       
  36 H36            0.6205    -6.3514     0.3037 H       
  37 H37           -0.9100    -5.4992     0.6194 H       
@<TRIPOS>BOND
   1    1    2 ar
   2    1   23 1
   3    1    6 ar
   4    2    3 ar
   5    2    8 1
   6    3    4 ar
   7    3   26 1
   8    4    5 ar
   9    4   27 1
  10    5    6 ar
  11    5   28 1
  12    6    7 1
  13    8    9 1
  14    8   29 1
  15    9   10 1
  16    9   11 2
  17   10   13 2
  18   10   30 1
  19   11   12 1
  20   12   13 1
  21   12   14 1
  22   13   22 1
  23   14   15 ar
  24   14   16 ar
  25   15   19 ar
  26   15   31 1
  27   16   17 ar
  28   16   32 1
  29   17   18 ar
  30   17   20 1
  31   18   19 ar
  32   19   21 1
  33   20   33 1
  34   20   34 1
  35   20   35 1
  36   22   24 1
  37   22   36 1
  38   22   37 1
  39   24   25 3

#	End of record

