#	Name: ASD01870396
#	Creating user name:	WinNT
#	Creation time:	15. 06. 2019 19:39

#	Modifying user name:	WinNT
#	Modification time:	15. 06. 2019 19:39

#	Program:	/corina/corina34_cracker 3.40 0067  02.08.2006

@<TRIPOS>MOLECULE
ASD01870396
  34   37    0    0    0
SMALL
NO_CHARGES


@<TRIPOS>ATOM
   1 C1            -0.0167     1.3795     0.0096 C.ar    
   2 C2             0.0021    -0.0041     0.0020 C.ar    
   3 C3             1.2050    -0.6837    -0.0138 C.ar    
   4 C4             2.3962     0.0183    -0.0225 C.ar    
   5 C5             2.3837     1.3985    -0.0148 C.ar    
   6 C6             1.1751     2.0855     0.0020 C.ar    
   7 O7             1.1842     3.4398     0.0104 O.3     
   8 C8             0.0932     4.1247     0.4286 C.ar    
   9 C9            -1.1567     3.5282     0.4570 C.ar    
  10 C10           -1.3379     2.0989     0.0198 C.3     
  11 C11            0.2358     5.4468     0.8342 C.ar    
  12 C12           -0.8638     6.1627     1.2626 C.ar    
  13 C13           -2.1103     5.5649     1.2889 C.ar    
  14 C14           -2.2554     4.2510     0.8870 C.ar    
  15 C15           -1.9299     2.0706    -1.3657 C.2     
  16 O16           -1.3350     1.5203    -2.2684 O.2     
  17 N17           -3.1202     2.6569    -1.6020 N.am    
  18 C18           -3.6694     2.6307    -2.8873 C.2     
  19 S19           -2.9478     1.8800    -4.3087 S.3     
  20 C20           -4.2849     2.3662    -5.2564 C.2     
  21 N21           -5.1356     3.0106    -4.5331 N.2     
  22 C22           -4.8439     3.1685    -3.2568 C.2     
  23 H23           -0.9270    -0.5548     0.0088 H       
  24 H24            1.2148    -1.7637    -0.0189 H       
  25 H25            3.3363    -0.5132    -0.0351 H       
  26 H26            3.3146     1.9460    -0.0216 H       
  27 H27           -2.0155     1.5963     0.7100 H       
  28 H28            1.2090     5.9146     0.8143 H       
  29 H29           -0.7505     7.1895     1.5776 H       
  30 H30           -2.9707     6.1251     1.6239 H       
  31 H31           -3.2301     3.7863     0.9087 H       
  32 H32           -3.5959     3.0970    -0.8802 H       
  33 H33           -4.4003     2.1629    -6.3108 H       
  34 H34           -5.4927     3.6887    -2.5677 H       
@<TRIPOS>BOND
   1    1    2 ar
   2    1    6 ar
   3    1   10 1
   4    2    3 ar
   5    2   23 1
   6    3    4 ar
   7    3   24 1
   8    4    5 ar
   9    4   25 1
  10    5    6 ar
  11    5   26 1
  12    6    7 1
  13    7    8 1
  14    8   11 ar
  15    8    9 ar
  16    9   10 1
  17    9   14 ar
  18   10   15 1
  19   10   27 1
  20   11   12 ar
  21   11   28 1
  22   12   13 ar
  23   12   29 1
  24   13   14 ar
  25   13   30 1
  26   14   31 1
  27   15   16 2
  28   15   17 am
  29   17   18 1
  30   17   32 1
  31   18   19 1
  32   18   22 2
  33   19   20 1
  34   20   21 2
  35   20   33 1
  36   21   22 1
  37   22   34 1

#	End of record

