#	Name: ASD03081311
#	Creating user name:	WinNT
#	Creation time:	15. 06. 2019 20:27

#	Modifying user name:	WinNT
#	Modification time:	15. 06. 2019 20:27

#	Program:	/corina/corina34_cracker 3.40 0067  02.08.2006

@<TRIPOS>MOLECULE
ASD03081311
  34   36    0    0    0
SMALL
NO_CHARGES


@<TRIPOS>ATOM
   1 O1            -0.0162     1.3444     0.0094 O.3     
   2 C2             0.0021    -0.0041     0.0020 C.2     
   3 N3             1.2606    -0.3805    -0.0120 N.2     
   4 N4             2.0177     0.6597    -0.0137 N.2     
   5 C5             1.2725     1.7416    -0.0007 C.2     
   6 C6             0.8547     4.2023     0.0149 C.ar    
   7 C7             1.7573     3.1373     0.0014 C.ar    
   8 C8             3.1296     3.4143    -0.0097 C.ar    
   9 C9             3.5313     4.7385    -0.0067 C.ar    
  10 C10            2.5739     5.7366     0.0070 C.ar    
  11 N11            1.2869     5.4461     0.0177 N.ar    
  12 C12           -1.1770    -0.8946     0.0089 C.ar    
  13 C13           -1.0078    -2.2798    -0.0002 C.ar    
  14 C14           -2.1157    -3.1108     0.0068 C.ar    
  15 C15           -3.3925    -2.5680     0.0229 C.ar    
  16 C16           -3.5653    -1.1913     0.0320 C.ar    
  17 C17           -2.4630    -0.3530     0.0304 C.ar    
  18 O18           -4.8182    -0.6649     0.0477 O.3     
  19 C19           -5.9095    -1.5874     0.0540 C.3     
  20 O20           -1.9521    -4.4599    -0.0025 O.3     
  21 C21           -3.1379    -5.2573     0.0055 C.3     
  22 H22           -0.2070     4.0044     0.0191 H       
  23 H23            3.8559     2.6151    -0.0199 H       
  24 H24            4.5816     4.9901    -0.0146 H       
  25 H25            2.8849     6.7709     0.0094 H       
  26 H26           -0.0143    -2.7032    -0.0130 H       
  27 H27           -4.2543    -3.2189     0.0279 H       
  28 H28           -2.5984     0.7185     0.0421 H       
  29 H29           -5.8645    -2.2096    -0.8398 H       
  30 H30           -5.8461    -2.2191     0.9401 H       
  31 H31           -6.8503    -1.0371     0.0667 H       
  32 H32           -2.8660    -6.3129    -0.0033 H       
  33 H33           -3.7167    -5.0387     0.9029 H       
  34 H34           -3.7355    -5.0287    -0.8769 H       
@<TRIPOS>BOND
   1    1    2 1
   2    1    5 1
   3    2    3 2
   4    2   12 1
   5    3    4 1
   6    4    5 2
   7    5    7 1
   8    6    7 ar
   9    6   11 ar
  10    6   22 1
  11    7    8 ar
  12    8    9 ar
  13    8   23 1
  14    9   10 ar
  15    9   24 1
  16   10   11 ar
  17   10   25 1
  18   12   13 ar
  19   12   17 ar
  20   13   14 ar
  21   13   26 1
  22   14   15 ar
  23   14   20 1
  24   15   16 ar
  25   15   27 1
  26   16   17 ar
  27   16   18 1
  28   17   28 1
  29   18   19 1
  30   19   29 1
  31   19   30 1
  32   19   31 1
  33   20   21 1
  34   21   32 1
  35   21   33 1
  36   21   34 1

#	End of record

