#	Name: ASD02198712
#	Creating user name:	WinNT
#	Creation time:	15. 06. 2019 20:20

#	Modifying user name:	WinNT
#	Modification time:	15. 06. 2019 20:20

#	Program:	/corina/corina34_cracker 3.40 0067  02.08.2006

@<TRIPOS>MOLECULE
ASD02198712
  55   59    0    0    0
SMALL
NO_CHARGES


@<TRIPOS>ATOM
   1 F1             1.4581    -2.1286     1.8523 F       
   2 C2            -0.2297     1.6253    -0.4604 C.2     
   3 C3            -0.4131     0.2811    -0.4390 C.2     
   4 N4             0.6334    -0.5586    -0.2730 N.pl3   
   5 N5             1.8421    -0.1571    -0.1281 N.2     
   6 C6             2.1594     1.1199    -0.1301 C.2     
   7 C7             1.0892     2.1150    -0.3041 C.2     
   8 C8             0.3845    -1.9354    -0.2581 C.ar    
   9 C9             0.8068    -2.7076     0.8199 C.ar    
  10 C10            0.5597    -4.0673     0.8334 C.ar    
  11 C11           -0.1094    -4.6616    -0.2286 C.ar    
  12 C12           -0.5307    -3.8898    -1.3045 C.ar    
  13 C13           -0.2894    -2.5313    -1.3169 C.ar    
  14 C14            3.5632     1.5467     0.0395 C.2     
  15 N15            4.2773     2.3453    -0.8090 N.pl3   
  16 N16            5.5615     2.4979    -0.2717 N.2     
  17 C17            5.6311     1.8265     0.8501 C.2     
  18 C18            4.3975     1.2195     1.0859 C.2     
  19 C19            3.8089     2.9096    -2.0024 C.ar    
  20 C20            4.1157     4.2270    -2.3166 C.ar    
  21 C21            3.6523     4.7804    -3.4940 C.ar    
  22 C22            2.8835     4.0242    -4.3597 C.ar    
  23 C23            2.5759     2.7122    -4.0494 C.ar    
  24 C24            3.0414     2.1510    -2.8765 C.ar    
  25 O25            1.3291     3.3132    -0.3140 O.2     
  26 N26           -0.3592    -6.0383    -0.2152 N.am    
  27 C27           -1.5823    -6.5863    -0.1132 C.2     
  28 C28            0.6802    -7.0695    -0.3172 C.3     
  29 C29           -0.0643    -8.3690    -0.6957 C.3     
  30 C30           -1.4803    -8.0954    -0.1411 C.3     
  31 O31           -2.6172    -5.9617    -0.0127 O.2     
  32 C32            1.6877    -6.6997    -1.4076 C.3     
  33 C33            1.3914    -7.2390     1.0268 C.3     
  34 H34           -1.0623     2.2996    -0.5968 H       
  35 H35           -1.4077    -0.1232    -0.5557 H       
  36 H36            0.8873    -4.6676     1.6693 H       
  37 H37           -1.0507    -4.3530    -2.1300 H       
  38 H38           -0.6176    -1.9323    -2.1535 H       
  39 H39            6.4988     1.7574     1.4893 H       
  40 H40            4.1442     0.5989     1.9327 H       
  41 H41            4.7158     4.8182    -1.6408 H       
  42 H42            3.8903     5.8051    -3.7388 H       
  43 H43            2.5223     4.4593    -5.2798 H       
  44 H44            1.9746     2.1244    -4.7272 H       
  45 H45            2.8008     1.1263    -2.6347 H       
  46 H46           -0.0907    -8.5027    -1.7771 H       
  47 H47            0.3870    -9.2332    -0.2082 H       
  48 H48           -1.5816    -8.5035     0.8646 H       
  49 H49           -2.2372    -8.5166    -0.8028 H       
  50 H50            2.2260    -5.7984    -1.1144 H       
  51 H51            2.3952    -7.5181    -1.5412 H       
  52 H52            1.1598    -6.5193    -2.3440 H       
  53 H53            0.6636    -7.5110     1.7913 H       
  54 H54            2.1423    -8.0248     0.9440 H       
  55 H55            1.8751    -6.3020     1.3027 H       
@<TRIPOS>BOND
   1    1    9 1
   2    2    3 2
   3    2    7 1
   4    2   34 1
   5    3    4 1
   6    3   35 1
   7    4    5 1
   8    4    8 1
   9    5    6 2
  10    6    7 1
  11    6   14 1
  12    7   25 2
  13    8    9 ar
  14    8   13 ar
  15    9   10 ar
  16   10   11 ar
  17   10   36 1
  18   11   12 ar
  19   11   26 1
  20   12   13 ar
  21   12   37 1
  22   13   38 1
  23   14   15 1
  24   14   18 2
  25   15   16 1
  26   15   19 1
  27   16   17 2
  28   17   18 1
  29   17   39 1
  30   18   40 1
  31   19   20 ar
  32   19   24 ar
  33   20   21 ar
  34   20   41 1
  35   21   22 ar
  36   21   42 1
  37   22   23 ar
  38   22   43 1
  39   23   24 ar
  40   23   44 1
  41   24   45 1
  42   26   28 1
  43   26   27 am
  44   27   31 2
  45   27   30 1
  46   28   29 1
  47   28   32 1
  48   28   33 1
  49   29   30 1
  50   29   46 1
  51   29   47 1
  52   30   48 1
  53   30   49 1
  54   32   50 1
  55   32   51 1
  56   32   52 1
  57   33   53 1
  58   33   54 1
  59   33   55 1

#	End of record

