#	Name: ASD01530043
#	Creating user name:	WinNT
#	Creation time:	15. 06. 2019 19:22

#	Modifying user name:	WinNT
#	Modification time:	15. 06. 2019 19:22

#	Program:	/corina/corina34_cracker 3.40 0067  02.08.2006

@<TRIPOS>MOLECULE
ASD01530043
  19   19    0    0    0
SMALL
NO_CHARGES


@<TRIPOS>ATOM
   1 C1            -0.0167     1.3782     0.0096 C.ar    
   2 C2             0.0021    -0.0041     0.0020 C.ar    
   3 C3             1.1707     2.0862     0.0021 C.ar    
   4 C4             2.3773     1.4123    -0.0136 C.ar    
   5 C5             2.3967     0.0290    -0.0212 C.ar    
   6 C6             1.2081    -0.6790    -0.0132 C.ar    
   7 Cl7            3.9119    -0.8181    -0.0414 Cl      
   8 C8            -1.3320     2.1136     0.0199 C.3     
   9 C9            -1.7703     2.3546     1.4658 C.3     
  10 O10           -3.0176     3.0519     1.4755 O.3     
  11 H11           -0.9258    -0.5566     0.0083 H       
  12 H12            1.1554     3.1661     0.0081 H       
  13 H13            3.3048     1.9655    -0.0202 H       
  14 H14            1.2226    -1.7589    -0.0188 H       
  15 H15           -1.2173     3.0705    -0.4893 H       
  16 H16           -2.0859     1.5169    -0.4937 H       
  17 H17           -1.8851     1.3977     1.9750 H       
  18 H18           -1.0165     2.9513     1.9793 H       
  19 H19           -3.3567     3.2390     2.3615 H       
@<TRIPOS>BOND
   1    1    2 ar
   2    1    3 ar
   3    1    8 1
   4    2    6 ar
   5    2   11 1
   6    3    4 ar
   7    3   12 1
   8    4    5 ar
   9    4   13 1
  10    5    6 ar
  11    5    7 1
  12    6   14 1
  13    8    9 1
  14    8   15 1
  15    8   16 1
  16    9   10 1
  17    9   17 1
  18    9   18 1
  19   10   19 1

#	End of record

