#	Name: ASD01830035
#	Creating user name:	WinNT
#	Creation time:	15. 06. 2019 19:36

#	Modifying user name:	WinNT
#	Modification time:	15. 06. 2019 19:36

#	Program:	/corina/corina34_cracker 3.40 0067  02.08.2006

@<TRIPOS>MOLECULE
ASD01830035
  77   78    0    0    0
SMALL
NO_CHARGES


@<TRIPOS>ATOM
   1 Cl1            0.0000     0.0000     0.0000 Cl      
   2 H2             0.0000     1.3700     0.0000 H       
   3 Cl3            5.0000     6.3700     5.0000 Cl      
   4 H4             5.0000     7.7400     5.0000 H       
   5 C5            19.9417    14.5613    13.7652 C.3     
   6 C6            19.2829    15.4856    12.7392 C.3     
   7 N7            17.8658    15.1266    12.5954 N.3     
   8 C8            17.7190    13.7724    12.0452 C.3     
   9 C9            18.2490    13.7448    10.6102 C.3     
  10 C10           17.1578    15.2540    13.8762 C.3     
  11 C11           17.0024    16.7127    14.2213 C.2     
  12 S12           18.2054    17.7177    15.0263 S.3     
  13 C13           17.1120    19.0956    14.9411 C.2     
  14 N14           17.3877    20.3694    15.4196 N.am    
  15 C15           16.4693    21.3484    15.2978 C.2     
  16 O16           15.3996    21.1160    14.7689 O.2     
  17 C17           16.7627    22.7041    15.8070 C.ar    
  18 C18           15.8104    23.7155    15.6862 C.ar    
  19 N19           16.0729    24.9268    16.1418 N.ar    
  20 C20           17.2432    25.1812    16.7146 C.ar    
  21 C21           18.1984    24.1663    16.8357 C.ar    
  22 N22           17.9355    22.9591    16.3868 N.ar    
  23 N23           17.5185    26.4510    17.1918 N.3     
  24 C24           18.7466    26.9859    16.5874 C.3     
  25 C25           19.0586    28.3540    17.1983 C.3     
  26 N26           17.9244    29.2601    16.9694 N.3     
  27 C27           18.2166    30.6077    17.4758 C.3     
  28 C28           16.9399    31.4504    17.4494 C.3     
  29 C29           17.2396    32.8329    17.9689 C.2     
  30 O30           16.2625    33.7506    18.0373 O.3     
  31 O31           18.3595    33.1152    18.3239 O.2     
  32 C32           16.6964    28.7251    17.5738 C.3     
  33 C33           16.3844    27.3570    16.9628 C.3     
  34 N34           16.0095    18.7351    14.3615 N.2     
  35 C35           15.9237    17.4737    13.9627 C.2     
  36 C36           14.7198    16.9375    13.2824 C.ar    
  37 C37           14.8510    15.9671    12.2912 C.ar    
  38 C38           13.7251    15.4707    11.6609 C.ar    
  39 F39           13.8496    14.5295    10.6998 F       
  40 C40           12.4694    15.9370    12.0142 C.ar    
  41 C41           12.3356    16.9006    12.9975 C.ar    
  42 C42           13.4527    17.3984    13.6366 C.ar    
  43 C43           10.9663    17.4037    13.3757 C.3     
  44 F44           10.0000    16.7526    12.6014 F       
  45 F45           10.7315    17.1434    14.7301 F       
  46 F46           10.8963    18.7820    13.1467 F       
  47 H47           21.0126    14.7611    13.7994 H       
  48 H48           19.5069    14.7414    14.7483 H       
  49 H49           19.7747    13.5230    13.4787 H       
  50 H50           19.3635    16.5190    13.0766 H       
  51 H51           19.7846    15.3772    11.7776 H       
  52 H52           18.2855    13.0690    12.6553 H       
  53 H53           16.6660    13.4908    12.0491 H       
  54 H54           17.6824    14.4482    10.0000 H       
  55 H55           19.3019    14.0264    10.6062 H       
  56 H56           18.1401    12.7400    10.2019 H       
  57 H57           16.1734    14.7931    13.7946 H       
  58 H58           17.7293    14.7545    14.6585 H       
  59 H59           18.2412    20.5549    15.8415 H       
  60 H60           14.8586    23.5083    15.2198 H       
  61 H61           19.1503    24.3737    17.3017 H       
  62 H62           19.5743    26.3037    16.7812 H       
  63 H63           18.6063    27.0915    15.5116 H       
  64 H64           19.2257    28.2442    18.2698 H       
  65 H65           19.9530    28.7657    16.7307 H       
  66 H66           18.5856    30.5392    18.4991 H       
  67 H67           18.9740    31.0758    16.8470 H       
  68 H68           16.5709    31.5189    16.4260 H       
  69 H69           16.1825    30.9822    18.0782 H       
  70 H70           16.5029    34.6233    18.3773 H       
  71 H71           16.8367    28.6195    18.6496 H       
  72 H72           15.8686    29.4073    17.3799 H       
  73 H73           16.2172    27.4668    15.8913 H       
  74 H74           15.4899    26.9453    17.4304 H       
  75 H75           15.8301    15.6039    12.0156 H       
  76 H76           11.5918    15.5471    11.5199 H       
  77 H77           13.3458    18.1475    14.4073 H       
@<TRIPOS>BOND
   1    1    2 1
   2    3    4 1
   3    5    6 1
   4    5   47 1
   5    5   48 1
   6    5   49 1
   7    6    7 1
   8    6   50 1
   9    6   51 1
  10    7    8 1
  11    7   10 1
  12    8    9 1
  13    8   52 1
  14    8   53 1
  15    9   54 1
  16    9   55 1
  17    9   56 1
  18   10   11 1
  19   10   57 1
  20   10   58 1
  21   11   35 2
  22   11   12 1
  23   12   13 1
  24   13   14 1
  25   13   34 2
  26   14   15 am
  27   14   59 1
  28   15   16 2
  29   15   17 1
  30   17   22 ar
  31   17   18 ar
  32   18   19 ar
  33   18   60 1
  34   19   20 ar
  35   20   21 ar
  36   20   23 1
  37   21   22 ar
  38   21   61 1
  39   23   33 1
  40   23   24 1
  41   24   25 1
  42   24   62 1
  43   24   63 1
  44   25   26 1
  45   25   64 1
  46   25   65 1
  47   26   27 1
  48   26   32 1
  49   27   28 1
  50   27   66 1
  51   27   67 1
  52   28   29 1
  53   28   68 1
  54   28   69 1
  55   29   30 1
  56   29   31 2
  57   30   70 1
  58   32   33 1
  59   32   71 1
  60   32   72 1
  61   33   73 1
  62   33   74 1
  63   34   35 1
  64   35   36 1
  65   36   42 ar
  66   36   37 ar
  67   37   38 ar
  68   37   75 1
  69   38   39 1
  70   38   40 ar
  71   40   41 ar
  72   40   76 1
  73   41   42 ar
  74   41   43 1
  75   42   77 1
  76   43   44 1
  77   43   45 1
  78   43   46 1

#	End of record

