#	Name: ASD01150761
#	Creating user name:	WinNT
#	Creation time:	15. 06. 2019 19:05

#	Modifying user name:	WinNT
#	Modification time:	15. 06. 2019 19:05

#	Program:	/corina/corina34_cracker 3.40 0067  02.08.2006

@<TRIPOS>MOLECULE
ASD01150761
  50   53    0    0    0
SMALL
NO_CHARGES


@<TRIPOS>ATOM
   1 C1            -0.0033     1.4277     0.0437 C.2     
   2 C2            -0.5047     1.0185    -1.3172 C.3     
   3 N3             3.5646     2.3085     0.4735 N.ar    
   4 C4             2.4629     1.6139     0.3638 C.ar    
   5 C5             1.2157     2.2339     0.1641 C.ar    
   6 C6             1.1527     3.6371     0.0809 C.ar    
   7 C7             2.3658     4.3593     0.2045 C.ar    
   8 C8             2.3854     5.7578     0.1321 C.ar    
   9 C9             3.5854     6.4276     0.2564 C.ar    
  10 C10            4.7755     5.7194     0.4528 C.ar    
  11 C11            4.7779     4.3606     0.5255 C.ar    
  12 C12            3.5739     3.6470     0.4040 C.ar    
  13 N13            3.6118     7.8219     0.1851 N.3     
  14 C14            4.9805     8.3309     0.3405 C.3     
  15 C15            4.9923     9.8442     0.1126 C.3     
  16 C16            4.0602    10.5152     1.1252 C.3     
  17 C17            2.6521     9.9327     0.9750 C.3     
  18 C18            2.7081     8.4168     1.1779 C.3     
  19 C19            2.5303     0.1110     0.4516 C.3     
  20 C20           -0.1330     4.3331    -0.1284 C.ar    
  21 C21           -1.1307     4.2717     0.8478 C.ar    
  22 C22           -2.3284     4.9236     0.6472 C.ar    
  23 C23           -2.5441     5.6394    -0.5206 C.ar    
  24 C24           -1.5576     5.7039    -1.4928 C.ar    
  25 C25           -0.3539     5.0603    -1.3007 C.ar    
  26 F26           -3.7202     6.2761    -0.7121 F       
  27 F27           -1.6231     0.1906    -1.1726 F       
  28 F28           -0.8597     2.1589    -2.0457 F       
  29 F29            0.5033     0.3262    -1.9968 F       
  30 O30           -0.6109     1.0944     1.0395 O.2     
  31 H31            1.4685     6.3077    -0.0202 H       
  32 H32            5.7062     6.2589     0.5477 H       
  33 H33            5.7064     3.8301     0.6769 H       
  34 H34            5.3371     8.1124     1.3470 H       
  35 H35            5.6322     7.8488    -0.3882 H       
  36 H36            6.0056    10.2240     0.2433 H       
  37 H37            4.6488    10.0626    -0.8986 H       
  38 H38            4.4254    10.3295     2.1352 H       
  39 H39            4.0320    11.5888     0.9387 H       
  40 H40            1.9934    10.3757     1.7220 H       
  41 H41            2.2718    10.1525    -0.0226 H       
  42 H42            1.7094     7.9972     1.0575 H       
  43 H43            3.0754     8.1980     2.1805 H       
  44 H44            2.4903    -0.1940     1.4973 H       
  45 H45            1.6869    -0.3226    -0.0858 H       
  46 H46            3.4624    -0.2375     0.0069 H       
  47 H47           -0.9639     3.7142     1.7576 H       
  48 H48           -3.1005     4.8766     1.4009 H       
  49 H49           -1.7312     6.2626    -2.4006 H       
  50 H50            0.4153     5.1146    -2.0568 H       
@<TRIPOS>BOND
   1    1    2 1
   2    1    5 1
   3    1   30 2
   4    2   27 1
   5    2   28 1
   6    2   29 1
   7    3    4 ar
   8    3   12 ar
   9    4    5 ar
  10    4   19 1
  11    5    6 ar
  12    6    7 ar
  13    6   20 1
  14    7    8 ar
  15    7   12 ar
  16    8    9 ar
  17    8   31 1
  18    9   10 ar
  19    9   13 1
  20   10   11 ar
  21   10   32 1
  22   11   12 ar
  23   11   33 1
  24   13   14 1
  25   13   18 1
  26   14   15 1
  27   14   34 1
  28   14   35 1
  29   15   16 1
  30   15   36 1
  31   15   37 1
  32   16   17 1
  33   16   38 1
  34   16   39 1
  35   17   18 1
  36   17   40 1
  37   17   41 1
  38   18   42 1
  39   18   43 1
  40   19   44 1
  41   19   45 1
  42   19   46 1
  43   20   21 ar
  44   20   25 ar
  45   21   22 ar
  46   21   47 1
  47   22   23 ar
  48   22   48 1
  49   23   24 ar
  50   23   26 1
  51   24   25 ar
  52   24   49 1
  53   25   50 1

#	End of record

