#	Name: ASD07930015
#	Creating user name:	WinNT
#	Creation time:	15. 06. 2019 21:11

#	Modifying user name:	WinNT
#	Modification time:	15. 06. 2019 21:11

#	Program:	/corina/corina34_cracker 3.40 0067  02.08.2006

@<TRIPOS>MOLECULE
ASD07930015
  41   44    0    0    0
SMALL
NO_CHARGES


@<TRIPOS>ATOM
   1 S1            -0.0218     1.7566     0.0117 S.3     
   2 C2             0.0021    -0.0041     0.0020 C.2     
   3 N3             1.0067    -0.6801    -0.4023 N.2     
   4 C4             2.2788    -0.2480    -0.9298 C.3     
   5 C5             2.4018     1.2696    -1.1298 C.3     
   6 C6             1.7642     2.0612    -0.0037 C.3     
   7 O7             1.6798     0.2587    -3.1728 O.3     
   8 C8             2.3747    -0.7374    -2.4040 C.3     
   9 C9             1.6874     1.5096    -2.4693 C.3     
  10 N10           -1.1092    -0.6801     0.4498 N.pl3   
  11 C11            2.4451     2.5606    -3.2830 C.3     
  12 F12            1.7276     2.8552    -4.4474 F       
  13 C13            3.4157    -0.7905    -0.1027 C.ar    
  14 C14            4.7251    -0.5015    -0.4532 C.ar    
  15 C15            5.7744    -0.9964     0.3028 C.ar    
  16 C16            5.5194    -1.7821     1.4112 C.ar    
  17 C17            4.2021    -2.0750     1.7667 C.ar    
  18 C18            3.1507    -1.5690     1.0050 C.ar    
  19 C19            3.4168    -4.4396     5.0997 C.ar    
  20 N20            4.2885    -4.8641     4.2066 N.ar    
  21 C21            4.5673    -4.1445     3.1333 C.ar    
  22 C22            3.9219    -2.9182     2.9549 C.ar    
  23 C23            3.0056    -2.5077     3.9265 C.ar    
  24 N24            2.7860    -3.2894     4.9697 N.ar    
  25 F25            6.5431    -2.2658     2.1482 F       
  26 F26            4.9785     0.2654    -1.5362 F       
  27 H27            3.4526     1.5441    -1.2228 H       
  28 H28            1.9502     3.1243    -0.1561 H       
  29 H29            2.1942     1.7497     0.9482 H       
  30 H30            3.4173    -0.7975    -2.7161 H       
  31 H31            1.8892    -1.7072    -2.5136 H       
  32 H32            0.6646     1.8412    -2.2904 H       
  33 H33           -1.8839    -0.1868     0.7619 H       
  34 H34           -1.1182    -1.6500     0.4533 H       
  35 H35            2.5605     3.4668    -2.6883 H       
  36 H36            3.4284     2.1737    -3.5503 H       
  37 H37            6.7932    -0.7686     0.0260 H       
  38 H38            2.1296    -1.7898     1.2788 H       
  39 H39            3.2097    -5.0553     5.9625 H       
  40 H40            5.2830    -4.4986     2.4061 H       
  41 H41            2.4853    -1.5666     3.8270 H       
@<TRIPOS>BOND
   1    1    2 1
   2    1    6 1
   3    2    3 2
   4    2   10 1
   5    3    4 1
   6    4    8 1
   7    4   13 1
   8    4    5 1
   9    5    6 1
  10    5    9 1
  11    5   27 1
  12    6   28 1
  13    6   29 1
  14    7    8 1
  15    7    9 1
  16    8   30 1
  17    8   31 1
  18    9   11 1
  19    9   32 1
  20   10   33 1
  21   10   34 1
  22   11   12 1
  23   11   35 1
  24   11   36 1
  25   13   14 ar
  26   13   18 ar
  27   14   15 ar
  28   14   26 1
  29   15   16 ar
  30   15   37 1
  31   16   17 ar
  32   16   25 1
  33   17   18 ar
  34   17   22 1
  35   18   38 1
  36   19   20 ar
  37   19   24 ar
  38   19   39 1
  39   20   21 ar
  40   21   22 ar
  41   21   40 1
  42   22   23 ar
  43   23   24 ar
  44   23   41 1

#	End of record

