#	Name: ASD01810501
#	Creating user name:	WinNT
#	Creation time:	15. 06. 2019 19:24

#	Modifying user name:	WinNT
#	Modification time:	15. 06. 2019 19:24

#	Program:	/corina/corina34_cracker 3.40 0067  02.08.2006

@<TRIPOS>MOLECULE
ASD01810501
  61   65    0    0    0
SMALL
NO_CHARGES


@<TRIPOS>ATOM
   1 C1            -1.7492    -2.9377    -0.7830 C.ar    
   2 C2            -0.8048    -2.0149    -0.3683 C.ar    
   3 C3             0.5321    -2.3597    -0.3208 C.ar    
   4 C4             0.9292    -3.6354    -0.6900 C.ar    
   5 C5            -0.0238    -4.5667    -1.1084 C.ar    
   6 C6            -1.3630    -4.2115    -1.1529 C.ar    
   7 N7             2.1668    -4.2716    -0.7495 N.am    
   8 C8             1.9757    -5.5315    -1.1841 C.2     
   9 N9             0.6646    -5.7396    -1.4091 N.am    
  10 C10            3.4569    -3.6718    -0.3998 C.3     
  11 O11            2.8544    -6.3571    -1.3481 O.2     
  12 C12            4.0968    -4.4676     0.7401 C.3     
  13 C13            5.4290    -3.8173     1.1264 C.3     
  14 N14            6.2665    -3.7050    -0.0756 N.pl3   
  15 C15            5.7138    -3.0371    -1.2619 C.3     
  16 C16            4.3784    -3.6962    -1.6214 C.3     
  17 N17            9.6745    -6.0422    -0.0389 N.3     
  18 C18            8.9089    -5.8269     1.1954 C.3     
  19 C19            8.3287    -4.4080     1.1936 C.3     
  20 C20            7.5481    -4.2166    -0.0899 C.2     
  21 C21            8.2207    -4.6060    -1.3897 C.3     
  22 C22            8.8079    -6.0123    -1.2237 C.3     
  23 C23           10.4350    -7.2975     0.0256 C.3     
  24 C24           11.0069    -7.6086    -1.3335 C.ar    
  25 C25           12.1581    -6.9734    -1.7610 C.ar    
  26 C26           12.6827    -7.2587    -3.0075 C.ar    
  27 C27           12.0564    -8.1797    -3.8267 C.ar    
  28 C28           10.9061    -8.8154    -3.3990 C.ar    
  29 C29           10.3838    -8.5332    -2.1504 C.ar    
  30 C30           12.8407    -5.9695    -0.8680 C.3     
  31 H31           -2.7930    -2.6623    -0.8132 H       
  32 H32           -1.1143    -1.0209    -0.0810 H       
  33 H33            1.2663    -1.6368     0.0030 H       
  34 H34           -2.1028    -4.9291    -1.4756 H       
  35 H35            0.2672    -6.5657    -1.7260 H       
  36 H36            3.3035    -2.6407    -0.0813 H       
  37 H37            3.4295    -4.4695     1.6019 H       
  38 H38            4.2734    -5.4926     0.4138 H       
  39 H39            5.2454    -2.8248     1.5378 H       
  40 H40            5.9355    -4.4348     1.8682 H       
  41 H41            5.5534    -1.9810    -1.0451 H       
  42 H42            6.4081    -3.1398    -2.0958 H       
  43 H43            4.5523    -4.7284    -1.9254 H       
  44 H44            3.9115    -3.1490    -2.4403 H       
  45 H45            8.0968    -6.5518     1.2505 H       
  46 H46            9.5656    -5.9500     2.0566 H       
  47 H47            7.6657    -4.2809     2.0494 H       
  48 H48            9.1381    -3.6797     1.2436 H       
  49 H49            7.4883    -4.6063    -2.1969 H       
  50 H50            9.0186    -3.8989    -1.6169 H       
  51 H51            9.3916    -6.2692    -2.1077 H       
  52 H52            7.9985    -6.7319    -1.1004 H       
  53 H53           11.2462    -7.1942     0.7462 H       
  54 H54            9.7743    -8.1070     0.3357 H       
  55 H55           13.5815    -6.7620    -3.3417 H       
  56 H56           12.4659    -8.4021    -4.8010 H       
  57 H57           10.4167    -9.5345    -4.0391 H       
  58 H58            9.4870    -9.0326    -1.8147 H       
  59 H59           13.5727    -6.4792    -0.2415 H       
  60 H60           13.3445    -5.2218    -1.4805 H       
  61 H61           12.0986    -5.4816    -0.2361 H       
@<TRIPOS>BOND
   1    1    2 ar
   2    1    6 ar
   3    1   31 1
   4    2    3 ar
   5    2   32 1
   6    3    4 ar
   7    3   33 1
   8    4    5 ar
   9    4    7 1
  10    5    6 ar
  11    5    9 1
  12    6   34 1
  13    7    8 am
  14    7   10 1
  15    8    9 am
  16    8   11 2
  17    9   35 1
  18   10   12 1
  19   10   16 1
  20   10   36 1
  21   12   13 1
  22   12   37 1
  23   12   38 1
  24   13   14 1
  25   13   39 1
  26   13   40 1
  27   14   15 1
  28   14   20 1
  29   15   16 1
  30   15   41 1
  31   15   42 1
  32   16   43 1
  33   16   44 1
  34   17   18 1
  35   17   22 1
  36   17   23 1
  37   18   19 1
  38   18   45 1
  39   18   46 1
  40   19   20 1
  41   19   47 1
  42   19   48 1
  43   20   21 1
  44   21   22 1
  45   21   49 1
  46   21   50 1
  47   22   51 1
  48   22   52 1
  49   23   24 1
  50   23   53 1
  51   23   54 1
  52   24   25 ar
  53   24   29 ar
  54   25   26 ar
  55   25   30 1
  56   26   27 ar
  57   26   55 1
  58   27   28 ar
  59   27   56 1
  60   28   29 ar
  61   28   57 1
  62   29   58 1
  63   30   59 1
  64   30   60 1
  65   30   61 1

#	End of record

