#	Name: ASD01001113
#	Creating user name:	WinNT
#	Creation time:	15. 06. 2019 18:55

#	Modifying user name:	WinNT
#	Modification time:	15. 06. 2019 18:55

#	Program:	/corina/corina34_cracker 3.40 0067  02.08.2006

@<TRIPOS>MOLECULE
ASD01001113
  46   48    0    0    0
SMALL
NO_CHARGES


@<TRIPOS>ATOM
   1 C1            -0.3601     0.9452     0.6620 C.2     
   2 C2            -0.2604    -0.3680     0.4258 C.2     
   3 C3            -1.5554    -0.9960     0.2370 C.2     
   4 C4            -2.6016    -0.1219     0.3391 C.2     
   5 S5            -2.0407     1.4543     0.6541 S.3     
   6 N6            -3.9354    -0.4701     0.1993 N.am    
   7 C7            -4.8934     0.4704     0.3186 C.2     
   8 C8            -1.7247    -2.4262    -0.0366 C.2     
   9 O9            -1.7549    -3.2225     0.8834 O.2     
  10 N10           -1.8468    -2.8594    -1.3070 N.am    
  11 C11           -1.9062    -4.2959    -1.5886 C.3     
  12 C12           -1.9202    -1.8938    -2.4064 C.3     
  13 C13           -3.3634    -4.7613    -1.5603 C.3     
  14 C14           -0.5196    -1.6639    -2.9775 C.3     
  15 C15           -6.3099     0.1007     0.1701 C.2     
  16 O16           -4.5871     1.6248     0.5490 O.2     
  17 C17           -7.3959     1.0462     0.2831 C.2     
  18 C18           -8.5896     0.4907     0.1125 C.2     
  19 S19           -8.4311    -1.2296    -0.1966 S.3     
  20 C20           -6.7310    -1.1658    -0.0935 C.2     
  21 C21            0.8235     1.8638     0.8972 C.3     
  22 C22            2.0500     1.0105     1.2316 C.3     
  23 C23            2.1922    -0.0936     0.1796 C.3     
  24 C24            1.0643    -1.1115     0.3638 C.3     
  25 H25           -4.1797    -1.3906     0.0155 H       
  26 H26           -1.4816    -4.4910    -2.5733 H       
  27 H27           -1.3369    -4.8380    -0.8335 H       
  28 H28           -2.5723    -2.2826    -3.1885 H       
  29 H29           -2.3206    -0.9504    -2.0352 H       
  30 H30           -3.4076    -5.8301    -1.7698 H       
  31 H31           -3.7881    -4.5662    -0.5756 H       
  32 H32           -3.9327    -4.2192    -2.3154 H       
  33 H33           -0.0807    -2.6209    -3.2598 H       
  34 H34           -0.5862    -1.0216    -3.8557 H       
  35 H35            0.1060    -1.1854    -2.2241 H       
  36 H36           -7.2517     2.0971     0.4862 H       
  37 H37           -9.5280     1.0235     0.1579 H       
  38 H38           -6.0769    -2.0165    -0.2154 H       
  39 H39            1.0183     2.4468    -0.0029 H       
  40 H40            0.6066     2.5337     1.7293 H       
  41 H41            2.9423     1.6365     1.2260 H       
  42 H42            1.9242     0.5614     2.2168 H       
  43 H43            2.1299     0.3428    -0.8172 H       
  44 H44            3.1547    -0.5906     0.3011 H       
  45 H45            1.2178    -1.6631     1.2913 H       
  46 H46            1.0557    -1.8036    -0.4782 H       
@<TRIPOS>BOND
   1    1    2 2
   2    1   21 1
   3    1    5 1
   4    2    3 1
   5    2   24 1
   6    3    4 2
   7    3    8 1
   8    4    5 1
   9    4    6 1
  10    6    7 am
  11    6   25 1
  12    7   15 1
  13    7   16 2
  14    8    9 2
  15    8   10 am
  16   10   11 1
  17   10   12 1
  18   11   13 1
  19   11   26 1
  20   11   27 1
  21   12   14 1
  22   12   28 1
  23   12   29 1
  24   13   30 1
  25   13   31 1
  26   13   32 1
  27   14   33 1
  28   14   34 1
  29   14   35 1
  30   15   17 1
  31   15   20 2
  32   17   18 2
  33   17   36 1
  34   18   19 1
  35   18   37 1
  36   19   20 1
  37   20   38 1
  38   21   22 1
  39   21   39 1
  40   21   40 1
  41   22   23 1
  42   22   41 1
  43   22   42 1
  44   23   24 1
  45   23   43 1
  46   23   44 1
  47   24   45 1
  48   24   46 1

#	End of record

