#	Name: ASD01885048
#	Creating user name:	WinNT
#	Creation time:	15. 06. 2019 19:49

#	Modifying user name:	WinNT
#	Modification time:	15. 06. 2019 19:49

#	Program:	/corina/corina34_cracker 3.40 0067  02.08.2006

@<TRIPOS>MOLECULE
ASD01885048
  43   45    0    0    0
SMALL
NO_CHARGES


@<TRIPOS>ATOM
   1 C1            -0.0187     1.5258     0.0104 C.3     
   2 C2             0.0021    -0.0041     0.0020 C.3     
   3 C3            -1.4318    -0.5377     0.0025 C.3     
   4 O4            -2.1452     0.0143     1.1108 O.3     
   5 C5            -3.5026    -0.4224     1.2041 C.3     
   6 F6            -4.1920    -0.0531     0.0441 F       
   7 F7            -3.5362    -1.8141     1.3433 F       
   8 C8             0.7420    -0.5028    -1.2458 C.3     
   9 C9             2.1303     0.1425    -1.2695 C.3     
  10 C10            2.7766     0.0026     0.0841 C.ar    
  11 C11            2.0355    -0.2944     1.2176 C.ar    
  12 O12            0.6920    -0.4810     1.1576 O.3     
  13 N13            2.6315    -0.4068     2.3963 N.ar    
  14 C14            3.9401    -0.2474     2.5460 C.ar    
  15 C15            4.7486     0.0483     1.4554 C.ar    
  16 C16            4.1584     0.1779     0.1947 C.ar    
  17 C17            4.9805     0.4940    -0.9986 C.ar    
  18 C18            5.9320    -0.4168    -1.4531 C.ar    
  19 C19            6.6947    -0.1189    -2.5635 C.ar    
  20 C20            6.5167     1.0841    -3.2279 C.ar    
  21 F21            7.2665     1.3704    -4.3146 F       
  22 C22            5.5723     1.9939    -2.7817 C.ar    
  23 C23            4.7996     1.7027    -1.6736 C.ar    
  24 F24            3.8749     2.5878    -1.2415 F       
  25 C25            4.5460    -0.3868     3.8908 C.2     
  26 N26            3.7687    -0.6740     4.9537 N.am    
  27 O27            5.7439    -0.2423     4.0354 O.2     
  28 H28            1.0039     1.9031     0.0027 H       
  29 H29           -0.5459     1.8868    -0.8726 H       
  30 H30           -0.5289     1.8773     0.9072 H       
  31 H31           -1.9260    -0.2524    -0.9262 H       
  32 H32           -1.4151    -1.6244     0.0861 H       
  33 H33           -3.9747     0.0409     2.0704 H       
  34 H34            0.8414    -1.5875    -1.2052 H       
  35 H35            0.1885    -0.2170    -2.1402 H       
  36 H36            2.7477    -0.3523    -2.0192 H       
  37 H37            2.0350     1.1993    -1.5186 H       
  38 H38            5.8138     0.1764     1.5795 H       
  39 H39            6.0725    -1.3548    -0.9365 H       
  40 H40            7.4325    -0.8247    -2.9155 H       
  41 H41            5.4371     2.9303    -3.3027 H       
  42 H42            2.8125    -0.7894     4.8382 H       
  43 H43            4.1654    -0.7653     5.8341 H       
@<TRIPOS>BOND
   1    1    2 1
   2    1   28 1
   3    1   29 1
   4    1   30 1
   5    2   12 1
   6    2    3 1
   7    2    8 1
   8    3    4 1
   9    3   31 1
  10    3   32 1
  11    4    5 1
  12    5    6 1
  13    5    7 1
  14    5   33 1
  15    8    9 1
  16    8   34 1
  17    8   35 1
  18    9   10 1
  19    9   36 1
  20    9   37 1
  21   10   16 ar
  22   10   11 ar
  23   11   12 1
  24   11   13 ar
  25   13   14 ar
  26   14   15 ar
  27   14   25 1
  28   15   16 ar
  29   15   38 1
  30   16   17 1
  31   17   23 ar
  32   17   18 ar
  33   18   19 ar
  34   18   39 1
  35   19   20 ar
  36   19   40 1
  37   20   21 1
  38   20   22 ar
  39   22   23 ar
  40   22   41 1
  41   23   24 1
  42   25   26 am
  43   25   27 2
  44   26   42 1
  45   26   43 1

#	End of record

