#	Name: ASD02500235
#	Creating user name:	WinNT
#	Creation time:	15. 06. 2019 20:22

#	Modifying user name:	WinNT
#	Modification time:	15. 06. 2019 20:22

#	Program:	/corina/corina34_cracker 3.40 0067  02.08.2006

@<TRIPOS>MOLECULE
ASD02500235
  63   67    0    0    0
SMALL
NO_CHARGES


@<TRIPOS>ATOM
   1 N1            -3.4598     4.9923     0.6274 N.ar    
   2 C2            -4.6899     5.4019     0.8208 C.ar    
   3 C3            -5.4625     4.9284     1.8793 C.ar    
   4 C4            -4.9407     4.0126     2.7478 C.ar    
   5 C5            -3.6196     3.5746     2.5366 C.ar    
   6 C6            -3.0158     2.6355     3.3878 C.ar    
   7 C7            -1.7354     2.2373     3.1501 C.ar    
   8 C8            -1.0157     2.7500     2.0730 C.ar    
   9 C9            -1.5700     3.6617     1.2281 C.ar    
  10 C10           -2.8894     4.0974     1.4404 C.ar    
  11 S11           -0.6369     4.2942    -0.1261 S.o2    
  12 O12           -0.7117     5.7105    -0.0382 O.2     
  13 O13            0.5915     3.5799    -0.1355 O.2     
  14 N14           -1.4357     3.8690    -1.5130 N.am    
  15 C15           -1.6718     2.5281    -1.7961 C.ar    
  16 C16           -2.8964     2.1371    -2.3242 C.ar    
  17 C17           -3.1312     0.8032    -2.6063 C.ar    
  18 C18           -2.1280    -0.1468    -2.3562 C.ar    
  19 C19           -0.9010     0.2626    -1.8245 C.ar    
  20 C20           -0.6777     1.5820    -1.5547 C.ar    
  21 O21           -4.3247     0.4151    -3.1215 O.3     
  22 C22           -5.2966     1.4377    -3.3487 C.3     
  23 C23           -2.3672    -1.5691    -2.6521 C.2     
  24 O24           -3.3314    -2.1360    -2.1742 O.2     
  25 N25           -1.5178    -2.2429    -3.4527 N.am    
  26 C26           -1.7810    -3.6433    -3.8124 C.3     
  27 C27           -1.7899    -3.7632    -5.3414 C.3     
  28 N28           -0.5841    -3.1105    -5.8706 N.am    
  29 C29           -0.3209    -1.7101    -5.5109 C.3     
  30 C30           -0.3150    -1.5886    -3.9864 C.3     
  31 C31            1.3552    -3.0642    -7.3668 C.ar    
  32 C32            2.3180    -3.7835    -8.0769 C.ar    
  33 C33            3.3308    -3.0911    -8.7287 C.ar    
  34 C34            3.3438    -1.7087    -8.6469 C.ar    
  35 C35            2.3548    -1.0604    -7.9234 C.ar    
  36 N36            1.4068    -1.7384    -7.3152 N.ar    
  37 C37            0.2653    -3.7844    -6.6712 C.2     
  38 O38            0.1362    -4.9834    -6.8219 O.2     
  39 F39            2.2659    -5.1325    -8.1291 F       
  40 H40           -5.1157     6.1260     0.1420 H       
  41 H41           -6.4729     5.2856     2.0130 H       
  42 H42           -5.5253     3.6352     3.5738 H       
  43 H43           -3.5634     2.2315     4.2264 H       
  44 H44           -1.2717     1.5148     3.8054 H       
  45 H45           -0.0014     2.4188     1.9060 H       
  46 H46           -1.7389     4.5552    -2.1279 H       
  47 H47           -3.6636     2.8733    -2.5137 H       
  48 H48           -0.1275    -0.4658    -1.6306 H       
  49 H49            0.2730     1.8937    -1.1480 H       
  50 H50           -5.5314     1.9318    -2.4059 H       
  51 H51           -4.8976     2.1684    -4.0522 H       
  52 H52           -6.2022     0.9930    -3.7612 H       
  53 H53           -0.9984    -4.2803    -3.4001 H       
  54 H54           -2.7499    -3.9470    -3.4161 H       
  55 H55           -1.7911    -4.8154    -5.6259 H       
  56 H56           -2.6771    -3.2724    -5.7417 H       
  57 H57            0.6480    -1.4065    -5.9072 H       
  58 H58           -1.1035    -1.0732    -5.9232 H       
  59 H59           -0.3159    -0.5356    -3.7049 H       
  60 H60            0.5744    -2.0759    -3.5868 H       
  61 H61            4.0906    -3.6188    -9.2861 H       
  62 H62            4.1177    -1.1408    -9.1420 H       
  63 H63            2.3635     0.0175    -7.8581 H       
@<TRIPOS>BOND
   1    1    2 ar
   2    1   10 ar
   3    2    3 ar
   4    2   40 1
   5    3    4 ar
   6    3   41 1
   7    4    5 ar
   8    4   42 1
   9    5    6 ar
  10    5   10 ar
  11    6    7 ar
  12    6   43 1
  13    7    8 ar
  14    7   44 1
  15    8    9 ar
  16    8   45 1
  17    9   10 ar
  18    9   11 1
  19   11   12 2
  20   11   13 2
  21   11   14 am
  22   14   15 1
  23   14   46 1
  24   15   16 ar
  25   15   20 ar
  26   16   17 ar
  27   16   47 1
  28   17   18 ar
  29   17   21 1
  30   18   19 ar
  31   18   23 1
  32   19   20 ar
  33   19   48 1
  34   20   49 1
  35   21   22 1
  36   22   50 1
  37   22   51 1
  38   22   52 1
  39   23   24 2
  40   23   25 am
  41   25   26 1
  42   25   30 1
  43   26   27 1
  44   26   53 1
  45   26   54 1
  46   27   28 1
  47   27   55 1
  48   27   56 1
  49   28   29 1
  50   28   37 am
  51   29   30 1
  52   29   57 1
  53   29   58 1
  54   30   59 1
  55   30   60 1
  56   31   32 ar
  57   31   36 ar
  58   31   37 1
  59   32   33 ar
  60   32   39 1
  61   33   34 ar
  62   33   61 1
  63   34   35 ar
  64   34   62 1
  65   35   36 ar
  66   35   63 1
  67   37   38 2

#	End of record

