#	Name: ASD01840474
#	Creating user name:	WinNT
#	Creation time:	15. 06. 2019 19:37

#	Modifying user name:	WinNT
#	Modification time:	15. 06. 2019 19:37

#	Program:	/corina/corina34_cracker 3.40 0067  02.08.2006

@<TRIPOS>MOLECULE
ASD01840474
  50   53    0    0    0
SMALL
NO_CHARGES


@<TRIPOS>ATOM
   1 C1            -0.9124     0.8578     0.3551 C.ar    
   2 C2            -1.0005    -0.4999     0.1425 C.ar    
   3 N3             0.0857    -1.2526     0.1877 N.ar    
   4 N4             1.2491    -0.7726     0.4251 N.ar    
   5 C5             0.3631     1.4081     0.6189 C.ar    
   6 C6             0.7557     2.7809     0.8779 C.2     
   7 C7             1.4533     0.5285     0.6456 C.ar    
   8 S8             2.9332     1.4139     0.9870 S.3     
   9 C9             2.0848     2.9441     1.0927 C.2     
  10 C10           -2.1385     1.7324     0.3020 C.3     
  11 C11           -2.3395    -1.1301    -0.1422 C.3     
  12 N12           -0.1488     3.8338     0.9030 N.pl3   
  13 C13            2.7258     4.2277     1.3745 C.2     
  14 O14            2.0567     5.2433     1.4288 O.2     
  15 N15            4.0574     4.2865     1.5742 N.am    
  16 C16            4.6996     5.5726     1.8566 C.3     
  17 C17            4.6522     5.8746     3.3686 C.3     
  18 C18            6.1300     5.9689     3.8053 C.3     
  19 N19            6.8661     6.3170     2.5627 N.3     
  20 C20            6.2020     5.5099     1.5070 C.3     
  21 C21            8.2180     5.9834     2.6717 C.ar    
  22 C22            8.6002     4.6520     2.7789 C.ar    
  23 C23            9.9376     4.3257     2.8860 C.ar    
  24 C24           10.8963     5.3226     2.8871 C.ar    
  25 C25           10.5194     6.6486     2.7807 C.ar    
  26 C26            9.1837     6.9816     2.6675 C.ar    
  27 C27            8.7743     8.4268     2.5452 C.3     
  28 F28            9.9168     9.2294     2.4579 F       
  29 F29            7.9968     8.5955     1.3945 F       
  30 F30            8.0292     8.7971     3.6699 F       
  31 H31           -2.5161     1.8904     1.3123 H       
  32 H32           -1.8805     2.6931    -0.1437 H       
  33 H33           -2.9056     1.2464    -0.3008 H       
  34 H34           -2.5181    -1.1338    -1.2174 H       
  35 H35           -2.3456    -2.1544     0.2307 H       
  36 H36           -3.1232    -0.5581     0.3544 H       
  37 H37           -1.0926     3.6660     0.7544 H       
  38 H38            0.1629     4.7372     1.0692 H       
  39 H39            4.5905     3.4773     1.5310 H       
  40 H40            4.2118     6.3698     1.2958 H       
  41 H41            4.1427     6.8209     3.5499 H       
  42 H42            4.1511     5.0659     3.9007 H       
  43 H43            6.2560     6.7514     4.5536 H       
  44 H44            6.4732     5.0105     4.1947 H       
  45 H45            6.5566     4.4796     1.5366 H       
  46 H46            6.3823     5.9467     0.5247 H       
  47 H47            7.8520     3.8731     2.7787 H       
  48 H48           10.2353     3.2909     2.9693 H       
  49 H49           11.9416     5.0647     2.9718 H       
  50 H50           11.2706     7.4246     2.7819 H       
@<TRIPOS>BOND
   1    1    2 ar
   2    1    5 ar
   3    1   10 1
   4    2   11 1
   5    2    3 ar
   6    3    4 ar
   7    4    7 ar
   8    5    7 ar
   9    5    6 1
  10    6    9 2
  11    6   12 1
  12    7    8 1
  13    8    9 1
  14    9   13 1
  15   10   31 1
  16   10   32 1
  17   10   33 1
  18   11   34 1
  19   11   35 1
  20   11   36 1
  21   12   37 1
  22   12   38 1
  23   13   14 2
  24   13   15 am
  25   15   16 1
  26   15   39 1
  27   16   17 1
  28   16   20 1
  29   16   40 1
  30   17   18 1
  31   17   41 1
  32   17   42 1
  33   18   19 1
  34   18   43 1
  35   18   44 1
  36   19   20 1
  37   19   21 1
  38   20   45 1
  39   20   46 1
  40   21   22 ar
  41   21   26 ar
  42   22   23 ar
  43   22   47 1
  44   23   24 ar
  45   23   48 1
  46   24   25 ar
  47   24   49 1
  48   25   26 ar
  49   25   50 1
  50   26   27 1
  51   27   28 1
  52   27   29 1
  53   27   30 1

#	End of record

