#	Name: ASD03731206
#	Creating user name:	WinNT
#	Creation time:	15. 06. 2019 20:45

#	Modifying user name:	WinNT
#	Modification time:	15. 06. 2019 20:45

#	Program:	/corina/corina34_cracker 3.40 0067  02.08.2006

@<TRIPOS>MOLECULE
ASD03731206
  63   69    0    0    0
SMALL
NO_CHARGES


@<TRIPOS>ATOM
   1 C1            -0.0183     1.4732     0.0188 C.2     
   2 C2             0.0010    -0.0045    -0.0105 C.ar    
   3 C3             1.2172    -0.6897    -0.0169 C.ar    
   4 C4             1.2282    -2.0689    -0.0444 C.ar    
   5 C5             0.0373    -2.7730    -0.0656 C.ar    
   6 C6            -1.1716    -2.1000    -0.0599 C.ar    
   7 C7            -1.1968    -0.7211    -0.0262 C.ar    
   8 O8             1.0264     2.0946     0.0375 O.2     
   9 N9            -1.1942     2.1319     0.0193 N.am    
  10 C10            0.0570    -4.2796    -0.0956 C.3     
  11 O11           -2.1569    -1.6232     6.2079 O.3     
  12 C12           -2.4066    -1.7287     7.6219 C.3     
  13 O13           -2.9084    -3.0687     7.7818 O.3     
  14 C14           -2.3673    -3.7870     6.7542 C.ar    
  15 C15           -1.9062    -2.8976     5.7862 C.ar    
  16 C16           -2.2275    -5.1500     6.5637 C.ar    
  17 C17           -1.6295    -5.6428     5.4078 C.ar    
  18 C18           -1.1804    -4.7447     4.4443 C.ar    
  19 C19           -1.3127    -3.3850     4.6340 C.ar    
  20 O20           -1.3817    -6.9314     5.0358 O.3     
  21 C21           -0.6173    -5.5699     3.3183 C.3     
  22 C22           -1.1479    -6.9791     3.6150 C.3     
  23 N23            0.0551    -4.7953     1.2756 N.am    
  24 C24           -1.0642    -5.0752     1.9728 C.2     
  25 C25            0.8816    -5.5333     3.2778 C.ar    
  26 C26            1.8661    -5.8585     4.1841 C.ar    
  27 C27            3.1986    -5.7127     3.8419 C.ar    
  28 C28            3.5393    -5.2391     2.5879 C.ar    
  29 C29            2.5570    -4.9112     1.6770 C.ar    
  30 C30            1.2130    -5.0551     2.0127 C.ar    
  31 O31           -2.2079    -4.9520     1.5884 O.2     
  32 C32           -1.2149     3.5276     0.1327 C.ar    
  33 C33           -2.3342     4.1692     0.6596 C.ar    
  34 C34           -2.3491     5.5498     0.7692 C.ar    
  35 C35           -1.2551     6.2884     0.3565 C.ar    
  36 C36           -0.1447     5.6527    -0.1666 C.ar    
  37 C37           -0.1193     4.2747    -0.2738 C.ar    
  38 O38           -3.4092     3.4418     1.0645 O.3     
  39 C39           -4.5208     4.1668     1.5944 C.3     
  40 H40            2.1474    -0.1412    -0.0007 H       
  41 H41            2.1684    -2.6002    -0.0497 H       
  42 H42           -2.0976    -2.6555    -0.0773 H       
  43 H43           -2.1411    -0.1971    -0.0166 H       
  44 H44           -2.0261     1.6392    -0.0589 H       
  45 H45           -0.8250    -4.6441    -0.6221 H       
  46 H46            0.9548    -4.6210    -0.6109 H       
  47 H47           -1.4828    -1.5960     8.1849 H       
  48 H48           -3.1546    -0.9999     7.9341 H       
  49 H49           -2.5850    -5.8363     7.3171 H       
  50 H50           -0.9527    -2.6987     3.8818 H       
  51 H51           -0.4002    -7.7336     3.3709 H       
  52 H52           -2.0769    -7.1645     3.0759 H       
  53 H53            1.5977    -6.2279     5.1628 H       
  54 H54            3.9710    -5.9685     4.5521 H       
  55 H55            4.5796    -5.1253     2.3208 H       
  56 H56            2.8309    -4.5415     0.6999 H       
  57 H57           -3.2153     6.0498     1.1768 H       
  58 H58           -1.2686     7.3649     0.4428 H       
  59 H59            0.7071     6.2337    -0.4879 H       
  60 H60            0.7515     3.7803    -0.6784 H       
  61 H61           -4.2021     4.7311     2.4708 H       
  62 H62           -4.9003     4.8539     0.8381 H       
  63 H63           -5.3080     3.4684     1.8785 H       
@<TRIPOS>BOND
   1    1    2 1
   2    1    8 2
   3    1    9 am
   4    2    3 ar
   5    2    7 ar
   6    3    4 ar
   7    3   40 1
   8    4    5 ar
   9    4   41 1
  10    5    6 ar
  11    5   10 1
  12    6    7 ar
  13    6   42 1
  14    7   43 1
  15    9   32 1
  16    9   44 1
  17   10   23 1
  18   10   45 1
  19   10   46 1
  20   11   12 1
  21   11   15 1
  22   12   13 1
  23   12   47 1
  24   12   48 1
  25   13   14 1
  26   14   15 ar
  27   14   16 ar
  28   15   19 ar
  29   16   17 ar
  30   16   49 1
  31   17   18 ar
  32   17   20 1
  33   18   19 ar
  34   18   21 1
  35   19   50 1
  36   20   22 1
  37   21   22 1
  38   21   24 1
  39   21   25 1
  40   22   51 1
  41   22   52 1
  42   23   24 am
  43   23   30 1
  44   24   31 2
  45   25   26 ar
  46   25   30 ar
  47   26   27 ar
  48   26   53 1
  49   27   28 ar
  50   27   54 1
  51   28   29 ar
  52   28   55 1
  53   29   30 ar
  54   29   56 1
  55   32   33 ar
  56   32   37 ar
  57   33   34 ar
  58   33   38 1
  59   34   35 ar
  60   34   57 1
  61   35   36 ar
  62   35   58 1
  63   36   37 ar
  64   36   59 1
  65   37   60 1
  66   38   39 1
  67   39   61 1
  68   39   62 1
  69   39   63 1

#	End of record

