#	Name: ASD01816201
#	Creating user name:	WinNT
#	Creation time:	15. 06. 2019 19:34

#	Modifying user name:	WinNT
#	Modification time:	15. 06. 2019 19:34

#	Program:	/corina/corina34_cracker 3.40 0067  02.08.2006

@<TRIPOS>MOLECULE
ASD01816201
  53   57    0    0    0
SMALL
NO_CHARGES


@<TRIPOS>ATOM
   1 C1            -0.3990     0.9375     0.3114 C.ar    
   2 C2            -0.2206    -0.4361     0.2821 C.ar    
   3 C3             1.0431    -0.9788     0.1742 C.ar    
   4 C4             2.1540    -0.1466     0.0940 C.ar    
   5 C5             1.9697     1.2458     0.1239 C.ar    
   6 C6             0.6904     1.7809     0.2325 C.ar    
   7 N7             3.4247    -0.6848    -0.0135 N.pl3   
   8 C8             4.5333     0.0685    -0.0943 C.2     
   9 C9             4.4773     1.4399    -0.0754 C.2     
  10 C10            3.1620     2.1105     0.0375 C.2     
  11 C11            5.4526     2.5238    -0.1425 C.2     
  12 N12            4.7446     3.6718    -0.0739 N.am    
  13 N13            3.3795     3.3943     0.0332 N.2     
  14 C14            5.2997     4.9574    -0.1051 C.ar    
  15 C15            5.0234     5.8610     0.9154 C.ar    
  16 C16            6.1317     5.3310    -1.1520 C.ar    
  17 C17            6.6777     6.5994    -1.1801 C.ar    
  18 C18            6.3974     7.4981    -0.1670 C.ar    
  19 C19            5.5737     7.1294     0.8805 C.ar    
  20 F20            4.2185     5.5005     1.9389 F       
  21 O21            6.6641     2.4147    -0.2402 O.2     
  22 C22            3.5666    -2.1426    -0.0397 C.3     
  23 C23            3.4264    -2.6356    -1.4569 C.ar    
  24 C24            3.4803    -4.0036    -1.7304 C.ar    
  25 C25            3.3490    -4.4518    -3.0464 C.ar    
  26 C26            3.1670    -3.5416    -4.0666 C.ar    
  27 C27            3.1145    -2.1870    -3.7884 C.ar    
  28 C28            3.2386    -1.7364    -2.4863 C.ar    
  29 C29            3.6760    -4.9725    -0.6326 C.2     
  30 O30            3.8857    -4.5769     0.4965 O.2     
  31 O31            3.6218    -6.2949    -0.8838 O.3     
  32 C32            3.7269    -8.6394    -0.2337 C.3     
  33 C33            3.8232    -7.1887     0.2427 C.3     
  34 H34           -1.3941     1.3496     0.3917 H       
  35 H35           -1.0792    -1.0883     0.3447 H       
  36 H36            1.1696    -2.0512     0.1524 H       
  37 H37            0.5503     2.8515     0.2558 H       
  38 H38            5.4944    -0.4175    -0.1761 H       
  39 H39            6.3521     4.6301    -1.9435 H       
  40 H40            7.3249     6.8898    -1.9945 H       
  41 H41            6.8266     8.4889    -0.1918 H       
  42 H42            5.3566     7.8337     1.6699 H       
  43 H43            4.5480    -2.4192     0.3457 H       
  44 H44            2.7922    -2.5943     0.5804 H       
  45 H45            3.3902    -5.5086    -3.2649 H       
  46 H46            3.0657    -3.8868    -5.0849 H       
  47 H47            2.9721    -1.4785    -4.5911 H       
  48 H48            3.1967    -0.6779    -2.2761 H       
  49 H49            4.4923    -8.8260    -0.9870 H       
  50 H50            3.8781    -9.3103     0.6119 H       
  51 H51            2.7417    -8.8154    -0.6655 H       
  52 H52            4.8084    -7.0127     0.6745 H       
  53 H53            3.0578    -7.0020     0.9959 H       
@<TRIPOS>BOND
   1    1    2 ar
   2    1    6 ar
   3    1   34 1
   4    2    3 ar
   5    2   35 1
   6    3    4 ar
   7    3   36 1
   8    4    5 ar
   9    4    7 1
  10    5    6 ar
  11    5   10 1
  12    6   37 1
  13    7    8 1
  14    7   22 1
  15    8    9 2
  16    8   38 1
  17    9   10 1
  18    9   11 1
  19   10   13 2
  20   11   12 am
  21   11   21 2
  22   12   13 1
  23   12   14 1
  24   14   15 ar
  25   14   16 ar
  26   15   20 1
  27   15   19 ar
  28   16   17 ar
  29   16   39 1
  30   17   18 ar
  31   17   40 1
  32   18   19 ar
  33   18   41 1
  34   19   42 1
  35   22   23 1
  36   22   43 1
  37   22   44 1
  38   23   24 ar
  39   23   28 ar
  40   24   25 ar
  41   24   29 1
  42   25   26 ar
  43   25   45 1
  44   26   27 ar
  45   26   46 1
  46   27   28 ar
  47   27   47 1
  48   28   48 1
  49   29   30 2
  50   29   31 1
  51   31   33 1
  52   32   33 1
  53   32   49 1
  54   32   50 1
  55   32   51 1
  56   33   52 1
  57   33   53 1

#	End of record

