#	Name: ASD08070455
#	Creating user name:	WinNT
#	Creation time:	15. 06. 2019 21:14

#	Modifying user name:	WinNT
#	Modification time:	15. 06. 2019 21:14

#	Program:	/corina/corina34_cracker 3.40 0067  02.08.2006

@<TRIPOS>MOLECULE
ASD08070455
  40   41    0    0    0
SMALL
NO_CHARGES


@<TRIPOS>ATOM
   1 O1            -0.0162     1.3453     0.0094 O.3     
   2 C2             0.0021    -0.0041     0.0020 C.2     
   3 C3             1.2863    -0.4454    -0.0126 C.2     
   4 C4             2.1262     0.7519    -0.0142 C.ar    
   5 C5             1.2359     1.8422     0.0002 C.ar    
   6 C6             3.5050     0.9740    -0.0255 C.ar    
   7 C7             3.9850     2.2535    -0.0226 C.ar    
   8 C8             3.1117     3.3322    -0.0084 C.ar    
   9 C9             1.7477     3.1344     0.0031 C.ar    
  10 C10           -1.1884    -0.8661     0.0092 C.2     
  11 O11           -1.0632    -2.0761     0.0019 O.2     
  12 N12           -2.4187    -0.3159     0.0239 N.am    
  13 C13            5.4725     2.4949    -0.0343 C.3     
  14 C14           -2.7987    -2.4518     2.0215 C.3     
  15 C15           -3.9307    -1.5832     1.4693 C.3     
  16 C16           -3.6052    -1.1751     0.0311 C.3     
  17 C17           -4.7909    -0.4122    -0.5633 C.3     
  18 C18           -4.5168    -0.1128    -2.0385 C.3     
  19 C19           -5.7025     0.6500    -2.6328 C.3     
  20 H20            1.6199    -1.4726    -0.0210 H       
  21 H21            4.1889     0.1382    -0.0362 H       
  22 H22            3.5054     4.3379    -0.0059 H       
  23 H23            1.0780     3.9816     0.0137 H       
  24 H24           -2.5184     0.6489     0.0297 H       
  25 H25            5.8221     2.5589    -1.0647 H       
  26 H26            5.6931     3.4287     0.4829 H       
  27 H27            5.9781     1.6717     0.4705 H       
  28 H28           -3.0305    -2.7426     3.0461 H       
  29 H29           -2.6924    -3.3448     1.4056 H       
  30 H30           -1.8666    -1.8869     2.0062 H       
  31 H31           -4.8627    -2.1482     1.4845 H       
  32 H32           -4.0370    -0.6902     2.0851 H       
  33 H33           -3.4116    -2.0670    -0.5648 H       
  34 H34           -5.6928    -1.0181    -0.4770 H       
  35 H35           -4.9288     0.5238    -0.0221 H       
  36 H36           -3.6149     0.4931    -2.1248 H       
  37 H37           -4.3789    -1.0489    -2.5797 H       
  38 H38           -6.6044     0.0442    -2.5465 H       
  39 H39           -5.8404     1.5861    -2.0917 H       
  40 H40           -5.5072     0.8633    -3.6838 H       
@<TRIPOS>BOND
   1    1    2 1
   2    1    5 1
   3    2    3 2
   4    2   10 1
   5    3    4 1
   6    3   20 1
   7    4    5 ar
   8    4    6 ar
   9    5    9 ar
  10    6    7 ar
  11    6   21 1
  12    7    8 ar
  13    7   13 1
  14    8    9 ar
  15    8   22 1
  16    9   23 1
  17   10   11 2
  18   10   12 am
  19   12   16 1
  20   12   24 1
  21   13   25 1
  22   13   26 1
  23   13   27 1
  24   14   15 1
  25   14   28 1
  26   14   29 1
  27   14   30 1
  28   15   16 1
  29   15   31 1
  30   15   32 1
  31   16   17 1
  32   16   33 1
  33   17   18 1
  34   17   34 1
  35   17   35 1
  36   18   19 1
  37   18   36 1
  38   18   37 1
  39   19   38 1
  40   19   39 1
  41   19   40 1

#	End of record

