#	Name: ASD04820001
#	Creating user name:	WinNT
#	Creation time:	15. 06. 2019 20:52

#	Modifying user name:	WinNT
#	Modification time:	15. 06. 2019 20:52

#	Program:	/corina/corina34_cracker 3.40 0067  02.08.2006

@<TRIPOS>MOLECULE
ASD04820001
  41   43    0    0    0
SMALL
NO_CHARGES


@<TRIPOS>ATOM
   1 Cl1           12.1801     6.8633     0.8799 Cl      
   2 Cl2           12.5692     6.0878    -2.1148 Cl      
   3 C3             5.9937    -2.9915     2.5659 C.ar    
   4 C4             5.0525    -2.1312     3.0993 C.ar    
   5 C5             4.2703    -1.3574     2.2621 C.ar    
   6 N6             3.2620    -0.4364     2.8333 N.pl3   
   7 O7             3.0516    -0.4320     4.0330 O.2     
   8 O8             2.6428     0.3169     2.1036 O.2     
   9 C9             4.4301    -1.4434     0.8920 C.ar    
  10 C10            3.5778    -0.5995    -0.0205 C.3     
  11 C11            4.0030    -0.8182    -1.4496 C.2     
  12 N12            4.9597    -0.0954    -1.9633 N.2     
  13 N13            5.6798     0.7918    -1.1527 N.pl3   
  14 C14            6.7594     1.4869    -1.6747 C.2     
  15 N15            7.4957     2.3306    -1.0195 N.2     
  16 C16            8.4894     2.9031    -1.6822 C.2     
  17 C17            9.4036     3.8843    -1.0484 C.ar    
  18 C18            9.2338     4.2348     0.2897 C.ar    
  19 C19           10.0871     5.1479     0.8756 C.ar    
  20 C20           11.1104     5.7156     0.1369 C.ar    
  21 C21           11.2837     5.3712    -1.1942 C.ar    
  22 C22           10.4387     4.4544    -1.7876 C.ar    
  23 C23            8.6127     2.5329    -2.9704 C.2     
  24 S24            7.3502     1.3568    -3.3286 S.3     
  25 C25            3.3630    -1.8100    -2.2361 C.2     
  26 O26            2.4094    -2.4189    -1.7893 O.2     
  27 O27            3.8120    -2.0782    -3.4800 O.3     
  28 C28            5.3722    -2.3033     0.3585 C.ar    
  29 C29            6.1529    -3.0782     1.1953 C.ar    
  30 H30            6.6078    -3.5927     3.2200 H       
  31 H31            4.9279    -2.0637     4.1699 H       
  32 H32            2.5316    -0.8828     0.0947 H       
  33 H33            3.7000     0.4523     0.2381 H       
  34 H34            5.4228     0.9196    -0.2261 H       
  35 H35            8.4354     3.7928     0.8674 H       
  36 H36            9.9557     5.4200     1.9125 H       
  37 H37           10.5769     4.1829    -2.8238 H       
  38 H38            9.3592     2.8915    -3.6637 H       
  39 H39            3.3129    -2.7682    -3.9381 H       
  40 H40            5.4973    -2.3702    -0.7121 H       
  41 H41            6.8885    -3.7502     0.7785 H       
@<TRIPOS>BOND
   1    1   20 1
   2    2   21 1
   3    3    4 ar
   4    3   29 ar
   5    3   30 1
   6    4    5 ar
   7    4   31 1
   8    5    6 1
   9    5    9 ar
  10    6    7 2
  11    6    8 2
  12    9   10 1
  13    9   28 ar
  14   10   11 1
  15   10   32 1
  16   10   33 1
  17   11   12 2
  18   11   25 1
  19   12   13 1
  20   13   14 1
  21   13   34 1
  22   14   15 2
  23   14   24 1
  24   15   16 1
  25   16   17 1
  26   16   23 2
  27   17   18 ar
  28   17   22 ar
  29   18   19 ar
  30   18   35 1
  31   19   20 ar
  32   19   36 1
  33   20   21 ar
  34   21   22 ar
  35   22   37 1
  36   23   24 1
  37   23   38 1
  38   25   26 2
  39   25   27 1
  40   27   39 1
  41   28   29 ar
  42   28   40 1
  43   29   41 1

#	End of record

