#	Name: ASD02120017
#	Creating user name:	WinNT
#	Creation time:	15. 06. 2019 20:18

#	Modifying user name:	WinNT
#	Modification time:	15. 06. 2019 20:18

#	Program:	/corina/corina34_cracker 3.40 0067  02.08.2006

@<TRIPOS>MOLECULE
ASD02120017
 199  204    0    0    0
SMALL
NO_CHARGES


@<TRIPOS>ATOM
   1 C1             5.9922     3.0285    -4.0363 C.3     
   2 C2             4.8746     2.0399    -4.2482 C.2     
   3 C3             7.0522     2.4117    -3.1215 C.3     
   4 C4             5.4348     4.2972    -3.3878 C.3     
   5 C5             7.0412     3.1308    -1.7711 C.3     
   6 C6             8.3963     2.9479    -1.0848 C.3     
   7 C7             8.1797     2.4671     0.3515 C.3     
   8 C8             9.5228     2.4247     1.0831 C.3     
   9 C9             9.9043     0.9700     1.3647 C.3     
  10 C10           10.3505     0.8363     2.7979 C.2     
  11 C11           10.7747    -0.3189     3.2469 C.2     
  12 C12           10.8160    -1.5145     2.3304 C.3     
  13 O13            4.4072     1.4276    -3.3115 O.2     
  14 C14            3.3874    -6.2971    -5.9068 C.3     
  15 C15            4.4926    -7.3188    -5.8347 C.2     
  16 O16            5.2018    -7.5253    -6.7966 O.2     
  17 C17           10.6229    -5.2613     2.9171 C.3     
  18 C18            9.5871    -6.0171     3.7089 C.2     
  19 O19            8.4776    -5.5503     3.8573 O.2     
  20 C20           10.0684    -3.8907     2.5236 C.3     
  21 C21           11.8846    -5.0806     3.7635 C.3     
  22 C22           10.9199    -2.7930     3.1646 C.3     
  23 C23            2.9464    -5.9179    -4.4916 C.3     
  24 C24            4.0936    -5.2627    -3.7666 C.2     
  25 C25            5.2792    -5.8219    -3.4774 C.2     
  26 N26            6.0686    -4.9238    -2.8121 N.pl3   
  27 C27            5.3931    -3.7347    -2.6530 C.ar    
  28 C28            4.1289    -3.8926    -3.2494 C.ar    
  29 C29            5.7212    -2.5181    -2.0632 C.ar    
  30 C30            4.8063    -1.4884    -2.0643 C.ar    
  31 C31            3.5575    -1.6513    -2.6487 C.ar    
  32 C32            3.2172    -2.8351    -3.2400 C.ar    
  33 C33            9.7830     6.2080    -5.7678 C.2     
  34 C34           10.4437     7.5559    -5.6341 C.3     
  35 O35           10.1907     5.2661    -5.1218 O.2     
  36 N36            7.2875   -10.0411    -3.0127 N.am    
  37 C37            7.8197   -10.0581    -1.6355 C.3     
  38 C38            8.9297    -9.0838    -1.3615 C.2     
  39 C39            6.8305   -10.3536    -0.5090 C.3     
  40 C40            7.8587   -11.4092    -0.9217 C.3     
  41 O41            9.5205    -8.5558    -2.2796 O.2     
  42 C42            2.1450     1.4874    -6.4300 C.3     
  43 C43            3.2993     0.8640    -5.6426 C.3     
  44 C44            3.8169    -0.3459    -6.3772 C.2     
  45 N45            4.3973     1.8459    -5.5112 N.am    
  46 O46            4.8354    -0.2787    -7.0322 O.2     
  47 C47            5.2064    -2.6033    -7.0148 C.3     
  48 C48            3.6778    -2.6681    -7.0319 C.3     
  49 C49            3.2184    -3.9373    -6.3619 C.2     
  50 N50            3.1254    -1.5147    -6.2947 N.am    
  51 O51            2.2620    -3.9280    -5.6162 O.2     
  52 C52            5.7616    -3.5746    -8.0244 C.ar    
  53 C53            5.7224    -3.2672    -9.3719 C.ar    
  54 C54            6.2308    -4.1558   -10.2994 C.ar    
  55 C55            6.7810    -5.3576    -9.8778 C.ar    
  56 C56            6.8191    -5.6637    -8.5252 C.ar    
  57 C57            6.3146    -4.7692    -7.6013 C.ar    
  58 O58            7.2813    -6.2337   -10.7883 O.3     
  59 N59            3.8937    -5.0966    -6.6067 N.am    
  60 C60            9.1224     3.7148    -7.2250 C.3     
  61 C61            8.0968     4.7392    -6.7354 C.3     
  62 C62            7.5573     4.3090    -5.3957 C.2     
  63 N63            8.7391     6.0494    -6.6054 N.am    
  64 O64            7.9868     4.8120    -4.3791 O.2     
  65 C65            9.5710     4.0788    -8.6168 C.ar    
  66 C66           10.6601     4.9109    -8.7966 C.ar    
  67 C67           11.0716     5.2449   -10.0733 C.ar    
  68 C68           10.3942     4.7463   -11.1703 C.ar    
  69 C69            9.3057     3.9134   -10.9906 C.ar    
  70 C70            8.8969     3.5760    -9.7139 C.ar    
  71 N71            6.5974     3.3654    -5.3272 N.am    
  72 C72            7.9516    -8.6982     4.2596 C.3     
  73 C73            8.9279    -7.8921     5.1186 C.3     
  74 C74            9.6589    -8.8206     6.0538 C.2     
  75 N75            9.8938    -7.2118     4.2522 N.am    
  76 O76           10.8676    -8.9057     6.0018 O.2     
  77 C77           10.1529    -9.6779     9.0849 C.3     
  78 C78            9.6800   -10.4590     7.8572 C.3     
  79 C79            8.7539   -11.5655     8.2920 C.2     
  80 N80            8.9694    -9.5564     6.9481 N.am    
  81 O81            7.6126   -11.5970     7.8827 O.2     
  82 N82            9.1938   -12.5200     9.1357 N.am    
  83 C83            6.8618    -8.5780    -5.6578 C.3     
  84 C84            5.7741    -9.0021    -4.6689 C.3     
  85 C85            6.3566    -9.0795    -3.2811 C.2     
  86 N86            4.6843    -8.0072    -4.6767 N.am    
  87 O87            6.0045    -8.3025    -2.4190 O.2     
  88 C88            7.3114    -7.1505    -5.3402 C.3     
  89 C89            8.4446    -6.7653    -6.2559 C.2     
  90 O90            8.8510    -7.5518    -7.0781 O.2     
  91 O91            9.0026    -5.5484    -6.1580 O.3     
  92 C92           10.4653    -6.9075    -1.0875 C.3     
  93 C93           10.3724    -7.8390     0.1227 C.3     
  94 C94           10.1001    -7.0284     1.3635 C.2     
  95 N95            9.2679    -8.7977    -0.0752 N.am    
  96 O96            9.1405    -7.2749     2.0631 O.2     
  97 C97            9.2236    -6.0152    -1.1408 C.3     
  98 C98            9.3304    -5.0634    -2.3339 C.3     
  99 C99            7.9754    -6.8868    -1.2937 C.3     
 100 N100          10.9512    -6.0122     1.6861 N.am    
 101 H101           6.8326     1.3546    -2.9721 H       
 102 H102           8.0349     2.5172    -3.5813 H       
 103 H103           4.9256     4.0373    -2.4597 H       
 104 H104           6.2526     4.9850    -3.1732 H       
 105 H105           4.7289     4.7731    -4.0685 H       
 106 H106           6.8532     4.1931    -1.9267 H       
 107 H107           6.2559     2.7111    -1.1424 H       
 108 H108           8.9832     2.2092    -1.6306 H       
 109 H109           8.9290     3.8987    -1.0732 H       
 110 H110           7.5069     3.1527     0.8666 H       
 111 H111           7.7414     1.4691     0.3384 H       
 112 H112          10.2896     2.8877     0.4620 H       
 113 H113           9.4410     2.9677     2.0246 H       
 114 H114           9.0408     0.3278     1.1916 H       
 115 H115          10.7170     0.6727     0.7019 H       
 116 H116          10.3209     1.6930     3.4548 H       
 117 H117          11.0946    -0.4147     4.2740 H       
 118 H118           9.9060    -1.5446     1.7312 H       
 119 H119          11.6819    -1.4385     1.6727 H       
 120 H120           2.5422    -6.7112    -6.4565 H       
 121 H121          10.0960    -3.7853     1.4391 H       
 122 H122           9.0391    -3.8017     2.8712 H       
 123 H123          12.3017    -6.0577     4.0071 H       
 124 H124          12.6185    -4.5018     3.2027 H       
 125 H125          11.6324    -4.5536     4.6836 H       
 126 H126          11.9598    -3.1169     3.2051 H       
 127 H127          10.5605    -2.5978     4.1749 H       
 128 H128           2.1074    -5.2243    -4.5461 H       
 129 H129           2.6416    -6.8153    -3.9534 H       
 130 H130           5.5671    -6.8313    -3.7316 H       
 131 H131           6.9698    -5.0990    -2.4989 H       
 132 H132           6.6900    -2.3817    -1.6057 H       
 133 H133           5.0628    -0.5449    -1.6055 H       
 134 H134           2.8516    -0.8341    -2.6406 H       
 135 H135           2.2439    -2.9546    -3.6927 H       
 136 H136          11.2502     7.6391    -6.3626 H       
 137 H137           9.7087     8.3403    -5.8144 H       
 138 H138          10.8502     7.6631    -4.6284 H       
 139 H139           7.5825   -10.6739    -3.6861 H       
 140 H140           6.9850    -9.8454     0.4428 H       
 141 H141           5.7907   -10.5286    -0.7853 H       
 142 H142           7.4955   -12.2787    -1.4696 H       
 143 H143           8.6898   -11.5954    -0.2415 H       
 144 H144           1.3423     0.7578    -6.5370 H       
 145 H145           1.7722     2.3621    -5.8970 H       
 146 H146           2.4982     1.7865    -7.4168 H       
 147 H147           2.9502     0.5714    -4.6523 H       
 148 H148           4.7563     2.3223    -6.2762 H       
 149 H149           5.5301    -1.5933    -7.2661 H       
 150 H150           5.5700    -2.8647    -6.0210 H       
 151 H151           3.3228    -2.6472    -8.0623 H       
 152 H152           2.3088    -1.5867    -5.7762 H       
 153 H153           5.2937    -2.3316    -9.6996 H       
 154 H154           6.1997    -3.9154   -11.3518 H       
 155 H155           7.2469    -6.5986    -8.1945 H       
 156 H156           6.3480    -5.0050    -6.5479 H       
 157 H157           8.2184    -6.1018   -10.9872 H       
 158 H158           4.6585    -5.1316    -7.2024 H       
 159 H159           9.9822     3.7128    -6.5550 H       
 160 H160           8.6689     2.7237    -7.2370 H       
 161 H161           7.2785     4.8052    -7.4525 H       
 162 H162           8.4130     6.8028    -7.1221 H       
 163 H163          11.1893     5.3005    -7.9395 H       
 164 H164          11.9220     5.8956   -10.2137 H       
 165 H165          10.7152     5.0077   -12.1678 H       
 166 H166           8.7763     3.5241   -11.8477 H       
 167 H167           8.0487     2.9222    -9.5736 H       
 168 H168           6.3074     2.9093    -6.1326 H       
 169 H169           7.2330    -9.2043     4.9042 H       
 170 H170           7.4229    -8.0266     3.5831 H       
 171 H171           8.5033    -9.4379     3.6795 H       
 172 H172           8.3762    -7.1524     5.6987 H       
 173 H173          10.7540    -7.6212     4.0696 H       
 174 H174          10.6816   -10.3494     9.7613 H       
 175 H175          10.8228    -8.8776     8.7704 H       
 176 H176           9.2913    -9.2501     9.5975 H       
 177 H177          10.5416   -10.8867     7.3446 H       
 178 H178           8.0027    -9.4883     6.9897 H       
 179 H179          10.1066   -12.4948     9.4630 H       
 180 H180           8.5977   -13.2322     9.4155 H       
 181 H181           7.7127    -9.2541    -5.5740 H       
 182 H182           6.4655    -8.6169    -6.6725 H       
 183 H183           5.3798    -9.9774    -4.9540 H       
 184 H184           4.1319    -7.8513    -3.8947 H       
 185 H185           6.4765    -6.4654    -5.4874 H       
 186 H186           7.6469    -7.0972    -4.3045 H       
 187 H187           9.7265    -5.3471    -6.7668 H       
 188 H188          11.3562    -6.2856    -0.9998 H       
 189 H189          10.5252    -7.5016    -1.9995 H       
 190 H190          11.3102    -8.3820     0.2401 H       
 191 H191           8.8056    -9.2034     0.6748 H       
 192 H192           9.1522    -5.4367    -0.2197 H       
 193 H193           9.4018    -5.6419    -3.2549 H       
 194 H194           8.4458    -4.4277    -2.3718 H       
 195 H195          10.2196    -4.4425    -2.2250 H       
 196 H196           7.9145    -7.5840    -0.4581 H       
 197 H197           7.0887    -6.2529    -1.3034 H       
 198 H198           8.0338    -7.4442    -2.2286 H       
 199 H199          11.7240    -5.7954     1.1414 H       
@<TRIPOS>BOND
   1    1    2 1
   2    1    3 1
   3    1    4 1
   4    1   71 1
   5    2   13 2
   6    2   45 am
   7    3    5 1
   8    3  101 1
   9    3  102 1
  10    4  103 1
  11    4  104 1
  12    4  105 1
  13    5    6 1
  14    5  106 1
  15    5  107 1
  16    6    7 1
  17    6  108 1
  18    6  109 1
  19    7    8 1
  20    7  110 1
  21    7  111 1
  22    8    9 1
  23    8  112 1
  24    8  113 1
  25    9   10 1
  26    9  114 1
  27    9  115 1
  28   10   11 2
  29   10  116 1
  30   11   12 1
  31   11  117 1
  32   12   22 1
  33   12  118 1
  34   12  119 1
  35   14   15 1
  36   14   23 1
  37   14   59 1
  38   14  120 1
  39   15   16 2
  40   15   86 am
  41   17   18 1
  42   17   20 1
  43   17   21 1
  44   17  100 1
  45   18   19 2
  46   18   75 am
  47   20   22 1
  48   20  121 1
  49   20  122 1
  50   21  123 1
  51   21  124 1
  52   21  125 1
  53   22  126 1
  54   22  127 1
  55   23   24 1
  56   23  128 1
  57   23  129 1
  58   24   25 2
  59   24   28 1
  60   25   26 1
  61   25  130 1
  62   26   27 1
  63   26  131 1
  64   27   28 ar
  65   27   29 ar
  66   28   32 ar
  67   29   30 ar
  68   29  132 1
  69   30   31 ar
  70   30  133 1
  71   31   32 ar
  72   31  134 1
  73   32  135 1
  74   33   35 2
  75   33   63 am
  76   33   34 1
  77   34  136 1
  78   34  137 1
  79   34  138 1
  80   36   37 1
  81   36   85 am
  82   36  139 1
  83   37   38 1
  84   37   39 1
  85   37   40 1
  86   38   41 2
  87   38   95 am
  88   39   40 1
  89   39  140 1
  90   39  141 1
  91   40  142 1
  92   40  143 1
  93   42   43 1
  94   42  144 1
  95   42  145 1
  96   42  146 1
  97   43   44 1
  98   43   45 1
  99   43  147 1
 100   44   46 2
 101   44   50 am
 102   45  148 1
 103   47   52 1
 104   47   48 1
 105   47  149 1
 106   47  150 1
 107   48   49 1
 108   48   50 1
 109   48  151 1
 110   49   51 2
 111   49   59 am
 112   50  152 1
 113   52   53 ar
 114   52   57 ar
 115   53   54 ar
 116   53  153 1
 117   54   55 ar
 118   54  154 1
 119   55   56 ar
 120   55   58 1
 121   56   57 ar
 122   56  155 1
 123   57  156 1
 124   58  157 1
 125   59  158 1
 126   60   65 1
 127   60   61 1
 128   60  159 1
 129   60  160 1
 130   61   62 1
 131   61   63 1
 132   61  161 1
 133   62   64 2
 134   62   71 am
 135   63  162 1
 136   65   66 ar
 137   65   70 ar
 138   66   67 ar
 139   66  163 1
 140   67   68 ar
 141   67  164 1
 142   68   69 ar
 143   68  165 1
 144   69   70 ar
 145   69  166 1
 146   70  167 1
 147   71  168 1
 148   72   73 1
 149   72  169 1
 150   72  170 1
 151   72  171 1
 152   73   74 1
 153   73   75 1
 154   73  172 1
 155   74   76 2
 156   74   80 am
 157   75  173 1
 158   77   78 1
 159   77  174 1
 160   77  175 1
 161   77  176 1
 162   78   79 1
 163   78   80 1
 164   78  177 1
 165   79   81 2
 166   79   82 am
 167   80  178 1
 168   82  179 1
 169   82  180 1
 170   83   88 1
 171   83   84 1
 172   83  181 1
 173   83  182 1
 174   84   86 1
 175   84   85 1
 176   84  183 1
 177   85   87 2
 178   86  184 1
 179   88   89 1
 180   88  185 1
 181   88  186 1
 182   89   90 2
 183   89   91 1
 184   91  187 1
 185   92   97 1
 186   92   93 1
 187   92  188 1
 188   92  189 1
 189   93   95 1
 190   93   94 1
 191   93  190 1
 192   94   96 2
 193   94  100 am
 194   95  191 1
 195   97   98 1
 196   97   99 1
 197   97  192 1
 198   98  193 1
 199   98  194 1
 200   98  195 1
 201   99  196 1
 202   99  197 1
 203   99  198 1
 204  100  199 1

#	End of record

