#	Name: ASD01914954
#	Creating user name:	WinNT
#	Creation time:	15. 06. 2019 20:04

#	Modifying user name:	WinNT
#	Modification time:	15. 06. 2019 20:04

#	Program:	/corina/corina34_cracker 3.40 0067  02.08.2006

@<TRIPOS>MOLECULE
ASD01914954
  62   66    0    0    0
SMALL
NO_CHARGES


@<TRIPOS>ATOM
   1 C1            -0.0033     1.3310    -0.0215 C.2     
   2 N2             0.0139     0.0589     0.3176 N.2     
   3 C3             1.3082     1.7201    -0.3417 C.2     
   4 C4             2.1161     0.6325    -0.1823 C.2     
   5 N5             1.3319    -0.4058     0.2257 N.pl3   
   6 C6            -1.2037     2.2031    -0.0642 C.ar    
   7 C7            -1.1025     3.5082    -0.5417 C.ar    
   8 C8            -2.2208     4.3153    -0.5802 C.ar    
   9 C9            -3.4432     3.8298    -0.1444 C.ar    
  10 C10           -3.5482     2.5331     0.3314 C.ar    
  11 C11           -2.4358     1.7171     0.3675 C.ar    
  12 C12            3.5776     0.5877    -0.4106 C.ar    
  13 C13            1.7879    -1.7672     0.5174 C.3     
  14 C14            2.0657    -1.8987     1.9927 C.2     
  15 N15            2.4991    -3.0718     2.4949 N.am    
  16 O16            1.8991    -0.9487     2.7282 O.2     
  17 C17            2.7797    -3.2331     3.9320 C.3     
  18 C18            1.8255    -4.2960     4.4828 C.3     
  19 C19            1.7790    -5.4824     3.5664 C.2     
  20 C20            2.1586    -5.4638     2.3109 C.2     
  21 C21            2.7050    -4.2435     1.6315 C.3     
  22 C22            4.1839     1.5202    -1.2525 C.ar    
  23 C23            5.5470     1.4731    -1.4613 C.ar    
  24 C24            6.3121     0.5037    -0.8379 C.ar    
  25 C25            5.7167    -0.4240    -0.0019 C.ar    
  26 C26            4.3554    -0.3838     0.2196 C.ar    
  27 C27            1.2723    -6.7572     4.1145 C.ar    
  28 C28            1.2044    -7.8970     3.3120 C.ar    
  29 F29           -4.5358     4.6235    -0.1834 F       
  30 C30           -4.8803     2.0107     0.8044 C.3     
  31 C31            0.7193    -9.0720     3.8776 C.ar    
  32 N32            0.3409    -9.0672     5.1515 N.ar    
  33 C33            0.4194    -7.9706     5.8790 C.ar    
  34 N34            0.8770    -6.8391     5.3868 N.ar    
  35 O35            0.6334   -10.2055     3.1396 O.3     
  36 C36            0.1247   -11.3692     3.7946 C.3     
  37 H37            1.6209     2.7044    -0.6577 H       
  38 H38           -0.1499     3.8876    -0.8808 H       
  39 H39           -2.1432     5.3270    -0.9501 H       
  40 H40           -2.5185     0.7062     0.7383 H       
  41 H41            1.0147    -2.4791     0.2284 H       
  42 H42            2.6994    -1.9731    -0.0437 H       
  43 H43            3.8113    -3.5557     4.0723 H       
  44 H44            2.6152    -2.2872     4.4481 H       
  45 H45            2.1694    -4.6139     5.4671 H       
  46 H46            0.8259    -3.8709     4.5733 H       
  47 H47            2.0702    -6.3738     1.7360 H       
  48 H48            2.1915    -4.0947     0.6816 H       
  49 H49            3.7725    -4.3730     1.4532 H       
  50 H50            3.5876     2.2773    -1.7400 H       
  51 H51            6.0175     2.1943    -2.1131 H       
  52 H52            7.3786     0.4707    -1.0048 H       
  53 H53            6.3194    -1.1784     0.4819 H       
  54 H54            3.8917    -1.1085     0.8724 H       
  55 H55            1.5197    -7.8677     2.2794 H       
  56 H56           -5.4087     1.5529    -0.0318 H       
  57 H57           -4.7223     1.2670     1.5854 H       
  58 H58           -5.4733     2.8345     1.2017 H       
  59 H59            0.1031    -8.0029     6.9111 H       
  60 H60            0.1087   -12.2033     3.0931 H       
  61 H61            0.7645   -11.6186     4.6411 H       
  62 H62           -0.8872   -11.1733     4.1494 H       
@<TRIPOS>BOND
   1    1    2 2
   2    1    3 1
   3    1    6 1
   4    2    5 1
   5    3    4 2
   6    3   37 1
   7    4    5 1
   8    4   12 1
   9    5   13 1
  10    6    7 ar
  11    6   11 ar
  12    7    8 ar
  13    7   38 1
  14    8    9 ar
  15    8   39 1
  16    9   10 ar
  17    9   29 1
  18   10   11 ar
  19   10   30 1
  20   11   40 1
  21   12   22 ar
  22   12   26 ar
  23   13   14 1
  24   13   41 1
  25   13   42 1
  26   14   15 am
  27   14   16 2
  28   15   17 1
  29   15   21 1
  30   17   18 1
  31   17   43 1
  32   17   44 1
  33   18   19 1
  34   18   45 1
  35   18   46 1
  36   19   20 2
  37   19   27 1
  38   20   21 1
  39   20   47 1
  40   21   48 1
  41   21   49 1
  42   22   23 ar
  43   22   50 1
  44   23   24 ar
  45   23   51 1
  46   24   25 ar
  47   24   52 1
  48   25   26 ar
  49   25   53 1
  50   26   54 1
  51   27   28 ar
  52   27   34 ar
  53   28   31 ar
  54   28   55 1
  55   30   56 1
  56   30   57 1
  57   30   58 1
  58   31   32 ar
  59   31   35 1
  60   32   33 ar
  61   33   34 ar
  62   33   59 1
  63   35   36 1
  64   36   60 1
  65   36   61 1
  66   36   62 1

#	End of record

