#	Name: ASD01810350
#	Creating user name:	WinNT
#	Creation time:	15. 06. 2019 19:24

#	Modifying user name:	WinNT
#	Modification time:	15. 06. 2019 19:24

#	Program:	/corina/corina34_cracker 3.40 0067  02.08.2006

@<TRIPOS>MOLECULE
ASD01810350
  73   76    0    0    0
SMALL
NO_CHARGES


@<TRIPOS>ATOM
   1 C1             3.0257    -3.4384     3.9863 C.3     
   2 N2             3.1442    -2.6516     2.7515 N.3     
   3 C3             2.2139    -1.5106     2.7616 C.3     
   4 C4             2.5967    -0.5607     1.6239 C.3     
   5 C5             2.7613    -1.3386     0.3480 C.2     
   6 C6             2.9040    -2.6458     0.3267 C.2     
   7 C7             2.9084    -3.4895     1.5690 C.3     
   8 C8             3.0665    -3.3155    -0.9803 C.2     
   9 N9             3.1884    -2.6510    -2.1020 N.2     
  10 S10            3.3406    -3.6664    -3.2791 S.3     
  11 N11            3.2528    -5.0837    -2.3564 N.2     
  12 C12            3.1077    -4.7025    -1.1123 C.2     
  13 O13            2.9994    -5.5638    -0.0667 O.3     
  14 C14            3.0492    -6.9597    -0.3682 C.3     
  15 C15            2.9124    -7.7660     0.9250 C.3     
  16 O16            1.6175    -7.5468     1.4883 O.3     
  17 C17            1.3853    -8.2580     2.7057 C.3     
  18 C18           -0.0240    -7.9500     3.2155 C.3     
  19 O19           -0.9870    -8.4592     2.2906 O.3     
  20 C20           -2.3430    -8.2231     2.6745 C.3     
  21 C21           -3.2816    -8.8076     1.6170 C.3     
  22 O22           -3.1392   -10.2291     1.5872 O.3     
  23 C23           -3.9767   -10.8771     0.6276 C.3     
  24 C24           -3.7419   -12.3880     0.6835 C.3     
  25 O25           -4.1641   -12.8891     1.9534 O.3     
  26 C26           -4.0228   -14.2235     2.1681 C.2     
  27 N27           -3.5280   -15.0538     1.2849 N.2     
  28 S28           -3.5560   -16.5855     2.0067 S.3     
  29 N29           -4.1765   -16.1520     3.3730 N.2     
  30 C30           -4.3830   -14.8591     3.3552 C.2     
  31 C31           -4.9641   -14.1310     4.5021 C.2     
  32 C32           -5.1732   -14.7889     5.6215 C.2     
  33 C33           -5.7657   -14.1439     6.8434 C.3     
  34 C34           -5.6814   -12.6208     6.7152 C.3     
  35 N35           -6.2041   -12.2328     5.3948 N.3     
  36 C36           -5.2828   -12.6728     4.3373 C.3     
  37 C37           -6.4316   -10.7833     5.3238 C.3     
  38 H38            1.9919    -3.7590     4.1151 H       
  39 H39            3.6723    -4.3136     3.9229 H       
  40 H40            3.3249    -2.8265     4.8372 H       
  41 H41            1.1948    -1.8678     2.6132 H       
  42 H42            2.2863    -0.9877     3.7152 H       
  43 H43            1.8127     0.1854     1.4951 H       
  44 H44            3.5346    -0.0619     1.8680 H       
  45 H45            2.7627    -0.8020    -0.5893 H       
  46 H46            3.6975    -4.2378     1.4943 H       
  47 H47            1.9461    -3.9917     1.6677 H       
  48 H48            2.2325    -7.2149    -1.0435 H       
  49 H49            4.0012    -7.1950    -0.8440 H       
  50 H50            3.0391    -8.8264     0.7071 H       
  51 H51            3.6760    -7.4471     1.6344 H       
  52 H52            1.4803    -9.3287     2.5248 H       
  53 H53            2.1172    -7.9494     3.4521 H       
  54 H54           -0.1697    -8.4208     4.1877 H       
  55 H55           -0.1478    -6.8714     3.3119 H       
  56 H56           -2.5368    -8.6995     3.6355 H       
  57 H57           -2.5149    -7.1501     2.7597 H       
  58 H58           -4.3118    -8.5507     1.8637 H       
  59 H59           -3.0287    -8.3965     0.6396 H       
  60 H60           -5.0213   -10.6632     0.8538 H       
  61 H61           -3.7382   -10.5090    -0.3702 H       
  62 H62           -4.3135   -12.8740    -0.1072 H       
  63 H63           -2.6809   -12.5961     0.5453 H       
  64 H64           -4.9089   -15.8351     5.6647 H       
  65 H65           -6.8095   -14.4424     6.9410 H       
  66 H66           -5.2134   -14.4646     7.7267 H       
  67 H67           -6.2799   -12.1539     7.4975 H       
  68 H68           -4.6428   -12.3027     6.8058 H       
  69 H69           -4.3646   -12.0881     4.3921 H       
  70 H70           -5.7493   -12.5175     3.3645 H       
  71 H71           -5.5072   -10.2582     5.5645 H       
  72 H72           -6.7506   -10.5144     4.3168 H       
  73 H73           -7.2058   -10.5016     6.0376 H       
@<TRIPOS>BOND
   1    1    2 1
   2    1   38 1
   3    1   39 1
   4    1   40 1
   5    2    3 1
   6    2    7 1
   7    3    4 1
   8    3   41 1
   9    3   42 1
  10    4    5 1
  11    4   43 1
  12    4   44 1
  13    5    6 2
  14    5   45 1
  15    6    7 1
  16    6    8 1
  17    7   46 1
  18    7   47 1
  19    8    9 2
  20    8   12 1
  21    9   10 1
  22   10   11 1
  23   11   12 2
  24   12   13 1
  25   13   14 1
  26   14   15 1
  27   14   48 1
  28   14   49 1
  29   15   16 1
  30   15   50 1
  31   15   51 1
  32   16   17 1
  33   17   18 1
  34   17   52 1
  35   17   53 1
  36   18   19 1
  37   18   54 1
  38   18   55 1
  39   19   20 1
  40   20   21 1
  41   20   56 1
  42   20   57 1
  43   21   22 1
  44   21   58 1
  45   21   59 1
  46   22   23 1
  47   23   24 1
  48   23   60 1
  49   23   61 1
  50   24   25 1
  51   24   62 1
  52   24   63 1
  53   25   26 1
  54   26   27 2
  55   26   30 1
  56   27   28 1
  57   28   29 1
  58   29   30 2
  59   30   31 1
  60   31   32 2
  61   31   36 1
  62   32   33 1
  63   32   64 1
  64   33   34 1
  65   33   65 1
  66   33   66 1
  67   34   35 1
  68   34   67 1
  69   34   68 1
  70   35   36 1
  71   35   37 1
  72   36   69 1
  73   36   70 1
  74   37   71 1
  75   37   72 1
  76   37   73 1

#	End of record

