#	Name: ASD07930734
#	Creating user name:	WinNT
#	Creation time:	15. 06. 2019 21:13

#	Modifying user name:	WinNT
#	Modification time:	15. 06. 2019 21:13

#	Program:	/corina/corina34_cracker 3.40 0067  02.08.2006

@<TRIPOS>MOLECULE
ASD07930734
  43   45    0    0    0
SMALL
NO_CHARGES


@<TRIPOS>ATOM
   1 C1            -0.0187     1.5258     0.0104 C.3     
   2 N2             2.1288     1.2333     2.0631 N.2     
   3 N3             2.7642     3.3691     1.3587 N.pl3   
   4 C4             3.6790     3.8597     0.3226 C.3     
   5 C5             2.9047     4.0448    -0.9898 C.3     
   6 S6             2.1197     2.4590    -1.4182 S.o2    
   7 N7             1.3557     2.0329     0.0000 N.am    
   8 C8             2.0855     2.1824     1.1708 C.2     
   9 C9             4.8048     2.8452     0.1130 C.3     
  10 O10            1.0635     2.6543    -2.3485 O.2     
  11 O11            3.0990     1.4482    -1.6145 O.2     
  12 C12            4.2640     5.1804     0.7523 C.2     
  13 C13            0.0021    -0.0041     0.0020 C.3     
  14 S14            4.7632     6.4658    -0.3384 S.3     
  15 C15            5.2568     7.4722     1.0166 C.2     
  16 C16            5.0301     6.8170     2.1699 C.2     
  17 C17            4.4740     5.5487     2.0135 C.2     
  18 C18            5.3411     7.3993     3.4988 C.ar    
  19 C19            5.8900     8.6739     3.5895 C.ar    
  20 C20            6.1791     9.2147     4.8420 C.ar    
  21 C21            5.9157     8.4734     5.9961 C.ar    
  22 C22            5.3707     7.2089     5.8973 C.ar    
  23 C23            5.0779     6.6715     4.6591 C.ar    
  24 C24            6.7449    10.5262     4.9446 C.1     
  25 N25            7.1937    11.5666     5.0260 N.1     
  26 H26           -0.5289     1.8773     0.9072 H       
  27 H27           -0.5459     1.8868    -0.8726 H       
  28 H28            2.6441     1.3550     2.8759 H       
  29 H29            2.6395     3.8758     2.1763 H       
  30 H30            2.1398     4.8104    -0.8603 H       
  31 H31            3.5913     4.3410    -1.7828 H       
  32 H32            4.3806     1.8910    -0.1997 H       
  33 H33            5.4843     3.2104    -0.6571 H       
  34 H34            5.3517     2.7112     1.0463 H       
  35 H35            0.5293    -0.3651     0.8851 H       
  36 H36           -1.0205    -0.3814     0.0098 H       
  37 H37            0.5123    -0.3556    -0.8948 H       
  38 H38            5.6777     8.4634     0.9356 H       
  39 H39            4.2386     4.9101     2.8520 H       
  40 H40            6.0919     9.2424     2.6937 H       
  41 H41            6.1390     8.8899     6.9672 H       
  42 H42            5.1689     6.6389     6.7922 H       
  43 H43            4.6516     5.6816     4.5888 H       
@<TRIPOS>BOND
   1    1   13 1
   2    1    7 1
   3    1   26 1
   4    1   27 1
   5    2    8 2
   6    2   28 1
   7    3    4 1
   8    3    8 1
   9    3   29 1
  10    4    5 1
  11    4    9 1
  12    4   12 1
  13    5    6 1
  14    5   30 1
  15    5   31 1
  16    6    7 am
  17    6   10 2
  18    6   11 2
  19    7    8 1
  20    9   32 1
  21    9   33 1
  22    9   34 1
  23   12   14 1
  24   12   17 2
  25   13   35 1
  26   13   36 1
  27   13   37 1
  28   14   15 1
  29   15   16 2
  30   15   38 1
  31   16   17 1
  32   16   18 1
  33   17   39 1
  34   18   19 ar
  35   18   23 ar
  36   19   20 ar
  37   19   40 1
  38   20   21 ar
  39   20   24 1
  40   21   22 ar
  41   21   41 1
  42   22   23 ar
  43   22   42 1
  44   23   43 1
  45   24   25 3

#	End of record

