#	Name: ASD01140558
#	Creating user name:	WinNT
#	Creation time:	15. 06. 2019 19:01

#	Modifying user name:	WinNT
#	Modification time:	15. 06. 2019 19:01

#	Program:	/corina/corina34_cracker 3.40 0067  02.08.2006

@<TRIPOS>MOLECULE
ASD01140558
  62   66    0    0    0
SMALL
NO_CHARGES


@<TRIPOS>ATOM
   1 C1            -0.3163     1.6681     0.0915 C.3     
   2 C2            -0.3867     0.1404     0.1295 C.3     
   3 C3             0.3323    -0.4338    -1.0930 C.3     
   4 C4             1.7967     0.0093    -1.0771 C.3     
   5 C5             1.8675     1.5369    -1.1155 C.3     
   6 C6             1.1477     2.1130     0.1059 C.3     
   7 C7             1.2163     3.6399     0.0611 C.3     
   8 C8             3.3314     1.9811    -1.1031 C.3     
   9 C9             3.4030     3.5091    -1.1396 C.3     
  10 C10            2.6881     4.0815     0.0852 C.3     
  11 C11            0.5590     5.7660     1.2641 C.3     
  12 C12            0.4353     4.2335     1.2282 C.3     
  13 C13            2.0371     6.0975     1.3587 C.3     
  14 C14            2.3885     7.5892     1.3328 C.3     
  15 C15            2.7028     5.5963     0.0485 C.3     
  16 C16            4.0712     6.2685     0.0706 C.3     
  17 C17            3.8652     7.5905     0.8515 C.3     
  18 C18            0.2611    -1.9617    -1.0557 C.3     
  19 H19            1.3859     1.8998    -2.0235 H       
  20 H20            3.1668     3.7172     0.9941 H       
  21 C21            2.6605     5.4076     2.5738 C.3     
  22 C22            2.2766     8.1874     2.7115 C.2     
  23 O23            3.2479     8.2413     3.4270 O.2     
  24 C24            0.9525     8.7182     3.1973 C.3     
  25 O25           -0.2971     0.0437    -2.2838 O.3     
  26 H26            0.7598     3.9857    -0.8663 H       
  27 H27            2.1341     5.9492    -0.8118 H       
  28 N28            1.1057     9.2424     4.5567 N.pl3   
  29 N29            0.9538     8.5635     5.6405 N.2     
  30 N30            1.4194    10.4553     4.8593 N.2     
  31 C31            1.4622    10.5467     6.1658 C.2     
  32 N32            1.1650     9.3401     6.6486 N.2     
  33 H33           -0.7973     2.0314    -0.8167 H       
  34 H34           -0.8287     2.0771     0.9622 H       
  35 H35            0.0941    -0.2230     1.0377 H       
  36 H36           -1.4298    -0.1756     0.1192 H       
  37 H37            2.2764    -0.3540    -0.1682 H       
  38 H38            2.3097    -0.4003    -1.9472 H       
  39 H39            1.6286     1.7523     1.0152 H       
  40 H40            3.8137     1.6165    -0.1962 H       
  41 H41            3.8421     1.5727    -1.9751 H       
  42 H42            4.4464     3.8243    -1.1316 H       
  43 H43            2.9199     3.8741    -2.0459 H       
  44 H44            0.1408     6.1932     0.3527 H       
  45 H45            0.0341     6.1601     2.1342 H       
  46 H46           -0.6159     3.9629     1.1283 H       
  47 H47            0.8210     3.8227     2.1612 H       
  48 H48            1.7524     8.1231     0.6269 H       
  49 H49            4.7949     5.6353     0.5840 H       
  50 H50            4.4055     6.4782    -0.9455 H       
  51 H51            4.0447     8.4435     0.1971 H       
  52 H52            4.5380     7.6276     1.7084 H       
  53 H53           -0.7822    -2.2772    -1.0664 H       
  54 H54            0.7733    -2.3706    -1.9266 H       
  55 H55            0.7415    -2.3257    -0.1475 H       
  56 H56            2.4969     4.3321     2.5046 H       
  57 H57            3.7310     5.6115     2.5978 H       
  58 H58            2.1976     5.7876     3.4845 H       
  59 H59            0.6164     9.5167     2.5358 H       
  60 H60            0.2170     7.9138     3.1988 H       
  61 H61           -1.2296    -0.2001    -2.3607 H       
  62 H62            1.6963    11.4300     6.7414 H       
@<TRIPOS>BOND
   1    1    2 1
   2    1    6 1
   3    1   33 1
   4    1   34 1
   5    2    3 1
   6    2   35 1
   7    2   36 1
   8    3    4 1
   9    3   18 1
  10    3   25 1
  11    4    5 1
  12    4   37 1
  13    4   38 1
  14    5    8 1
  15    5   19 1
  16    5    6 1
  17    6    7 1
  18    6   39 1
  19    7   10 1
  20    7   26 1
  21    7   12 1
  22    8    9 1
  23    8   40 1
  24    8   41 1
  25    9   10 1
  26    9   42 1
  27    9   43 1
  28   10   15 1
  29   10   20 1
  30   11   12 1
  31   11   13 1
  32   11   44 1
  33   11   45 1
  34   12   46 1
  35   12   47 1
  36   13   15 1
  37   13   21 1
  38   13   14 1
  39   14   17 1
  40   14   22 1
  41   14   48 1
  42   15   16 1
  43   15   27 1
  44   16   17 1
  45   16   49 1
  46   16   50 1
  47   17   51 1
  48   17   52 1
  49   18   53 1
  50   18   54 1
  51   18   55 1
  52   21   56 1
  53   21   57 1
  54   21   58 1
  55   22   23 2
  56   22   24 1
  57   24   28 1
  58   24   59 1
  59   24   60 1
  60   25   61 1
  61   28   30 1
  62   28   29 1
  63   29   32 2
  64   30   31 2
  65   31   32 1
  66   31   62 1

#	End of record

