#	Name: ASD09080124
#	Creating user name:	WinNT
#	Creation time:	15. 06. 2019 21:20

#	Modifying user name:	WinNT
#	Modification time:	15. 06. 2019 21:20

#	Program:	/corina/corina34_cracker 3.40 0067  02.08.2006

@<TRIPOS>MOLECULE
ASD09080124
  59   61    0    0    0
SMALL
NO_CHARGES


@<TRIPOS>ATOM
   1 C1            -0.5656     0.5559     0.2404 C.ar    
   2 C2            -0.3782    -0.8129     0.3254 C.ar    
   3 C3             0.8971    -1.3418     0.2795 C.ar    
   4 C4             1.9956    -0.4951     0.1474 C.ar    
   5 C5             1.8018     0.8819     0.0621 C.ar    
   6 C6             0.5225     1.4012     0.1090 C.ar    
   7 Cl7            0.2792     3.1168     0.0024 Cl      
   8 Cl8           -1.7479    -1.8665     0.4907 Cl      
   9 C9             3.3678    -1.0581     0.0980 C.ar    
  10 C10            4.4666    -0.2116    -0.0342 C.ar    
  11 C11            3.5624    -2.4348     0.1894 C.ar    
  12 C12            4.8407    -2.9530     0.1429 C.ar    
  13 C13            5.9276    -2.1084     0.0063 C.ar    
  14 C14            5.7405    -0.7406    -0.0796 C.ar    
  15 C15            7.3211    -2.6801    -0.0428 C.3     
  16 C16            7.6972    -2.9828    -1.4947 C.3     
  17 C17            9.0599    -3.6774    -1.5343 C.3     
  18 C18            8.9515    -5.0514    -0.8700 C.3     
  19 O19           10.0195    -2.8838    -0.8333 O.3     
  20 O20            7.9106    -5.8030    -1.4974 O.3     
  21 C21           10.2596    -5.7851    -1.0172 C.2     
  22 O22           10.3876    -6.6249    -1.8755 O.2     
  23 C23           11.4080    -5.4708    -0.0934 C.3     
  24 N24            7.7648    -1.7311    -2.2528 N.am    
  25 C25            6.5838     2.7171    -7.0508 C.ar    
  26 C26            7.8119     3.2128    -7.4469 C.ar    
  27 C27            8.9509     2.4457    -7.2877 C.ar    
  28 C28            8.8616     1.1829    -6.7324 C.ar    
  29 C29            7.6335     0.6872    -6.3364 C.ar    
  30 C30            6.4946     1.4543    -6.4956 C.ar    
  31 C31            7.5363    -0.6894    -5.7311 C.3     
  32 O32            7.6910    -0.5967    -4.2903 O.3     
  33 C33            7.6289    -1.7471    -3.5936 C.2     
  34 O34            7.4502    -2.7998    -4.1736 O.2     
  35 H35           -1.5645     0.9653     0.2721 H       
  36 H36            1.0424    -2.4099     0.3463 H       
  37 H37            2.6502     1.5423    -0.0401 H       
  38 H38            4.3216     0.8566    -0.1013 H       
  39 H39            2.7145    -3.0951     0.2968 H       
  40 H40            4.9927    -4.0199     0.2137 H       
  41 H41            6.5926    -0.0857    -0.1865 H       
  42 H42            8.0247    -1.9583     0.3718 H       
  43 H43            7.3573    -3.5997     0.5412 H       
  44 H44            6.9440    -3.6351    -1.9367 H       
  45 H45            9.3759    -3.7986    -2.5704 H       
  46 H46            8.7222    -4.9263     0.1882 H       
  47 H47           10.1403    -1.9973    -1.2004 H       
  48 H48            8.0487    -5.9531    -2.4426 H       
  49 H49           11.1070    -4.6935     0.6090 H       
  50 H50           11.6880    -6.3691     0.4568 H       
  51 H51           12.2596    -5.1224    -0.6778 H       
  52 H52            7.9075    -0.8907    -1.7898 H       
  53 H53            5.6946     3.3182    -7.1711 H       
  54 H54            7.8816     4.1992    -7.8811 H       
  55 H55            9.9103     2.8327    -7.5978 H       
  56 H56            9.7514     0.5834    -6.6087 H       
  57 H57            5.5351     1.0672    -6.1858 H       
  58 H58            6.5631    -1.1212    -5.9649 H       
  59 H59            8.3228    -1.3230    -6.1410 H       
@<TRIPOS>BOND
   1    1    2 ar
   2    1    6 ar
   3    1   35 1
   4    2    3 ar
   5    2    8 1
   6    3    4 ar
   7    3   36 1
   8    4    5 ar
   9    4    9 1
  10    5    6 ar
  11    5   37 1
  12    6    7 1
  13    9   10 ar
  14    9   11 ar
  15   10   14 ar
  16   10   38 1
  17   11   12 ar
  18   11   39 1
  19   12   13 ar
  20   12   40 1
  21   13   14 ar
  22   13   15 1
  23   14   41 1
  24   15   16 1
  25   15   42 1
  26   15   43 1
  27   16   17 1
  28   16   24 1
  29   16   44 1
  30   17   18 1
  31   17   19 1
  32   17   45 1
  33   18   20 1
  34   18   21 1
  35   18   46 1
  36   19   47 1
  37   20   48 1
  38   21   22 2
  39   21   23 1
  40   23   49 1
  41   23   50 1
  42   23   51 1
  43   24   33 am
  44   24   52 1
  45   25   26 ar
  46   25   30 ar
  47   25   53 1
  48   26   27 ar
  49   26   54 1
  50   27   28 ar
  51   27   55 1
  52   28   29 ar
  53   28   56 1
  54   29   30 ar
  55   29   31 1
  56   30   57 1
  57   31   32 1
  58   31   58 1
  59   31   59 1
  60   32   33 1
  61   33   34 2

#	End of record

