#	Name: ASD02198578
#	Creating user name:	WinNT
#	Creation time:	15. 06. 2019 20:19

#	Modifying user name:	WinNT
#	Modification time:	15. 06. 2019 20:19

#	Program:	/corina/corina34_cracker 3.40 0067  02.08.2006

@<TRIPOS>MOLECULE
ASD02198578
  52   56    0    0    0
SMALL
NO_CHARGES


@<TRIPOS>ATOM
   1 C1             0.0072     1.5095     0.1335 C.2     
   2 C2             0.0744     0.1696    -0.0948 C.2     
   3 N3            -1.0522    -0.5606    -0.2645 N.pl3   
   4 N4            -2.2302    -0.0572    -0.2233 N.2     
   5 C5            -2.4378     1.2254    -0.0099 C.2     
   6 C6            -1.2792     2.1065     0.1923 C.2     
   7 C7            -0.9247    -1.9343    -0.4972 C.ar    
   8 C8            -0.7951    -3.7807    -2.0331 C.ar    
   9 C9            -0.6737    -4.6577    -0.9732 C.ar    
  10 C10           -0.6823    -4.1771     0.3345 C.ar    
  11 C11           -0.8085    -2.8112     0.5707 C.ar    
  12 C12           -3.8111     1.7681     0.0305 C.2     
  13 N13           -4.3729     2.4804     1.0526 N.pl3   
  14 N14           -5.6849     2.7985     0.6802 N.2     
  15 C15           -5.9157     2.3058    -0.5106 C.2     
  16 C16           -4.7647     1.6567    -0.9574 C.2     
  17 C17           -3.7486     2.8290     2.2570 C.ar    
  18 C18           -2.9548     1.9041     2.9225 C.ar    
  19 O19           -1.4172     3.3043     0.3943 O.2     
  20 C20           -3.9176     4.1021     2.7852 C.ar    
  21 C21           -3.3004     4.4430     3.9728 C.ar    
  22 C22           -2.5148     3.5180     4.6358 C.ar    
  23 C23           -2.3403     2.2511     4.1097 C.ar    
  24 C24           -0.9202    -2.4226    -1.8010 C.ar    
  25 F25           -1.0385    -1.5688    -2.8413 F       
  26 O26            1.1345     2.2506     0.3051 O.3     
  27 C27            2.3829     1.5587     0.2346 C.3     
  28 C28           -0.5523    -5.1202     1.4742 C.2     
  29 C29           -0.4182    -6.4750     1.3882 C.2     
  30 C30           -0.5389    -4.7777     2.8402 C.2     
  31 N31           -0.4081    -5.8778     3.5334 N.2     
  32 N32           -0.3304    -6.9569     2.6446 N.pl3   
  33 C33           -0.1800    -8.3661     3.0156 C.3     
  34 H34            1.0377    -0.3165    -0.1414 H       
  35 H35           -0.7882    -4.1557    -3.0459 H       
  36 H36           -0.5763    -5.7172    -1.1581 H       
  37 H37           -0.8155    -2.4352     1.5831 H       
  38 H38           -6.8425     2.3917    -1.0584 H       
  39 H39           -4.6449     1.1517    -1.9045 H       
  40 H40           -2.8185     0.9144     2.5123 H       
  41 H41           -4.5308     4.8251     2.2678 H       
  42 H42           -3.4311     5.4331     4.3839 H       
  43 H43           -2.0328     3.7871     5.5641 H       
  44 H44           -1.7264     1.5308     4.6300 H       
  45 H45            3.1989     2.2648     0.3881 H       
  46 H46            2.4168     0.7907     1.0073 H       
  47 H47            2.4851     1.0927    -0.7455 H       
  48 H48           -0.3882    -7.0564     0.4785 H       
  49 H49           -0.6219    -3.7797     3.2445 H       
  50 H50           -1.1649    -8.8160     3.1406 H       
  51 H51            0.3629    -8.8926     2.2306 H       
  52 H52            0.3738    -8.4384     3.9516 H       
@<TRIPOS>BOND
   1    1    2 2
   2    1   26 1
   3    1    6 1
   4    2    3 1
   5    2   34 1
   6    3    4 1
   7    3    7 1
   8    4    5 2
   9    5    6 1
  10    5   12 1
  11    6   19 2
  12    7   24 ar
  13    7   11 ar
  14    8    9 ar
  15    8   24 ar
  16    8   35 1
  17    9   10 ar
  18    9   36 1
  19   10   11 ar
  20   10   28 1
  21   11   37 1
  22   12   13 1
  23   12   16 2
  24   13   14 1
  25   13   17 1
  26   14   15 2
  27   15   16 1
  28   15   38 1
  29   16   39 1
  30   17   20 ar
  31   17   18 ar
  32   18   23 ar
  33   18   40 1
  34   20   21 ar
  35   20   41 1
  36   21   22 ar
  37   21   42 1
  38   22   23 ar
  39   22   43 1
  40   23   44 1
  41   24   25 1
  42   26   27 1
  43   27   45 1
  44   27   46 1
  45   27   47 1
  46   28   29 2
  47   28   30 1
  48   29   32 1
  49   29   48 1
  50   30   31 2
  51   30   49 1
  52   31   32 1
  53   32   33 1
  54   33   50 1
  55   33   51 1
  56   33   52 1

#	End of record

