#	Name: ASD00170719
#	Creating user name:	WinNT
#	Creation time:	15. 06. 2019 18:32

#	Modifying user name:	WinNT
#	Modification time:	15. 06. 2019 18:32

#	Program:	/corina/corina34_cracker 3.40 0067  02.08.2006

@<TRIPOS>MOLECULE
ASD00170719
  41   43    0    0    0
SMALL
NO_CHARGES


@<TRIPOS>ATOM
   1 C1            -0.0144     1.2136     0.0087 C.2     
   2 O2            -0.1261     0.0038     0.0914 O.2     
   3 C3             1.3284     1.8301    -0.0464 C.ar    
   4 C4             2.4015     1.2328     0.6177 C.ar    
   5 C5             3.6516     1.8122     0.5623 C.ar    
   6 C6             3.8437     2.9846    -0.1499 C.ar    
   7 C7             2.7829     3.5817    -0.8108 C.ar    
   8 C8             1.5294     3.0086    -0.7674 C.ar    
   9 Cl9            5.4202     3.7087    -0.2142 Cl      
  10 C10           -2.4908     1.5586    -0.1264 C.2     
  11 C11           -1.2093     2.0568    -0.0423 C.2     
  12 C12           -1.1708     3.5002    -0.0093 C.2     
  13 C13           -2.3868     4.0569    -0.0671 C.2     
  14 S14           -3.6313     2.8241    -0.1648 S.3     
  15 C15           -2.6457     5.5119    -0.0509 C.ar    
  16 C16           -3.9559     5.9902    -0.1158 C.ar    
  17 C17           -4.1939     7.3477    -0.1006 C.ar    
  18 C18           -3.1312     8.2404    -0.0206 C.ar    
  19 C19           -1.8255     7.7675     0.0437 C.ar    
  20 C20           -1.5810     6.4111     0.0351 C.ar    
  21 N21           -3.3759     9.6156    -0.0054 N.pl3   
  22 C22           -4.7513    10.1157    -0.0736 C.3     
  23 C23           -2.2573    10.5578     0.0788 C.3     
  24 N24           -2.8074     0.2178    -0.1784 N.pl3   
  25 H25            2.2528     0.3191     1.1739 H       
  26 H26            4.4825     1.3511     1.0756 H       
  27 H27            2.9387     4.4957    -1.3645 H       
  28 H28            0.7039     3.4728    -1.2865 H       
  29 H29           -0.2563     4.0709     0.0557 H       
  30 H30           -4.7819     5.2972    -0.1783 H       
  31 H31           -5.2071     7.7183    -0.1511 H       
  32 H32           -1.0022     8.4637     0.1053 H       
  33 H33           -0.5667     6.0443     0.0903 H       
  34 H34           -5.1512    10.2178     0.9353 H       
  35 H35           -4.7606    11.0869    -0.5682 H       
  36 H36           -5.3653     9.4143    -0.6385 H       
  37 H37           -1.5984    10.4170    -0.7781 H       
  38 H38           -2.6408    11.5781     0.0786 H       
  39 H39           -1.7003    10.3792     0.9986 H       
  40 H40           -2.1025    -0.4482    -0.1562 H       
  41 H41           -3.7350    -0.0595    -0.2371 H       
@<TRIPOS>BOND
   1    1    2 2
   2    1    3 1
   3    1   11 1
   4    3    4 ar
   5    3    8 ar
   6    4    5 ar
   7    4   25 1
   8    5    6 ar
   9    5   26 1
  10    6    7 ar
  11    6    9 1
  12    7    8 ar
  13    7   27 1
  14    8   28 1
  15   10   11 2
  16   10   14 1
  17   10   24 1
  18   11   12 1
  19   12   13 2
  20   12   29 1
  21   13   14 1
  22   13   15 1
  23   15   16 ar
  24   15   20 ar
  25   16   17 ar
  26   16   30 1
  27   17   18 ar
  28   17   31 1
  29   18   19 ar
  30   18   21 1
  31   19   20 ar
  32   19   32 1
  33   20   33 1
  34   21   22 1
  35   21   23 1
  36   22   34 1
  37   22   35 1
  38   22   36 1
  39   23   37 1
  40   23   38 1
  41   23   39 1
  42   24   40 1
  43   24   41 1

#	End of record

