#	Name: ASD01670074
#	Creating user name:	WinNT
#	Creation time:	15. 06. 2019 19:22

#	Modifying user name:	WinNT
#	Modification time:	15. 06. 2019 19:22

#	Program:	/corina/corina34_cracker 3.40 0067  02.08.2006

@<TRIPOS>MOLECULE
ASD01670074
  60   63    0    0    0
SMALL
NO_CHARGES


@<TRIPOS>ATOM
   1 C1            11.1115     4.9374    -5.1333 C.ar    
   2 C2             6.6338    -1.8567    -5.8789 C.ar    
   3 C3             9.9667     4.9595    -4.3588 C.ar    
   4 C4            11.9103     3.8093    -5.1539 C.ar    
   5 C5             6.2597    -3.0885    -5.3725 C.ar    
   6 C6             7.4356    -1.0160    -5.1345 C.ar    
   7 C7             9.6207     3.8537    -3.6050 C.ar    
   8 C8            11.5642     2.7035    -4.4001 C.ar    
   9 C9             6.6863    -3.4860    -4.1175 C.ar    
  10 C10            6.5539    -6.6412     0.7483 C.ar    
  11 C11            6.0260    -7.9087     0.9303 C.ar    
  12 C12            7.8693    -1.4108    -3.8681 C.ar    
  13 C13            7.7068    -7.3991    -1.2200 C.ar    
  14 C14           10.4192     2.7255    -3.6260 C.ar    
  15 C15            7.4882    -2.6551    -3.3631 C.ar    
  16 C16            7.3886    -6.3807    -0.3163 C.ar    
  17 C17            6.3311    -8.9284     0.0446 C.ar    
  18 C18            7.1733    -8.6807    -1.0362 C.ar    
  19 C19            5.1221    -1.9812    -0.2814 C.2     
  20 C20            5.7798    -3.1055    -0.1417 C.2     
  21 C21            8.7291    -0.5153    -3.0652 C.2     
  22 C22            8.5991    -7.1249    -2.3609 C.2     
  23 C23            6.2330   -10.6817    -1.3342 C.3     
  24 C24           10.0425     1.5203    -2.8035 C.3     
  25 C25            7.9515    -3.0895    -1.9964 C.3     
  26 C26            7.9580    -4.9986    -0.5071 C.3     
  27 C27            5.8585    -4.0799    -1.2885 C.3     
  28 N28            9.1905     0.6330    -3.5991 N.am    
  29 N29            7.2670    -4.3335    -1.6198 N.3     
  30 O30            9.7993    -7.2736    -2.2430 O.2     
  31 O31            9.0199    -0.8147    -1.9236 O.2     
  32 O32            8.0838    -6.7093    -3.5346 O.3     
  33 O33            5.9463   -10.2379     0.0053 O.3     
  34 O34            7.3177    -9.8311    -1.7509 O.3     
  35 H35           11.3795     5.7997    -5.7257 H       
  36 H36            6.3008    -1.5541    -6.8607 H       
  37 H37            9.3428     5.8410    -4.3424 H       
  38 H38           12.8045     3.7919    -5.7593 H       
  39 H39            5.6319    -3.7428    -5.9591 H       
  40 H40            7.7273    -0.0547    -5.5311 H       
  41 H41            8.7266     3.8713    -2.9994 H       
  42 H42           12.1879     1.8220    -4.4168 H       
  43 H43            6.3901    -4.4487    -3.7276 H       
  44 H44            6.3062    -5.8516     1.4422 H       
  45 H45            5.3728    -8.1029     1.7682 H       
  46 H46            4.6362    -1.7527    -1.2185 H       
  47 H47            5.0657    -1.2828     0.5405 H       
  48 H48            6.2656    -3.3340     0.7954 H       
  49 H49            6.5444   -11.7263    -1.3332 H       
  50 H50            5.3653   -10.5403    -1.9785 H       
  51 H51           10.9452     0.9868    -2.5061 H       
  52 H52            9.5011     1.8423    -1.9139 H       
  53 H53            9.0282    -3.2583    -2.0143 H       
  54 H54            7.7177    -2.3118    -1.2693 H       
  55 H55            7.8187    -4.4190     0.4055 H       
  56 H56            9.0220    -5.0719    -0.7320 H       
  57 H57            5.3780    -5.0159    -1.0036 H       
  58 H58            5.3507    -3.6606    -2.1571 H       
  59 H59            8.9585     0.8719    -4.5101 H       
  60 H60            8.7084    -6.5422    -4.2537 H       
@<TRIPOS>BOND
   1    1    3 ar
   2    1    4 ar
   3    1   35 1
   4    2    5 ar
   5    2    6 ar
   6    2   36 1
   7    3    7 ar
   8    3   37 1
   9    4    8 ar
  10    4   38 1
  11    5    9 ar
  12    5   39 1
  13    6   12 ar
  14    6   40 1
  15    7   14 ar
  16    7   41 1
  17    8   14 ar
  18    8   42 1
  19    9   15 ar
  20    9   43 1
  21   10   11 ar
  22   10   16 ar
  23   10   44 1
  24   11   17 ar
  25   11   45 1
  26   12   15 ar
  27   12   21 1
  28   13   16 ar
  29   13   18 ar
  30   13   22 1
  31   14   24 1
  32   15   25 1
  33   16   26 1
  34   17   18 ar
  35   17   33 1
  36   18   34 1
  37   19   20 2
  38   19   46 1
  39   19   47 1
  40   20   27 1
  41   20   48 1
  42   21   28 am
  43   21   31 2
  44   22   30 2
  45   22   32 1
  46   23   33 1
  47   23   34 1
  48   23   49 1
  49   23   50 1
  50   24   28 1
  51   24   51 1
  52   24   52 1
  53   25   29 1
  54   25   53 1
  55   25   54 1
  56   26   29 1
  57   26   55 1
  58   26   56 1
  59   27   29 1
  60   27   57 1
  61   27   58 1
  62   28   59 1
  63   32   60 1

#	End of record

