#	Name: ASD01918314
#	Creating user name:	WinNT
#	Creation time:	15. 06. 2019 20:11

#	Modifying user name:	WinNT
#	Modification time:	15. 06. 2019 20:11

#	Program:	/corina/corina34_cracker 3.40 0067  02.08.2006

@<TRIPOS>MOLECULE
ASD01918314
  42   45    0    0    0
SMALL
NO_CHARGES


@<TRIPOS>ATOM
   1 O1             0.0021    -0.0041     0.0020 O.2     
   2 C2            -0.0144     1.2109     0.0087 C.2     
   3 N3            -1.1470     1.9268     0.0291 N.am    
   4 C4            -0.8058     3.3576     0.0326 C.3     
   5 H5            -1.1789     3.8379     0.9371 H       
   6 C6             0.7349     3.3675     0.0106 C.3     
   7 H7             1.1010     3.8643    -0.8879 H       
   8 O8             1.0965     1.9561     0.0021 O.3     
   9 C9             1.2765     4.0429     1.2441 C.ar    
  10 C10            1.4549     3.3329     2.4216 C.ar    
  11 C11            1.9539     3.9860     3.5327 C.ar    
  12 N12            2.2584     5.2680     3.4814 N.ar    
  13 C13            2.1018     5.9744     2.3790 C.ar    
  14 C14            1.6137     5.3876     1.2268 C.ar    
  15 C15           -1.3602     4.0369    -1.1930 C.ar    
  16 C16           -1.3489     3.3802    -2.4107 C.ar    
  17 C17           -1.8558     3.9962    -3.5417 C.ar    
  18 C18           -2.3769     5.2705    -3.4620 C.ar    
  19 C19           -2.3921     5.9399    -2.2353 C.ar    
  20 C20           -1.8830     5.3099    -1.0969 C.ar    
  21 C21           -2.9315     7.2633    -2.1446 C.1     
  22 C22           -3.3737     8.3483    -2.0703 C.1     
  23 C23           -3.9131     9.6718    -1.9796 C.ar    
  24 C24           -4.4319    10.2979    -3.1160 C.ar    
  25 C25           -4.9497    11.5726    -3.0210 C.ar    
  26 C26           -4.9563    12.2315    -1.8042 C.ar    
  27 C27           -4.4438    11.6180    -0.6746 C.ar    
  28 C28           -3.9284    10.3411    -0.7530 C.ar    
  29 H29           -2.0454     1.5610     0.0396 H       
  30 H30            1.2066     2.2830     2.4700 H       
  31 H31            2.0957     3.4401     4.4537 H       
  32 H32            2.3619     7.0226     2.3752 H       
  33 H33            1.4924     5.9703     0.3255 H       
  34 H34           -0.9421     2.3821    -2.4792 H       
  35 H35           -1.8430     3.4777    -4.4890 H       
  36 H36           -2.7718     5.7500    -4.3454 H       
  37 H37           -1.8953     5.8196    -0.1449 H       
  38 H38           -4.4271     9.7849    -4.0664 H       
  39 H39           -5.3507    12.0579    -3.8985 H       
  40 H40           -5.3631    13.2297    -1.7358 H       
  41 H41           -4.4520    12.1385     0.2717 H       
  42 H42           -3.5335     9.8615     0.1304 H       
@<TRIPOS>BOND
   1    1    2 2
   2    2    8 1
   3    2    3 am
   4    3    4 1
   5    3   29 1
   6    4    5 1
   7    4    6 1
   8    4   15 1
   9    6    7 1
  10    6    8 1
  11    6    9 1
  12    9   14 ar
  13    9   10 ar
  14   10   11 ar
  15   10   30 1
  16   11   12 ar
  17   11   31 1
  18   12   13 ar
  19   13   14 ar
  20   13   32 1
  21   14   33 1
  22   15   20 ar
  23   15   16 ar
  24   16   17 ar
  25   16   34 1
  26   17   18 ar
  27   17   35 1
  28   18   19 ar
  29   18   36 1
  30   19   20 ar
  31   19   21 1
  32   20   37 1
  33   21   22 3
  34   22   23 1
  35   23   28 ar
  36   23   24 ar
  37   24   25 ar
  38   24   38 1
  39   25   26 ar
  40   25   39 1
  41   26   27 ar
  42   26   40 1
  43   27   28 ar
  44   27   41 1
  45   28   42 1

#	End of record

