#	Name: ASD01900449
#	Creating user name:	WinNT
#	Creation time:	15. 06. 2019 19:51

#	Modifying user name:	WinNT
#	Modification time:	15. 06. 2019 19:51

#	Program:	/corina/corina34_cracker 3.40 0067  02.08.2006

@<TRIPOS>MOLECULE
ASD01900449
  29   31    0    0    0
SMALL
NO_CHARGES


@<TRIPOS>ATOM
   1 C1            -0.0263     1.3950     0.1280 C.ar    
   2 C2             0.0063     0.0001    -0.0604 C.ar    
   3 C3             1.2232    -0.6706     0.0570 C.ar    
   4 C4             2.3508     0.0690     0.3550 C.ar    
   5 C5             2.2451     1.4429     0.5278 C.ar    
   6 N6             1.0909     2.0597     0.4131 N.ar    
   7 N7            -2.1143     0.7217    -0.3259 N.2     
   8 N8            -1.2752    -0.3973    -0.3367 N.pl3   
   9 C9            -1.4236     1.7963    -0.0513 C.2     
  10 N10           -1.9266     3.0975     0.0450 N.pl3   
  11 C11           -3.3038     3.3227    -0.0405 C.ar    
  12 C12           -4.1962     2.3414     0.3729 C.ar    
  13 C13           -5.5560     2.5660     0.2875 C.ar    
  14 C14           -6.0304     3.7683    -0.2101 C.ar    
  15 C15           -5.1430     4.7477    -0.6227 C.ar    
  16 C16           -3.7819     4.5299    -0.5334 C.ar    
  17 C17           -6.5245     1.5020     0.7357 C.3     
  18 F18           -7.3612     3.9855    -0.2936 F       
  19 H19            1.2823    -1.7401    -0.0812 H       
  20 H20            3.3095    -0.4185     0.4535 H       
  21 H21            3.1302     2.0163     0.7607 H       
  22 H22           -1.5558    -1.3091    -0.5124 H       
  23 H23           -1.3200     3.8438     0.1710 H       
  24 H24           -3.8267     1.4034     0.7604 H       
  25 H25           -5.5153     5.6843    -1.0108 H       
  26 H26           -3.0900     5.2960    -0.8509 H       
  27 H27           -6.7524     1.6401     1.7927 H       
  28 H28           -7.4427     1.5778     0.1532 H       
  29 H29           -6.0790     0.5186     0.5855 H       
@<TRIPOS>BOND
   1    1    2 ar
   2    1    6 ar
   3    1    9 1
   4    2    3 ar
   5    2    8 1
   6    3    4 ar
   7    3   19 1
   8    4    5 ar
   9    4   20 1
  10    5    6 ar
  11    5   21 1
  12    7    8 1
  13    7    9 2
  14    8   22 1
  15    9   10 1
  16   10   11 1
  17   10   23 1
  18   11   12 ar
  19   11   16 ar
  20   12   13 ar
  21   12   24 1
  22   13   14 ar
  23   13   17 1
  24   14   15 ar
  25   14   18 1
  26   15   16 ar
  27   15   25 1
  28   16   26 1
  29   17   27 1
  30   17   28 1
  31   17   29 1

#	End of record

