#	Name: ASD05130114
#	Creating user name:	WinNT
#	Creation time:	15. 06. 2019 20:56

#	Modifying user name:	WinNT
#	Modification time:	15. 06. 2019 20:56

#	Program:	/corina/corina34_cracker 3.40 0067  02.08.2006

@<TRIPOS>MOLECULE
ASD05130114
  74   78    0    0    0
SMALL
NO_CHARGES


@<TRIPOS>ATOM
   1 N1            -0.1558     1.5470     0.1095 N.am    
   2 C2             0.0400     0.4138     0.8124 C.2     
   3 O3             1.1013     0.2226     1.3742 O.2     
   4 N4            -0.9405    -0.5074     0.8925 N.am    
   5 C5            -0.7022    -1.7291     1.5318 C.ar    
   6 C6             0.5562    -2.3126     1.4698 C.ar    
   7 C7             0.7883    -3.5203     2.1028 C.ar    
   8 C8            -0.2337    -4.1463     2.7976 C.ar    
   9 C9            -1.4868    -3.5663     2.8595 C.ar    
  10 C10           -1.7222    -2.3572     2.2342 C.ar    
  11 C11           -2.5961    -4.2507     3.6160 C.3     
  12 N12           -2.5874    -3.7984     5.0136 N.3     
  13 C13           -3.7902    -4.2564     5.7229 C.3     
  14 C14           -3.7051    -3.8338     7.1914 C.3     
  15 N15           -3.5747    -2.3722     7.2711 N.3     
  16 C16           -2.3719    -1.9142     6.5618 C.3     
  17 C17           -2.4570    -2.3368     5.0933 C.3     
  18 C18           -3.5660    -1.9199     8.6687 C.3     
  19 F19            2.0119    -4.0898     2.0431 F       
  20 C20            0.8288     2.5439     0.0990 C.ar    
  21 C21            0.4673     3.8772    -0.0699 C.ar    
  22 C22            1.4366     4.8646    -0.0803 C.ar    
  23 C23            2.7684     4.5318     0.0765 C.ar    
  24 C24            3.1386     3.1971     0.2464 C.ar    
  25 C25            2.1614     2.2030     0.2626 C.ar    
  26 F26           -0.8333     4.2083    -0.2245 F       
  27 N27            6.5458     2.7720     1.8380 N.am    
  28 C28            5.2475     3.0987     1.6843 C.2     
  29 C29            4.5663     2.8380     0.4142 C.2     
  30 C30            5.2567     2.2603    -0.6161 C.2     
  31 C31            6.6192     1.9264    -0.4302 C.ar    
  32 C32            7.3642     1.3342    -1.4575 C.ar    
  33 N33            8.6297     1.0305    -1.2684 N.ar    
  34 C34            9.2500     1.2660    -0.1171 C.ar    
  35 C35            8.5865     1.8496     0.9528 C.ar    
  36 C36            7.2470     2.1907     0.8067 C.ar    
  37 O37            4.6380     3.6124     2.6055 O.2     
  38 N38           10.5869     0.9212     0.0181 N.pl3   
  39 C39           11.2847     1.1744     1.2811 C.3     
  40 C40            7.2175     3.0434     3.1113 C.3     
  41 C41            7.0663     1.8336     4.0357 C.3     
  42 Cl42           3.9811     5.7739     0.0616 Cl      
  43 H43           -0.9766     1.6707    -0.3924 H       
  44 H44           -1.8114    -0.3235     0.5070 H       
  45 H45            1.3525    -1.8244     0.9277 H       
  46 H46           -0.0511    -5.0892     3.2914 H       
  47 H47           -2.7005    -1.9027     2.2878 H       
  48 H48           -3.5543    -4.0021     3.1596 H       
  49 H49           -2.4468    -5.3299     3.5824 H       
  50 H50           -4.6736    -3.8099     5.2666 H       
  51 H51           -3.8578    -5.3425     5.6603 H       
  52 H52           -4.6094    -4.1472     7.7130 H       
  53 H53           -2.8368    -4.3022     7.6549 H       
  54 H54           -2.3043    -0.8281     6.6243 H       
  55 H55           -1.4885    -2.3607     7.0181 H       
  56 H56           -1.5527    -2.0234     4.5717 H       
  57 H57           -3.3253    -1.8684     4.6298 H       
  58 H58           -2.7253    -2.3748     9.1926 H       
  59 H59           -3.4685    -0.8347     8.6988 H       
  60 H60           -4.4976    -2.2145     9.1518 H       
  61 H61            1.1515     5.8979    -0.2116 H       
  62 H62            2.4430     1.1692     0.3979 H       
  63 H63            4.7682     2.0614    -1.5586 H       
  64 H64            6.8974     1.1257    -2.4089 H       
  65 H65            9.1023     2.0361     1.8832 H       
  66 H66           11.0598     0.5124    -0.7237 H       
  67 H67           10.7897     0.6299     2.0852 H       
  68 H68           12.3187     0.8397     1.1985 H       
  69 H69           11.2647     2.2422     1.4995 H       
  70 H70            8.2757     3.2326     2.9307 H       
  71 H71            6.7670     3.9179     3.5806 H       
  72 H72            7.5661     2.0355     4.9831 H       
  73 H73            6.0081     1.6444     4.2162 H       
  74 H74            7.5168     0.9591     3.5663 H       
@<TRIPOS>BOND
   1    1    2 am
   2    1   20 1
   3    1   43 1
   4    2    3 2
   5    2    4 am
   6    4    5 1
   7    4   44 1
   8    5    6 ar
   9    5   10 ar
  10    6    7 ar
  11    6   45 1
  12    7    8 ar
  13    7   19 1
  14    8    9 ar
  15    8   46 1
  16    9   10 ar
  17    9   11 1
  18   10   47 1
  19   11   12 1
  20   11   48 1
  21   11   49 1
  22   12   13 1
  23   12   17 1
  24   13   14 1
  25   13   50 1
  26   13   51 1
  27   14   15 1
  28   14   52 1
  29   14   53 1
  30   15   16 1
  31   15   18 1
  32   16   17 1
  33   16   54 1
  34   16   55 1
  35   17   56 1
  36   17   57 1
  37   18   58 1
  38   18   59 1
  39   18   60 1
  40   20   21 ar
  41   20   25 ar
  42   21   22 ar
  43   21   26 1
  44   22   23 ar
  45   22   61 1
  46   23   24 ar
  47   23   42 1
  48   24   25 ar
  49   24   29 1
  50   25   62 1
  51   27   28 am
  52   27   36 1
  53   27   40 1
  54   28   29 1
  55   28   37 2
  56   29   30 2
  57   30   31 1
  58   30   63 1
  59   31   32 ar
  60   31   36 ar
  61   32   33 ar
  62   32   64 1
  63   33   34 ar
  64   34   35 ar
  65   34   38 1
  66   35   36 ar
  67   35   65 1
  68   38   39 1
  69   38   66 1
  70   39   67 1
  71   39   68 1
  72   39   69 1
  73   40   41 1
  74   40   70 1
  75   40   71 1
  76   41   72 1
  77   41   73 1
  78   41   74 1

#	End of record

