#	Name: ASD01913252
#	Creating user name:	WinNT
#	Creation time:	15. 06. 2019 20:01

#	Modifying user name:	WinNT
#	Modification time:	15. 06. 2019 20:01

#	Program:	/corina/corina34_cracker 3.40 0067  02.08.2006

@<TRIPOS>MOLECULE
ASD01913252
  46   49    0    0    0
SMALL
NO_CHARGES


@<TRIPOS>ATOM
   1 C1             0.5052     0.8814     1.0147 C.3     
   2 C2             1.0580    -0.4606     1.4269 C.2     
   3 C3             2.2904    -0.8998     1.1070 C.2     
   4 C4             3.2944    -0.1167     0.2996 C.3     
   5 C5             2.5616     1.0026    -0.4507 C.3     
   6 N6             1.6266     1.6676     0.4690 N.am    
   7 O7             0.4642    -1.4200     2.1488 O.3     
   8 C8             1.3330    -2.4372     2.2619 C.2     
   9 N9             2.4329    -2.1234     1.6336 N.2     
  10 C10            1.7905     2.9627     0.8042 C.2     
  11 O11            2.7782     3.5662     0.4332 O.2     
  12 C12            0.7687     3.6495     1.6231 C.ar    
  13 C13            1.1518     4.6132     2.5533 C.ar    
  14 C14            0.1813     5.2564     3.3213 C.ar    
  15 C15           -1.1681     4.9299     3.1525 C.ar    
  16 C16           -1.5392     3.9740     2.2287 C.ar    
  17 C17           -0.5831     3.3375     1.4616 C.ar    
  18 C18            0.5655     6.2480     4.2803 C.1     
  19 C19            0.8805     7.0609     5.0666 C.1     
  20 C20            1.2648     8.0525     6.0256 C.ar    
  21 C21            0.2867     8.6927     6.7914 C.ar    
  22 C22            0.6746     9.6475     7.7135 C.ar    
  23 C23            2.0271     9.9342     7.8429 C.ar    
  24 C24            2.9427     9.2630     7.0531 C.ar    
  25 N25            2.5499     8.3536     6.1850 N.ar    
  26 C26           -2.2188     5.6228     3.9811 C.3     
  27 C27            1.0795    -3.7296     2.9943 C.3     
  28 H28           -0.2609     0.7482     0.2508 H       
  29 H29            0.0821     1.3902     1.8809 H       
  30 H30            4.0399     0.3175     0.9658 H       
  31 H31            3.7825    -0.7777    -0.4166 H       
  32 H32            3.2861     1.7278    -0.8212 H       
  33 H33            2.0084     0.5781    -1.2885 H       
  34 H34            2.1955     4.8608     2.6794 H       
  35 H35           -2.5825     3.7255     2.1021 H       
  36 H36           -0.8813     2.5937     0.7375 H       
  37 H37           -0.7570     8.4456     6.6648 H       
  38 H38           -0.0584    10.1594     8.3194 H       
  39 H39            2.3612    10.6752     8.5540 H       
  40 H40            3.9950     9.4847     7.1525 H       
  41 H41           -2.5586     6.5189     3.4618 H       
  42 H42           -3.0625     4.9500     4.1347 H       
  43 H43           -1.7954     5.9008     4.9463 H       
  44 H44            0.0768    -3.7146     3.4214 H       
  45 H45            1.1656    -4.5643     2.2986 H       
  46 H46            1.8128    -3.8447     3.7925 H       
@<TRIPOS>BOND
   1    1    2 1
   2    1    6 1
   3    1   28 1
   4    1   29 1
   5    2    3 2
   6    2    7 1
   7    3    4 1
   8    3    9 1
   9    4    5 1
  10    4   30 1
  11    4   31 1
  12    5    6 1
  13    5   32 1
  14    5   33 1
  15    6   10 am
  16    7    8 1
  17    8    9 2
  18    8   27 1
  19   10   11 2
  20   10   12 1
  21   12   13 ar
  22   12   17 ar
  23   13   14 ar
  24   13   34 1
  25   14   15 ar
  26   14   18 1
  27   15   16 ar
  28   15   26 1
  29   16   17 ar
  30   16   35 1
  31   17   36 1
  32   18   19 3
  33   19   20 1
  34   20   21 ar
  35   20   25 ar
  36   21   22 ar
  37   21   37 1
  38   22   23 ar
  39   22   38 1
  40   23   24 ar
  41   23   39 1
  42   24   25 ar
  43   24   40 1
  44   26   41 1
  45   26   42 1
  46   26   43 1
  47   27   44 1
  48   27   45 1
  49   27   46 1

#	End of record

