#	Name: ASD04880420
#	Creating user name:	WinNT
#	Creation time:	15. 06. 2019 20:53

#	Modifying user name:	WinNT
#	Modification time:	15. 06. 2019 20:53

#	Program:	/corina/corina34_cracker 3.40 0067  02.08.2006

@<TRIPOS>MOLECULE
ASD04880420
  38   40    0    0    0
SMALL
NO_CHARGES


@<TRIPOS>ATOM
   1 C1            -0.9637     0.5583    -1.4179 C.ar    
   2 C2            -0.6019    -0.7141    -1.0126 C.ar    
   3 C3             0.7302    -1.0439    -0.8716 C.ar    
   4 C4             1.7145    -0.0899    -1.1396 C.ar    
   5 C5             1.3417     1.1928    -1.5489 C.ar    
   6 C6             0.0062     1.5086    -1.6851 C.ar    
   7 C7             3.1406    -0.4349    -0.9907 C.2     
   8 N8             3.5978    -1.6112    -0.7323 N.2     
   9 N9             4.9867    -1.6748    -0.6411 N.am    
  10 C10            5.5409    -0.3319    -0.8752 C.3     
  11 C11            4.2917     0.5364    -1.1242 C.3     
  12 C12            5.7052    -2.7849    -0.3806 C.2     
  13 C13            5.0203    -4.0306     0.0237 C.ar    
  14 O14            6.9170    -2.7616    -0.4782 O.2     
  15 C15            5.7478    -5.2112     0.1800 C.ar    
  16 C16            5.1008    -6.3722     0.5588 C.ar    
  17 C17            3.7335    -6.3642     0.7827 C.ar    
  18 C18            3.0083    -5.1962     0.6285 C.ar    
  19 C19            3.6436    -4.0297     0.2565 C.ar    
  20 F20            5.8025    -7.5167     0.7104 F       
  21 C21            1.1223    -2.4301    -0.4291 C.3     
  22 N22            1.4252    -2.4179     1.0082 N.3     
  23 H23           -2.0080     0.8098    -1.5305 H       
  24 H24           -1.3641    -1.4507    -0.8058 H       
  25 H25            2.0976     1.9356    -1.7574 H       
  26 H26           -0.2835     2.4997    -2.0017 H       
  27 H27            6.0861     0.0164     0.0021 H       
  28 H28            6.1855    -0.3308    -1.7541 H       
  29 H29            4.3201     0.9693    -2.1241 H       
  30 H30            4.2135     1.3191    -0.3697 H       
  31 H31            6.8135    -5.2177     0.0051 H       
  32 H32            3.2317    -7.2737     1.0786 H       
  33 H33            1.9427    -5.1967     0.8043 H       
  34 H34            3.0754    -3.1190     0.1367 H       
  35 H35            0.2998    -3.1191    -0.6213 H       
  36 H36            2.0036    -2.7527    -0.9835 H       
  37 H37            1.6911    -3.3367     1.3295 H       
  38 H38            2.1408    -1.7393     1.2212 H       
@<TRIPOS>BOND
   1    1    2 ar
   2    1    6 ar
   3    1   23 1
   4    2    3 ar
   5    2   24 1
   6    3    4 ar
   7    3   21 1
   8    4    5 ar
   9    4    7 1
  10    5    6 ar
  11    5   25 1
  12    6   26 1
  13    7    8 2
  14    7   11 1
  15    8    9 1
  16    9   10 1
  17    9   12 am
  18   10   11 1
  19   10   27 1
  20   10   28 1
  21   11   29 1
  22   11   30 1
  23   12   13 1
  24   12   14 2
  25   13   15 ar
  26   13   19 ar
  27   15   16 ar
  28   15   31 1
  29   16   17 ar
  30   16   20 1
  31   17   18 ar
  32   17   32 1
  33   18   19 ar
  34   18   33 1
  35   19   34 1
  36   21   22 1
  37   21   35 1
  38   21   36 1
  39   22   37 1
  40   22   38 1

#	End of record

