#	Name: ASD09490007
#	Creating user name:	WinNT
#	Creation time:	15. 06. 2019 21:22

#	Modifying user name:	WinNT
#	Modification time:	15. 06. 2019 21:22

#	Program:	/corina/corina34_cracker 3.40 0067  02.08.2006

@<TRIPOS>MOLECULE
ASD09490007
  35   37    0    0    0
SMALL
NO_CHARGES


@<TRIPOS>ATOM
   1 C1             0.0132     1.3558     0.0065 C.ar    
   2 C2            -1.0732     1.7642     0.8065 C.ar    
   3 C3            -2.2608     1.0567     0.8183 C.ar    
   4 C4            -2.3857    -0.0747     0.0291 C.ar    
   5 C5            -1.3165    -0.4880    -0.7669 C.ar    
   6 C6            -0.1461     0.2052    -0.7891 C.ar    
   7 N7             1.0428     2.1962     0.1666 N.2     
   8 N8             0.9382     3.1875     0.9559 N.2     
   9 S9            -0.4798     3.2135     1.6208 S.3     
  10 N10           -3.5813    -0.8020     0.0303 N.am    
  11 C11           -4.7606    -0.1598     0.1463 C.2     
  12 N12           -5.9151    -0.8487     0.0517 N.am    
  13 O13           -4.7829     1.0409     0.3364 O.2     
  14 C14           -7.1970    -0.1507     0.1778 C.3     
  15 C15           -7.6538     0.3105    -1.1822 C.ar    
  16 C16           -8.4427    -0.5138    -1.9626 C.ar    
  17 C17           -8.8617    -0.0908    -3.2101 C.ar    
  18 C18           -8.4922     1.1567    -3.6771 C.ar    
  19 C19           -7.7040     1.9813    -2.8964 C.ar    
  20 C20           -7.2886     1.5600    -1.6470 C.ar    
  21 C21           -5.8882    -2.2954    -0.1774 C.3     
  22 H22           -3.0835     1.3830     1.4373 H       
  23 H23           -1.4217    -1.3712    -1.3795 H       
  24 H24            0.6676    -0.1336    -1.4133 H       
  25 H25           -3.5613    -1.7682    -0.0524 H       
  26 H26           -7.9394    -0.8279     0.6001 H       
  27 H27           -7.0779     0.7122     0.8330 H       
  28 H28           -8.7315    -1.4885    -1.5978 H       
  29 H29           -9.4775    -0.7351    -3.8201 H       
  30 H30           -8.8190     1.4869    -4.6521 H       
  31 H31           -7.4150     2.9558    -3.2613 H       
  32 H32           -6.6728     2.2043    -1.0370 H       
  33 H33           -5.8691    -2.8147     0.7808 H       
  34 H34           -6.7776    -2.5918    -0.7335 H       
  35 H35           -4.9981    -2.5562    -0.7499 H       
@<TRIPOS>BOND
   1    1    2 ar
   2    1    7 1
   3    1    6 ar
   4    2    3 ar
   5    2    9 1
   6    3    4 ar
   7    3   22 1
   8    4    5 ar
   9    4   10 1
  10    5    6 ar
  11    5   23 1
  12    6   24 1
  13    7    8 2
  14    8    9 1
  15   10   11 am
  16   10   25 1
  17   11   12 am
  18   11   13 2
  19   12   14 1
  20   12   21 1
  21   14   15 1
  22   14   26 1
  23   14   27 1
  24   15   16 ar
  25   15   20 ar
  26   16   17 ar
  27   16   28 1
  28   17   18 ar
  29   17   29 1
  30   18   19 ar
  31   18   30 1
  32   19   20 ar
  33   19   31 1
  34   20   32 1
  35   21   33 1
  36   21   34 1
  37   21   35 1

#	End of record

