#	Name: ASD05720034
#	Creating user name:	WinNT
#	Creation time:	15. 06. 2019 21:01

#	Modifying user name:	WinNT
#	Modification time:	15. 06. 2019 21:01

#	Program:	/corina/corina34_cracker 3.40 0067  02.08.2006

@<TRIPOS>MOLECULE
ASD05720034
  54   58    0    0    0
SMALL
NO_CHARGES


@<TRIPOS>ATOM
   1 O1            -0.0161     1.3330     0.0094 O.3     
   2 C2             0.0021    -0.0041     0.0020 C.2     
   3 N3             1.2341    -0.5298    -0.0123 N.am    
   4 C4             2.2199     0.5610    -0.0151 C.3     
   5 C5             1.3491     1.8402    -0.0009 C.3     
   6 C6             1.6138     2.5623    -1.3373 C.3     
   7 C7             2.1003     1.4410    -2.2880 C.3     
   8 C8             2.9739     0.5616    -1.3599 C.3     
   9 O9            -1.0071    -0.6806     0.0084 O.2     
  10 C10            3.0943    -3.5863    -0.0453 C.2     
  11 N11            2.7900    -2.2849    -0.0354 N.2     
  12 C12            1.5321    -1.8861    -0.0220 C.2     
  13 C13            0.4906    -2.8362    -0.0171 C.2     
  14 C14            0.7949    -4.1539    -0.0267 C.2     
  15 N15            2.1075    -4.5363    -0.0410 N.pl3   
  16 N16            2.7207    -5.7942    -0.0536 N.2     
  17 C17            4.0220    -5.6411    -0.0654 C.2     
  18 C18            4.3162    -4.2721    -0.0665 C.2     
  19 C19            5.6651    -3.6634    -0.0846 C.ar    
  20 C20            6.6352    -4.0880     0.8252 C.ar    
  21 C21            7.8900    -3.5212     0.8079 C.ar    
  22 C22            8.1919    -2.5230    -0.1184 C.ar    
  23 C23            7.2232    -2.0983    -1.0277 C.ar    
  24 C24            5.9698    -2.6683    -1.0152 C.ar    
  25 N25           11.2834    -0.6891    -0.6263 N.pl3   
  26 N26            9.9474    -0.9678    -0.9575 N.2     
  27 C27            9.5434    -1.9126    -0.1362 C.2     
  28 N28           10.5555    -2.2316     0.6823 N.2     
  29 C29           11.6021    -1.5034     0.3958 C.2     
  30 H30            2.8889     0.5101     0.8440 H       
  31 H31            1.5577     2.4681     0.8653 H       
  32 H32            0.6957     3.0115    -1.7161 H       
  33 H33            2.3875     3.3201    -1.2143 H       
  34 H34            1.2565     0.8718    -2.6778 H       
  35 H35            2.6965     1.8556    -3.1009 H       
  36 H36            3.9647     1.0001    -1.2411 H       
  37 H37            3.0493    -0.4514    -1.7550 H       
  38 H38           -0.5404    -2.5149    -0.0055 H       
  39 H39            0.0100    -4.8957    -0.0228 H       
  40 H40            4.7487    -6.4400    -0.0761 H       
  41 H41            6.4014    -4.8606     1.5427 H       
  42 H42            8.6404    -3.8493     1.5119 H       
  43 H43            7.4577    -1.3254    -1.7447 H       
  44 H44            5.2214    -2.3428    -1.7225 H       
  45 H45           11.8637    -0.0398    -1.0536 H       
  46 H46           12.5593    -1.5480     0.8941 H       
  47 C47           18.7307    10.3084     7.6896 C.2     
  48 C48           18.7511     8.8015     7.6813 C.3     
  49 O49           19.7687    10.9267     7.6830 O.2     
  50 O50           17.5593    10.9636     7.6987 O.3     
  51 F51           20.0763     8.3532     7.6662 F       
  52 F52           18.1090     8.3201     8.8272 F       
  53 F53           18.0872     8.3324     6.5427 F       
  54 H54           17.5968    11.9299     7.7037 H       
@<TRIPOS>BOND
   1    1    2 1
   2    1    5 1
   3    2    3 am
   4    2    9 2
   5    3    4 1
   6    3   12 1
   7    4    5 1
   8    4    8 1
   9    4   30 1
  10    5    6 1
  11    5   31 1
  12    6    7 1
  13    6   32 1
  14    6   33 1
  15    7    8 1
  16    7   34 1
  17    7   35 1
  18    8   36 1
  19    8   37 1
  20   10   11 1
  21   10   15 1
  22   10   18 2
  23   11   12 2
  24   12   13 1
  25   13   14 2
  26   13   38 1
  27   14   15 1
  28   14   39 1
  29   15   16 1
  30   16   17 2
  31   17   18 1
  32   17   40 1
  33   18   19 1
  34   19   20 ar
  35   19   24 ar
  36   20   21 ar
  37   20   41 1
  38   21   22 ar
  39   21   42 1
  40   22   23 ar
  41   22   27 1
  42   23   24 ar
  43   23   43 1
  44   24   44 1
  45   25   26 1
  46   25   29 1
  47   25   45 1
  48   26   27 2
  49   27   28 1
  50   28   29 2
  51   29   46 1
  52   47   48 1
  53   47   49 2
  54   47   50 1
  55   48   51 1
  56   48   52 1
  57   48   53 1
  58   50   54 1

#	End of record

