#	Name: ASD03320187
#	Creating user name:	WinNT
#	Creation time:	15. 06. 2019 20:36

#	Modifying user name:	WinNT
#	Modification time:	15. 06. 2019 20:36

#	Program:	/corina/corina34_cracker 3.40 0067  02.08.2006

@<TRIPOS>MOLECULE
ASD03320187
  40   42    0    0    0
SMALL
NO_CHARGES


@<TRIPOS>ATOM
   1 C1             0.0171     1.1815     0.1259 C.ar    
   2 C2            -0.0833    -0.1742    -0.1913 C.ar    
   3 N3            -1.2591    -0.7614    -0.2800 N.ar    
   4 C4            -2.3843    -0.1065    -0.0758 C.ar    
   5 C5            -2.3753     1.2502     0.2461 C.ar    
   6 C6            -1.1528     1.9123     0.3562 C.ar    
   7 C7             1.3403     1.8334     0.2230 C.2     
   8 O8             1.4171     3.0146     0.4999 O.2     
   9 N9             2.4615     1.1181     0.0046 N.am    
  10 C10            3.7090     1.7544     0.0041 C.ar    
  11 C11           -3.6486     1.9780     0.4740 C.ar    
  12 C12            3.9498     2.8119     0.8714 C.ar    
  13 C13            5.1801     3.4389     0.8703 C.ar    
  14 C14            6.1753     3.0128     0.0028 C.ar    
  15 C15            5.9355     1.9565    -0.8639 C.ar    
  16 C16            4.7077     1.3245    -0.8596 C.ar    
  17 O17            7.3862     3.6313     0.0017 O.3     
  18 C18            8.3643     3.1408    -0.9175 C.3     
  19 F19            7.8789     3.2624    -2.2239 F       
  20 F20            9.5418     3.8847    -0.7864 F       
  21 F21            8.6297     1.7951    -0.6420 F       
  22 C22           -4.5721     1.5294     1.4212 C.ar    
  23 N23           -5.6940     2.2075     1.5924 N.ar    
  24 C24           -5.9457     3.2910     0.8850 C.ar    
  25 N25           -5.1018     3.7479    -0.0188 N.ar    
  26 C26           -3.9539     3.1338    -0.2488 C.ar    
  27 C27           -3.6990    -0.8339    -0.1923 C.3     
  28 H28            0.8142    -0.7487    -0.3666 H       
  29 H29           -1.1111     2.9627     0.6041 H       
  30 H30            2.4044     0.1626    -0.1523 H       
  31 H31            3.1748     3.1441     1.5463 H       
  32 H32            5.3675     4.2613     1.5447 H       
  33 H33            6.7107     1.6256    -1.5392 H       
  34 H34            4.5212     0.5021    -1.5343 H       
  35 H35           -4.3730     0.6423     2.0042 H       
  36 H36           -6.8722     3.8206     1.0508 H       
  37 H37           -3.2674     3.5140    -0.9909 H       
  38 H38           -4.0207    -1.1634     0.7956 H       
  39 H39           -4.4486    -0.1643    -0.6139 H       
  40 H40           -3.5786    -1.7002    -0.8429 H       
@<TRIPOS>BOND
   1    1    2 ar
   2    1    7 1
   3    1    6 ar
   4    2    3 ar
   5    2   28 1
   6    3    4 ar
   7    4    5 ar
   8    4   27 1
   9    5    6 ar
  10    5   11 1
  11    6   29 1
  12    7    8 2
  13    7    9 am
  14    9   10 1
  15    9   30 1
  16   10   12 ar
  17   10   16 ar
  18   11   22 ar
  19   11   26 ar
  20   12   13 ar
  21   12   31 1
  22   13   14 ar
  23   13   32 1
  24   14   15 ar
  25   14   17 1
  26   15   16 ar
  27   15   33 1
  28   16   34 1
  29   17   18 1
  30   18   19 1
  31   18   20 1
  32   18   21 1
  33   22   23 ar
  34   22   35 1
  35   23   24 ar
  36   24   25 ar
  37   24   36 1
  38   25   26 ar
  39   26   37 1
  40   27   38 1
  41   27   39 1
  42   27   40 1

#	End of record

