#	Name: ASD01918216
#	Creating user name:	WinNT
#	Creation time:	15. 06. 2019 20:11

#	Modifying user name:	WinNT
#	Modification time:	15. 06. 2019 20:11

#	Program:	/corina/corina34_cracker 3.40 0067  02.08.2006

@<TRIPOS>MOLECULE
ASD01918216
  45   46    0    0    0
SMALL
NO_CHARGES


@<TRIPOS>ATOM
   1 C1            -0.0133     1.3777     0.0656 C.ar    
   2 C2             0.0057    -0.0038     0.0643 C.ar    
   3 C3             1.2135    -0.6824     0.0286 C.ar    
   4 C4             2.4068     0.0172    -0.0055 C.ar    
   5 C5             2.4026     1.3962    -0.0042 C.ar    
   6 C6             1.1888     2.0889     0.0307 C.ar    
   7 C7             1.1777     3.5208     0.0313 C.1     
   8 C8             1.1685     4.6948     0.0318 C.1     
   9 C9             1.1574     6.1268     0.0324 C.ar    
  10 N10           -0.0698     8.1405     0.0738 N.ar    
  11 C11           -0.0552     6.8282     0.0736 C.ar    
  12 C12            2.3597     6.8474    -0.0025 C.ar    
  13 C13            2.2977     8.2272    -0.0005 C.ar    
  14 C14            1.0509     8.8533     0.0358 C.ar    
  15 C15            0.9763    10.3307     0.0380 C.2     
  16 N16           -0.2210    10.9450    -0.0371 N.am    
  17 O17            1.9947    10.9905     0.1075 O.2     
  18 C18           -1.4376    10.1557    -0.2443 C.3     
  19 C19           -0.3057    12.4021     0.0886 C.3     
  20 C20            0.5168    13.0585    -1.0221 C.3     
  21 C21           -1.7667    12.8403    -0.0319 C.3     
  22 C22            0.2442    12.8294     1.4509 C.3     
  23 F23           -1.1550    -0.6942     0.0984 F       
  24 C24           -1.9542     9.6512     1.1046 C.3     
  25 H25           -0.9548     1.9063     0.0889 H       
  26 H26            1.2234    -1.7624     0.0278 H       
  27 H27            3.3443    -0.5183    -0.0329 H       
  28 H28            3.3353     1.9400    -0.0302 H       
  29 H29           -0.9871     6.2833     0.1051 H       
  30 H30            3.3107     6.3362    -0.0299 H       
  31 H31            3.2035     8.8148    -0.0264 H       
  32 H32           -2.1987    10.7779    -0.7151 H       
  33 H33           -1.2138     9.3055    -0.8886 H       
  34 H34            0.1250    12.7541    -1.9926 H       
  35 H35            0.4537    14.1426    -0.9286 H       
  36 H36            1.5576    12.7463    -0.9363 H       
  37 H37           -2.3527    12.3727     0.7593 H       
  38 H38           -1.8297    13.9245     0.0616 H       
  39 H39           -2.1585    12.5359    -1.0024 H       
  40 H40            1.2850    12.5173     1.5367 H       
  41 H41            0.1811    13.9136     1.5443 H       
  42 H42           -0.3418    12.3619     2.2421 H       
  43 H43           -1.1931     9.0289     1.5755 H       
  44 H44           -2.1780    10.5014     1.7490 H       
  45 H45           -2.8594     9.0639     0.9504 H       
@<TRIPOS>BOND
   1    1    2 ar
   2    1    6 ar
   3    1   25 1
   4    2    3 ar
   5    2   23 1
   6    3    4 ar
   7    3   26 1
   8    4    5 ar
   9    4   27 1
  10    5    6 ar
  11    5   28 1
  12    6    7 1
  13    7    8 3
  14    8    9 1
  15    9   12 ar
  16    9   11 ar
  17   10   11 ar
  18   10   14 ar
  19   11   29 1
  20   12   13 ar
  21   12   30 1
  22   13   14 ar
  23   13   31 1
  24   14   15 1
  25   15   16 am
  26   15   17 2
  27   16   18 1
  28   16   19 1
  29   18   24 1
  30   18   32 1
  31   18   33 1
  32   19   20 1
  33   19   21 1
  34   19   22 1
  35   20   34 1
  36   20   35 1
  37   20   36 1
  38   21   37 1
  39   21   38 1
  40   21   39 1
  41   22   40 1
  42   22   41 1
  43   22   42 1
  44   24   43 1
  45   24   44 1
  46   24   45 1

#	End of record

