#	Name: ASD03092646
#	Creating user name:	WinNT
#	Creation time:	15. 06. 2019 20:32

#	Modifying user name:	WinNT
#	Modification time:	15. 06. 2019 20:32

#	Program:	/corina/corina34_cracker 3.40 0067  02.08.2006

@<TRIPOS>MOLECULE
ASD03092646
  42   45    0    0    0
SMALL
NO_CHARGES


@<TRIPOS>ATOM
   1 C1            -1.1328     1.3659     0.0874 C.3     
   2 C2            -0.7887    -0.0982    -0.0084 C.ar    
   3 N3            -0.5976    -0.6322    -1.1988 N.ar    
   4 C4            -0.2923    -1.9175    -1.3314 C.ar    
   5 O5            -0.0977    -2.4555    -2.5610 O.3     
   6 C6            -0.3025    -1.6611    -3.6452 C.ar    
   7 C7             0.6542    -0.7257    -4.0098 C.ar    
   8 C8             0.4482     0.0829    -5.1121 C.ar    
   9 C9            -0.7144    -0.0385    -5.8549 C.ar    
  10 O10           -1.1524     0.6267    -6.9646 O.3     
  11 C11           -2.2018    -0.1918    -7.5141 C.3     
  12 O12           -2.7170    -0.9003    -6.3714 O.3     
  13 C13           -1.6770    -0.9774    -5.4906 C.ar    
  14 C14           -1.4659    -1.7903    -4.3896 C.ar    
  15 C15           -0.1742    -2.7077    -0.1840 C.ar    
  16 N16            0.1461    -4.0653    -0.2760 N.pl3   
  17 C17           -0.3852    -2.1005     1.0592 C.ar    
  18 N18           -0.6833    -0.8014     1.0989 N.ar    
  19 C19           -0.2737    -2.8867     2.3104 C.ar    
  20 C20            0.8430    -3.6900     2.5351 C.ar    
  21 C21            0.9417    -4.4197     3.7024 C.ar    
  22 C22           -0.0646    -4.3563     4.6495 C.ar    
  23 C23           -1.1759    -3.5618     4.4344 C.ar    
  24 C24           -1.2844    -2.8214     3.2720 C.ar    
  25 F25           -2.3676    -2.0413     3.0644 F       
  26 C26            0.0504    -5.1569     5.9211 C.3     
  27 F27            0.6980    -4.3918     6.8970 F       
  28 F28           -1.2281    -5.5024     6.3718 F       
  29 F29            0.7882    -6.3198     5.6748 F       
  30 H30           -0.2159     1.9505     0.1624 H       
  31 H31           -1.6848     1.6684    -0.8025 H       
  32 H32           -1.7466     1.5378     0.9716 H       
  33 H33            1.5613    -0.6286    -3.4317 H       
  34 H34            1.1948     0.8105    -5.3941 H       
  35 H35           -2.9777     0.4294    -7.9613 H       
  36 H36           -1.7986    -0.8900    -8.2476 H       
  37 H37           -2.2089    -2.5219    -4.1081 H       
  38 H38            0.2711    -4.4764    -1.1456 H       
  39 H39            0.2433    -4.5964     0.5299 H       
  40 H40            1.6295    -3.7417     1.7968 H       
  41 H41            1.8069    -5.0422     3.8767 H       
  42 H42           -1.9582    -3.5164     5.1776 H       
@<TRIPOS>BOND
   1    1    2 1
   2    1   30 1
   3    1   31 1
   4    1   32 1
   5    2   18 ar
   6    2    3 ar
   7    3    4 ar
   8    4    5 1
   9    4   15 ar
  10    5    6 1
  11    6   14 ar
  12    6    7 ar
  13    7    8 ar
  14    7   33 1
  15    8    9 ar
  16    8   34 1
  17    9   13 ar
  18    9   10 1
  19   10   11 1
  20   11   12 1
  21   11   35 1
  22   11   36 1
  23   12   13 1
  24   13   14 ar
  25   14   37 1
  26   15   16 1
  27   15   17 ar
  28   16   38 1
  29   16   39 1
  30   17   18 ar
  31   17   19 1
  32   19   24 ar
  33   19   20 ar
  34   20   21 ar
  35   20   40 1
  36   21   22 ar
  37   21   41 1
  38   22   23 ar
  39   22   26 1
  40   23   24 ar
  41   23   42 1
  42   24   25 1
  43   26   27 1
  44   26   28 1
  45   26   29 1

#	End of record

