#	Name: ASD04880491
#	Creating user name:	WinNT
#	Creation time:	15. 06. 2019 20:53

#	Modifying user name:	WinNT
#	Modification time:	15. 06. 2019 20:53

#	Program:	/corina/corina34_cracker 3.40 0067  02.08.2006

@<TRIPOS>MOLECULE
ASD04880491
  37   39    0    0    0
SMALL
NO_CHARGES


@<TRIPOS>ATOM
   1 C1             0.0261     1.3055     0.0495 C.2     
   2 O2             0.1091     0.0924     0.0595 O.2     
   3 N3             1.1413     2.0565    -0.0439 N.am    
   4 N4             1.1756     3.4417    -0.1912 N.2     
   5 C5             2.3649     3.9346    -0.2582 C.2     
   6 C6             3.3803     2.8193    -0.1524 C.3     
   7 C7             2.5215     1.5482    -0.0006 C.3     
   8 C8             2.6851     5.3637    -0.4144 C.ar    
   9 C9             1.6588     6.2986    -0.6270 C.ar    
  10 C10            1.9733     7.6425    -0.7728 C.ar    
  11 C11            3.2898     8.0563    -0.7088 C.ar    
  12 C12            4.3042     7.1371    -0.4999 C.ar    
  13 C13            4.0104     5.7981    -0.3465 C.ar    
  14 S14           -0.0194     5.7680    -0.7086 S.3     
  15 C15           -0.9235     7.3155    -0.9892 C.3     
  16 C16           -1.2982     1.9564     0.1336 C.ar    
  17 C17           -2.4621     1.1897     0.0551 C.ar    
  18 C18           -3.6967     1.8047     0.1349 C.ar    
  19 C19           -3.7796     3.1793     0.2922 C.ar    
  20 C20           -2.6290     3.9427     0.3704 C.ar    
  21 C21           -1.3901     3.3395     0.2977 C.ar    
  22 F22           -4.8249     1.0653     0.0592 F       
  23 H23            3.9882     2.7689    -1.0557 H       
  24 H24            4.0102     2.9579     0.7263 H       
  25 H25            2.7207     1.0601     0.9534 H       
  26 H26            2.7041     0.8632    -0.8285 H       
  27 H27            1.1880     8.3656    -0.9367 H       
  28 H28            3.5294     9.1032    -0.8229 H       
  29 H29            5.3302     7.4709    -0.4523 H       
  30 H30            4.8048     5.0861    -0.1786 H       
  31 H31           -0.7400     7.9989    -0.1602 H       
  32 H32           -0.5827     7.7719    -1.9186 H       
  33 H33           -1.9908     7.1054    -1.0576 H       
  34 H34           -2.3977     0.1187    -0.0681 H       
  35 H35           -4.7466     3.6562     0.3535 H       
  36 H36           -2.7003     5.0134     0.4926 H       
  37 H37           -0.4929     3.9371     0.3636 H       
@<TRIPOS>BOND
   1    1    2 2
   2    1    3 am
   3    1   16 1
   4    3    4 1
   5    3    7 1
   6    4    5 2
   7    5    6 1
   8    5    8 1
   9    6    7 1
  10    6   23 1
  11    6   24 1
  12    7   25 1
  13    7   26 1
  14    8    9 ar
  15    8   13 ar
  16    9   10 ar
  17    9   14 1
  18   10   11 ar
  19   10   27 1
  20   11   12 ar
  21   11   28 1
  22   12   13 ar
  23   12   29 1
  24   13   30 1
  25   14   15 1
  26   15   31 1
  27   15   32 1
  28   15   33 1
  29   16   17 ar
  30   16   21 ar
  31   17   18 ar
  32   17   34 1
  33   18   19 ar
  34   18   22 1
  35   19   20 ar
  36   19   35 1
  37   20   21 ar
  38   20   36 1
  39   21   37 1

#	End of record

