#	Name: ASD04882519
#	Creating user name:	WinNT
#	Creation time:	15. 06. 2019 20:54

#	Modifying user name:	WinNT
#	Modification time:	15. 06. 2019 20:54

#	Program:	/corina/corina34_cracker 3.40 0067  02.08.2006

@<TRIPOS>MOLECULE
ASD04882519
  72   76    0    0    0
SMALL
NO_CHARGES


@<TRIPOS>ATOM
   1 C1            -0.0215     1.4013    -0.0094 C.ar    
   2 C2            -0.0117     0.0037    -0.0051 C.ar    
   3 C3            -1.2095    -0.7018    -0.0165 C.ar    
   4 C4            -2.4098    -0.0266    -0.0315 C.ar    
   5 C5            -2.4268     1.3710    -0.0354 C.ar    
   6 C6            -1.2240     2.0827    -0.0192 C.ar    
   7 N7             1.1996    -0.6831     0.0100 N.3     
   8 C8             1.3065    -1.5360     1.2020 C.3     
   9 C9             1.3723    -1.4734    -1.2168 C.3     
  10 C10            2.7461    -2.1477    -1.1969 C.3     
  11 N11            2.8530    -3.0007    -0.0050 N.3     
  12 C12            2.6803    -2.2103     1.2219 C.3     
  13 C13           -3.7127     2.0940    -0.0514 C.2     
  14 O14           -3.7266     3.3099    -0.0548 O.2     
  15 N15           -4.8721     1.4068    -0.0624 N.am    
  16 N16            1.1863     2.1109     0.0021 N.am    
  17 C17            4.0578    -3.6837     0.0101 C.2     
  18 C18            1.2294     3.3599     0.5068 C.2     
  19 C19            2.5092     4.0695     0.5995 C.2     
  20 O20            0.2059     3.8988     0.8856 O.2     
  21 C21            2.6935     5.3314     1.0877 C.2     
  22 C22            4.0665     5.6058     0.9887 C.2     
  23 C23            4.6527     4.5133     0.4513 C.2     
  24 O24            3.7118     3.5878     0.2228 O.3     
  25 N25            4.9978    -3.6016    -0.9014 N.2     
  26 C26            6.1236     4.3596     0.1615 C.3     
  27 C27            6.0214    -4.4016    -0.5573 C.2     
  28 C28            5.7149    -5.0035     0.6044 C.2     
  29 N29            4.4696    -4.5490     0.9755 N.pl3   
  30 C30            3.7254    -4.9310     2.1782 C.3     
  31 C31           -6.1490     2.1247    -0.0783 C.3     
  32 C32           -7.3004     1.1173    -0.0883 C.3     
  33 C33           -8.6340     1.8671    -0.1049 C.3     
  34 N34           -9.7365     0.9024    -0.1145 N.am    
  35 C35          -10.3353     0.3925     0.9705 C.2     
  36 C36          -10.3710     0.3404    -1.3167 C.3     
  37 C37          -11.4529    -0.6017    -0.7542 C.3     
  38 O38          -11.3185    -0.4703     0.6906 O.3     
  39 O39          -10.0142     0.6866     2.1049 O.2     
  40 H40           -1.1988    -1.7817    -0.0139 H       
  41 H41           -3.3386    -0.5775    -0.0406 H       
  42 H42           -1.2341     3.1627    -0.0218 H       
  43 H43            1.1878    -0.9260     2.0975 H       
  44 H44            0.5277    -2.2981     1.1748 H       
  45 H45            0.5943    -2.2348    -1.2714 H       
  46 H46            1.3016    -0.8178    -2.0847 H       
  47 H47            2.8648    -2.7577    -2.0924 H       
  48 H48            3.5249    -1.3856    -1.1697 H       
  49 H49            3.4584    -1.4489     1.2765 H       
  50 H50            2.7511    -2.8659     2.0898 H       
  51 H51           -4.8610     0.4369    -0.0597 H       
  52 H52            1.9917     1.7034    -0.3532 H       
  53 H53            1.9306     5.9908     1.4744 H       
  54 H54            4.5614     6.5185     1.2862 H       
  55 H55            6.6235     3.9373     1.0333 H       
  56 H56            6.2582     3.6951    -0.6919 H       
  57 H57            6.5529     5.3352    -0.0663 H       
  58 H58            6.9339    -4.5378    -1.1187 H       
  59 H59            6.3300    -5.7072     1.1456 H       
  60 H60            3.9776    -4.2517     2.9926 H       
  61 H61            2.6557    -4.8752     1.9766 H       
  62 H62            3.9894    -5.9502     2.4604 H       
  63 H63           -6.2237     2.7531     0.8093 H       
  64 H64           -6.2041     2.7483    -0.9706 H       
  65 H65           -7.2258     0.4890    -0.9758 H       
  66 H66           -7.2453     0.4937     0.8040 H       
  67 H67           -8.7087     2.4954     0.7826 H       
  68 H68           -8.6891     2.4907    -0.9972 H       
  69 H69          -10.8247     1.1305    -1.9150 H       
  70 H70           -9.6452    -0.2192    -1.9067 H       
  71 H71          -12.4439    -0.2797    -1.0743 H       
  72 H72          -11.2646    -1.6290    -1.0660 H       
@<TRIPOS>BOND
   1    1    2 ar
   2    1   16 1
   3    1    6 ar
   4    2    3 ar
   5    2    7 1
   6    3    4 ar
   7    3   40 1
   8    4    5 ar
   9    4   41 1
  10    5    6 ar
  11    5   13 1
  12    6   42 1
  13    7    8 1
  14    7    9 1
  15    8   12 1
  16    8   43 1
  17    8   44 1
  18    9   10 1
  19    9   45 1
  20    9   46 1
  21   10   11 1
  22   10   47 1
  23   10   48 1
  24   11   12 1
  25   11   17 1
  26   12   49 1
  27   12   50 1
  28   13   14 2
  29   13   15 am
  30   15   31 1
  31   15   51 1
  32   16   18 am
  33   16   52 1
  34   17   25 2
  35   17   29 1
  36   18   19 1
  37   18   20 2
  38   19   21 2
  39   19   24 1
  40   21   22 1
  41   21   53 1
  42   22   23 2
  43   22   54 1
  44   23   24 1
  45   23   26 1
  46   25   27 1
  47   26   55 1
  48   26   56 1
  49   26   57 1
  50   27   28 2
  51   27   58 1
  52   28   29 1
  53   28   59 1
  54   29   30 1
  55   30   60 1
  56   30   61 1
  57   30   62 1
  58   31   32 1
  59   31   63 1
  60   31   64 1
  61   32   33 1
  62   32   65 1
  63   32   66 1
  64   33   34 1
  65   33   67 1
  66   33   68 1
  67   34   35 am
  68   34   36 1
  69   35   39 2
  70   35   38 1
  71   36   37 1
  72   36   69 1
  73   36   70 1
  74   37   38 1
  75   37   71 1
  76   37   72 1

#	End of record

