#	Name: ASD01880878
#	Creating user name:	WinNT
#	Creation time:	15. 06. 2019 19:41

#	Modifying user name:	WinNT
#	Modification time:	15. 06. 2019 19:41

#	Program:	/corina/corina34_cracker 3.40 0067  02.08.2006

@<TRIPOS>MOLECULE
ASD01880878
  43   45    0    0    0
SMALL
NO_CHARGES


@<TRIPOS>ATOM
   1 N1            -0.0158     1.3168     0.0093 N.ar    
   2 C2             0.0021    -0.0041     0.0020 C.ar    
   3 N3             1.1370    -0.6859    -0.0125 N.ar    
   4 C4             2.3046    -0.0652    -0.0203 C.ar    
   5 C5             2.3349     1.3205    -0.0131 C.ar    
   6 C6             1.1208     2.0113     0.0022 C.ar    
   7 C7             3.6458     2.0639    -0.0212 C.3     
   8 O8             4.7247     1.1269    -0.0361 O.3     
   9 C9             5.9827     1.6359    -0.0449 C.ar    
  10 C10            7.0791     0.7792    -0.0595 C.ar    
  11 C11            8.3510     1.2953    -0.0689 C.ar    
  12 C12            8.5533     2.6795    -0.0638 C.ar    
  13 C13            7.4486     3.5355    -0.0495 C.ar    
  14 C14            6.1747     3.0124    -0.0451 C.ar    
  15 C15            9.7213     0.6649    -0.0850 C.3     
  16 N16           10.6824     1.7737    -0.0884 N.am    
  17 C17           10.0043     2.9341    -0.0761 C.2     
  18 O18           10.5157     4.0371    -0.0757 O.2     
  19 C19            7.6512     5.0288    -0.0433 C.3     
  20 O20           -1.1723    -0.6792     0.0101 O.3     
  21 C21           -1.1003    -2.1064     0.0017 C.3     
  22 C22            1.0985     3.4431     0.0096 C.1     
  23 N23            1.0809     4.5789     0.0155 N.1     
  24 C24           12.6357     1.5980    -1.5496 C.3     
  25 C25           12.1410     1.6382    -0.1024 C.3     
  26 H26            3.2241    -0.6316    -0.0318 H       
  27 H27            3.7003     2.6949    -0.9083 H       
  28 H28            3.7166     2.6853     0.8715 H       
  29 H29            6.9295    -0.2904    -0.0632 H       
  30 H30            5.3215     3.6744    -0.0344 H       
  31 H31            9.8615     0.0503     0.8043 H       
  32 H32            9.8447     0.0594    -0.9829 H       
  33 H33            7.6910     5.3943    -1.0694 H       
  34 H34            6.8227     5.5057     0.4804 H       
  35 H35            8.5865     5.2665     0.4636 H       
  36 H36           -0.5776    -2.4385    -0.8953 H       
  37 H37           -0.5600    -2.4481     0.8845 H       
  38 H38           -2.1083    -2.5211     0.0095 H       
  39 H39           12.3516     2.5202    -2.0565 H       
  40 H40           13.7209     1.4972    -1.5600 H       
  41 H41           12.1869     0.7479    -2.0635 H       
  42 H42           12.5898     2.4883     0.4115 H       
  43 H43           12.4252     0.7160     0.4045 H       
@<TRIPOS>BOND
   1    1    2 ar
   2    1    6 ar
   3    2    3 ar
   4    2   20 1
   5    3    4 ar
   6    4    5 ar
   7    4   26 1
   8    5    6 ar
   9    5    7 1
  10    6   22 1
  11    7    8 1
  12    7   27 1
  13    7   28 1
  14    8    9 1
  15    9   10 ar
  16    9   14 ar
  17   10   11 ar
  18   10   29 1
  19   11   12 ar
  20   11   15 1
  21   12   13 ar
  22   12   17 1
  23   13   14 ar
  24   13   19 1
  25   14   30 1
  26   15   16 1
  27   15   31 1
  28   15   32 1
  29   16   17 am
  30   16   25 1
  31   17   18 2
  32   19   33 1
  33   19   34 1
  34   19   35 1
  35   20   21 1
  36   21   36 1
  37   21   37 1
  38   21   38 1
  39   22   23 3
  40   24   25 1
  41   24   39 1
  42   24   40 1
  43   24   41 1
  44   25   42 1
  45   25   43 1

#	End of record

