#	Name: ASD03240541
#	Creating user name:	WinNT
#	Creation time:	15. 06. 2019 20:35

#	Modifying user name:	WinNT
#	Modification time:	15. 06. 2019 20:35

#	Program:	/corina/corina34_cracker 3.40 0067  02.08.2006

@<TRIPOS>MOLECULE
ASD03240541
  74   81    0    0    0
SMALL
NO_CHARGES


@<TRIPOS>ATOM
   1 C1            -0.0574     1.4036    -0.0426 C.ar    
   2 C2            -0.0263     0.0252     0.0074 C.ar    
   3 N3             1.1189    -0.6269     0.0741 N.ar    
   4 C4             2.2847     0.0050     0.0971 C.ar    
   5 C5             2.3285     1.3964     0.0355 C.ar    
   6 C6             1.1384     2.1096    -0.0292 C.ar    
   7 N7             3.4565    -0.7387     0.2043 N.pl3   
   8 C8             4.2867    -0.5999     1.3131 C.ar    
   9 C9             4.8994     0.6260     1.5936 C.ar    
  10 C10            4.6937     1.7831     0.6948 C.2     
  11 N11            3.5466     2.0904     0.0192 N.pl3   
  12 C12            4.5088    -1.6845     2.1512 C.ar    
  13 C13            5.3217    -1.5469     3.2601 C.ar    
  14 C14            5.9192    -0.3312     3.5451 C.ar    
  15 C15            5.7129     0.7552     2.7191 C.ar    
  16 N16            5.6084     2.6902     0.4195 N.2     
  17 C17            5.1037     3.5983    -0.4312 C.2     
  18 C18            3.7925     3.2388    -0.7034 C.2     
  19 C19            2.8484     3.9446    -1.5909 C.ar    
  20 C20            2.7322     5.3355    -1.5281 C.ar    
  21 C21            2.0705     3.2258    -2.5020 C.ar    
  22 C22            1.1905     3.8923    -3.3288 C.ar    
  23 C23            1.0769     5.2696    -3.2574 C.ar    
  24 C24            1.8479     5.9886    -2.3610 C.ar    
  25 C25            5.8180     4.7715    -0.9796 C.ar    
  26 C26            0.1130     5.9905    -4.1641 C.3     
  27 N27           -0.9356     5.1105    -4.6971 N.3     
  28 C28           -0.4267     7.3027    -3.5710 C.3     
  29 C29           -0.2875     7.9047    -4.9793 C.3     
  30 C30            0.8021     6.8483    -5.2384 C.3     
  31 C31            6.7504     5.4521    -0.1926 C.ar    
  32 C32            7.4107     6.5354    -0.6988 C.ar    
  33 C33            7.1534     6.9632    -2.0048 C.ar    
  34 C34            6.2203     6.2818    -2.7919 C.ar    
  35 C35            5.5644     5.1953    -2.2866 C.ar    
  36 C36            7.8663     8.1339    -2.5521 C.2     
  37 O37            7.3474     8.8112    -3.4184 O.2     
  38 N38            9.0923     8.4522    -2.0916 N.am    
  39 C39            9.9433     9.5379    -2.6000 C.3     
  40 C40           11.2570     9.5075    -1.7909 C.3     
  41 C41           11.3023     8.0517    -1.2562 C.3     
  42 C42            9.7995     7.7734    -0.9905 C.3     
  43 H43           -1.0004     1.9273    -0.0961 H       
  44 H44           -0.9534    -0.5286    -0.0079 H       
  45 H45            1.1429     3.1888    -0.0685 H       
  46 H46            3.6968    -1.3602    -0.5006 H       
  47 H47            4.0455    -2.6362     1.9365 H       
  48 H48            5.4917    -2.3934     3.9089 H       
  49 H49            6.5491    -0.2324     4.4169 H       
  50 H50            6.1800     1.7027     2.9437 H       
  51 H51            3.3331     5.8978    -0.8287 H       
  52 H52            2.1584     2.1509    -2.5591 H       
  53 H53            0.5888     3.3379    -4.0339 H       
  54 H54            1.7541     7.0633    -2.3106 H       
  55 H55           -0.5371     4.2746    -5.0978 H       
  56 H56           -1.6130     4.8826    -3.9848 H       
  57 H57           -1.4582     7.2340    -3.2255 H       
  58 H58            0.2381     7.7551    -2.8351 H       
  59 H59           -1.1750     7.7757    -5.5989 H       
  60 H60            0.0863     8.9285    -4.9815 H       
  61 H61            1.8033     7.1761    -4.9586 H       
  62 H62            0.7613     6.4151    -6.2378 H       
  63 H63            6.9488     5.1218     0.8163 H       
  64 H64            8.1312     7.0616    -0.0902 H       
  65 H65            6.0209     6.6120    -3.8007 H       
  66 H66            4.8438     4.6687    -2.8947 H       
  67 H67           10.1553     9.3786    -3.6573 H       
  68 H68            9.4440    10.4967    -2.4603 H       
  69 H69           12.1122     9.7081    -2.4363 H       
  70 H70           11.2190    10.2200    -0.9668 H       
  71 H71           11.7020     7.3715    -2.0084 H       
  72 H72           11.8781     7.9924    -0.3327 H       
  73 H73            9.5012     8.1888    -0.0279 H       
  74 H74            9.6010     6.7020    -1.0201 H       
@<TRIPOS>BOND
   1    1    2 ar
   2    1    6 ar
   3    1   43 1
   4    2    3 ar
   5    2   44 1
   6    3    4 ar
   7    4    5 ar
   8    4    7 1
   9    5    6 ar
  10    5   11 1
  11    6   45 1
  12    7    8 1
  13    7   46 1
  14    8    9 ar
  15    8   12 ar
  16    9   10 1
  17    9   15 ar
  18   10   11 1
  19   10   16 2
  20   11   18 1
  21   12   13 ar
  22   12   47 1
  23   13   14 ar
  24   13   48 1
  25   14   15 ar
  26   14   49 1
  27   15   50 1
  28   16   17 1
  29   17   18 2
  30   17   25 1
  31   18   19 1
  32   19   20 ar
  33   19   21 ar
  34   20   24 ar
  35   20   51 1
  36   21   22 ar
  37   21   52 1
  38   22   23 ar
  39   22   53 1
  40   23   24 ar
  41   23   26 1
  42   24   54 1
  43   25   31 ar
  44   25   35 ar
  45   26   27 1
  46   26   28 1
  47   26   30 1
  48   27   55 1
  49   27   56 1
  50   28   29 1
  51   28   57 1
  52   28   58 1
  53   29   30 1
  54   29   59 1
  55   29   60 1
  56   30   61 1
  57   30   62 1
  58   31   32 ar
  59   31   63 1
  60   32   33 ar
  61   32   64 1
  62   33   34 ar
  63   33   36 1
  64   34   35 ar
  65   34   65 1
  66   35   66 1
  67   36   37 2
  68   36   38 am
  69   38   39 1
  70   38   42 1
  71   39   40 1
  72   39   67 1
  73   39   68 1
  74   40   41 1
  75   40   69 1
  76   40   70 1
  77   41   42 1
  78   41   71 1
  79   41   72 1
  80   42   73 1
  81   42   74 1

#	End of record

