#	Name: ASD01840178
#	Creating user name:	WinNT
#	Creation time:	15. 06. 2019 19:37

#	Modifying user name:	WinNT
#	Modification time:	15. 06. 2019 19:37

#	Program:	/corina/corina34_cracker 3.40 0067  02.08.2006

@<TRIPOS>MOLECULE
ASD01840178
  43   46    0    0    0
SMALL
NO_CHARGES


@<TRIPOS>ATOM
   1 C1            -1.7678     1.3791    -0.0603 C.3     
   2 C2            -1.8705    -0.1566    -0.0355 C.3     
   3 N3            -1.3165    -0.8039    -1.2272 N.am    
   4 C4            -1.7558    -2.0230    -1.5977 C.2     
   5 C5            -1.2028    -2.6691    -2.7872 C.2     
   6 O6            -2.6131    -2.5863    -0.9420 O.2     
   7 C7            -1.5777    -3.8907    -3.2410 C.2     
   8 C8            -0.8817    -4.3142    -4.4420 C.ar    
   9 C9             0.0431    -3.3595    -4.8859 C.ar    
  10 S10            0.0265    -1.9631    -3.8181 S.3     
  11 C11           -1.0020    -5.5046    -5.1947 C.ar    
  12 C12           -0.2066    -5.6487    -6.3101 C.ar    
  13 N13            0.6391    -4.6920    -6.6524 N.ar    
  14 N14            0.7614    -3.6065    -5.9839 N.ar    
  15 C15           -0.3004    -6.9014    -7.1426 C.3     
  16 C16           -1.9716    -6.5845    -4.7885 C.3     
  17 N17           -2.5416    -4.6674    -2.6125 N.pl3   
  18 C18           -0.8928    -0.1044     1.1523 C.3     
  19 N19           -0.4615     1.2038     0.6121 N.3     
  20 C20           -0.2969     2.1352     1.6330 C.ar    
  21 C21            0.8554     2.9165     1.7094 C.ar    
  22 C22           -1.2832     2.3155     2.6028 C.ar    
  23 C23           -1.0826     3.2488     3.5978 C.ar    
  24 N24            0.0244     3.9666     3.6395 N.ar    
  25 C25            0.9797     3.8293     2.7374 C.ar    
  26 Cl26           2.4086     4.8091     2.8459 Cl      
  27 H27           -1.6925     1.7981    -1.0637 H       
  28 H28           -2.5151     1.8793     0.5558 H       
  29 H29           -2.8622    -0.5258     0.2262 H       
  30 H30           -0.6334    -0.3551    -1.7497 H       
  31 H31           -1.0523    -6.7655    -7.9200 H       
  32 H32            0.6662    -7.1045    -7.6036 H       
  33 H33           -0.5830    -7.7402    -6.5064 H       
  34 H34           -2.9603    -6.3527    -5.1844 H       
  35 H35           -1.6363    -7.5422    -5.1865 H       
  36 H36           -2.0194    -6.6396    -3.7010 H       
  37 H37           -2.7714    -4.4988    -1.6853 H       
  38 H38           -2.9854    -5.3785    -3.1006 H       
  39 H39           -1.3843    -0.0382     2.1230 H       
  40 H40           -0.1185    -0.8707     1.1178 H       
  41 H41            1.6399     2.8087     0.9749 H       
  42 H42           -2.1917     1.7322     2.5746 H       
  43 H43           -1.8411     3.3946     4.3526 H       
@<TRIPOS>BOND
   1    1    2 1
   2    1   19 1
   3    1   27 1
   4    1   28 1
   5    2    3 1
   6    2   18 1
   7    2   29 1
   8    3    4 am
   9    3   30 1
  10    4    5 1
  11    4    6 2
  12    5    7 2
  13    5   10 1
  14    7    8 1
  15    7   17 1
  16    8    9 ar
  17    8   11 ar
  18    9   10 1
  19    9   14 ar
  20   11   12 ar
  21   11   16 1
  22   12   13 ar
  23   12   15 1
  24   13   14 ar
  25   15   31 1
  26   15   32 1
  27   15   33 1
  28   16   34 1
  29   16   35 1
  30   16   36 1
  31   17   37 1
  32   17   38 1
  33   18   19 1
  34   18   39 1
  35   18   40 1
  36   19   20 1
  37   20   22 ar
  38   20   21 ar
  39   21   25 ar
  40   21   41 1
  41   22   23 ar
  42   22   42 1
  43   23   24 ar
  44   23   43 1
  45   24   25 ar
  46   25   26 1

#	End of record

