#	Name: ASD01810666
#	Creating user name:	WinNT
#	Creation time:	15. 06. 2019 19:25

#	Modifying user name:	WinNT
#	Modification time:	15. 06. 2019 19:25

#	Program:	/corina/corina34_cracker 3.40 0067  02.08.2006

@<TRIPOS>MOLECULE
ASD01810666
  67   71    0    0    0
SMALL
NO_CHARGES


@<TRIPOS>ATOM
   1 C1            -0.1656     1.9480     0.4813 C.ar    
   2 C2             0.0727     0.5724     0.4942 C.ar    
   3 C3            -0.9783    -0.3148     0.3694 C.ar    
   4 C4            -2.2703     0.1512     0.2306 C.ar    
   5 C5            -2.5226     1.5249     0.2161 C.ar    
   6 C6            -1.4675     2.4251     0.3474 C.ar    
   7 C7            -3.9070     2.0226     0.0669 C.2     
   8 N8            -4.4246     2.8609     0.9865 N.am    
   9 O9            -4.5783     1.6755    -0.8852 O.2     
  10 C10           -5.8249     3.2967     0.8982 C.3     
  11 C11           -3.6009     3.3515     2.0999 C.3     
  12 C12           -4.3243     3.0537     3.4170 C.3     
  13 C13           -5.7329     3.6500     3.3669 C.3     
  14 C14           -6.5188     2.9996     2.2313 C.3     
  15 C15           -6.4356     3.3884     4.6741 C.ar    
  16 C16           -6.8782     4.4471     5.4448 C.ar    
  17 C17           -7.5228     4.2071     6.6439 C.ar    
  18 C18           -7.7251     2.9084     7.0721 C.ar    
  19 C19           -7.2833     1.8497     6.3009 C.ar    
  20 C20           -6.6426     2.0896     5.0997 C.ar    
  21 C21            0.9614     2.8968     0.6156 C.2     
  22 N22            2.2161     2.5739     0.8549 N.2     
  23 C23            2.9490     3.6828     0.9088 C.2     
  24 C24            2.1333     4.7442     0.6996 C.2     
  25 N25            0.8787     4.2572     0.5067 N.pl3   
  26 C26            4.4326     3.8223     1.1515 C.3     
  27 C27            4.8490     5.2361     0.7229 C.3     
  28 N28            3.9389     6.2226     1.3212 N.3     
  29 C29            2.6067     6.1745     0.6941 C.3     
  30 C30            1.4800     0.0546     0.6443 C.3     
  31 C31            4.5068     7.5754     1.2478 C.3     
  32 C32           -3.4109    -0.8243     0.0940 C.3     
  33 F33           -9.8038     2.5397     8.1568 F       
  34 F34           -7.9501     1.4543     8.9345 F       
  35 C35           -8.4269     2.6469     8.3798 C.3     
  36 F36           -8.1782     3.7037     9.2620 F       
  37 H37           -0.7885    -1.3779     0.3800 H       
  38 H38           -1.6571     3.4883     0.3371 H       
  39 H39           -5.8624     4.3674     0.6974 H       
  40 H40           -6.3264     2.7547     0.0965 H       
  41 H41           -2.6354     2.8457     2.0907 H       
  42 H42           -3.4533     4.4268     1.9991 H       
  43 H43           -4.3906     1.9752     3.5598 H       
  44 H44           -3.7707     3.4974     4.2445 H       
  45 H45           -5.6664     4.7250     3.1993 H       
  46 H46           -7.5298     3.4064     2.2090 H       
  47 H47           -6.5631     1.9221     2.3899 H       
  48 H48           -6.7201     5.4618     5.1103 H       
  49 H49           -7.8679     5.0343     7.2464 H       
  50 H50           -7.4410     0.8350     6.6356 H       
  51 H51           -6.2974     1.2624     4.4972 H       
  52 H52            0.0779     4.7756     0.3313 H       
  53 H53            4.6482     3.6794     2.2104 H       
  54 H54            4.9742     3.0833     0.5610 H       
  55 H55            5.8674     5.4318     1.0585 H       
  56 H56            4.8046     5.3137    -0.3635 H       
  57 H57            2.6703     6.5367    -0.3319 H       
  58 H58            1.9113     6.7938     1.2606 H       
  59 H59            1.7431     0.0186     1.7014 H       
  60 H60            1.5458    -0.9469     0.2192 H       
  61 H61            2.1688     0.7175     0.1208 H       
  62 H62            4.6749     7.8427     0.2046 H       
  63 H63            3.8129     8.2856     1.6976 H       
  64 H64            5.4538     7.6016     1.7868 H       
  65 H65           -3.7429    -1.1360     1.0843 H       
  66 H66           -4.2369    -0.3461    -0.4324 H       
  67 H67           -3.0777    -1.6964    -0.4687 H       
@<TRIPOS>BOND
   1    1    2 ar
   2    1   21 1
   3    1    6 ar
   4    2    3 ar
   5    2   30 1
   6    3    4 ar
   7    3   37 1
   8    4    5 ar
   9    4   32 1
  10    5    6 ar
  11    5    7 1
  12    6   38 1
  13    7    8 am
  14    7    9 2
  15    8   10 1
  16    8   11 1
  17   10   14 1
  18   10   39 1
  19   10   40 1
  20   11   12 1
  21   11   41 1
  22   11   42 1
  23   12   13 1
  24   12   43 1
  25   12   44 1
  26   13   14 1
  27   13   15 1
  28   13   45 1
  29   14   46 1
  30   14   47 1
  31   15   16 ar
  32   15   20 ar
  33   16   17 ar
  34   16   48 1
  35   17   18 ar
  36   17   49 1
  37   18   19 ar
  38   18   35 1
  39   19   20 ar
  40   19   50 1
  41   20   51 1
  42   21   22 2
  43   21   25 1
  44   22   23 1
  45   23   24 2
  46   23   26 1
  47   24   25 1
  48   24   29 1
  49   25   52 1
  50   26   27 1
  51   26   53 1
  52   26   54 1
  53   27   28 1
  54   27   55 1
  55   27   56 1
  56   28   29 1
  57   28   31 1
  58   29   57 1
  59   29   58 1
  60   30   59 1
  61   30   60 1
  62   30   61 1
  63   31   62 1
  64   31   63 1
  65   31   64 1
  66   32   65 1
  67   32   66 1
  68   32   67 1
  69   33   35 1
  70   34   35 1
  71   35   36 1

#	End of record

