#	Name: ASD01901330
#	Creating user name:	WinNT
#	Creation time:	15. 06. 2019 19:53

#	Modifying user name:	WinNT
#	Modification time:	15. 06. 2019 19:53

#	Program:	/corina/corina34_cracker 3.40 0067  02.08.2006

@<TRIPOS>MOLECULE
ASD01901330
  42   45    0    0    0
SMALL
NO_CHARGES


@<TRIPOS>ATOM
   1 C1            -0.0168     1.3893     0.0097 C.ar    
   2 C2             1.1696     2.0934     0.0021 C.ar    
   3 C3             2.3788     1.4169    -0.0130 C.ar    
   4 C4             2.4022     0.0320    -0.0212 C.ar    
   5 C5             1.2201    -0.6801    -0.0142 C.ar    
   6 C6             0.0021    -0.0041     0.0020 C.ar    
   7 C7            -1.2718    -0.7657     0.0101 C.2     
   8 N8            -3.1802    -1.5350    -1.1478 N.2     
   9 C9            -2.0561    -0.8613    -1.1600 C.2     
  10 C10           -1.6993    -1.3891     1.1488 C.2     
  11 N11           -2.8740    -2.0808     1.1217 N.pl3   
  12 C12           -3.6099    -2.1458    -0.0334 C.2     
  13 C13           -3.5518    -2.7936     2.0737 C.2     
  14 C14           -4.6707    -3.2720     1.4892 C.2     
  15 N15           -4.6921    -2.8698     0.2151 N.2     
  16 C16           -5.7216    -4.1170     2.1621 C.3     
  17 O17           -5.3537    -4.3388     3.5250 O.3     
  18 C18           -6.2006    -5.0882     4.2785 C.ar    
  19 C19           -7.3591    -5.6043     3.7162 C.ar    
  20 C20           -5.9054    -5.3432     5.6099 C.ar    
  21 C21           -6.7680    -6.1053     6.3738 C.ar    
  22 C22           -7.9246    -6.6141     5.8124 C.ar    
  23 C23           -8.2185    -6.3658     4.4844 C.ar    
  24 F24            3.5384     2.1102    -0.0204 F       
  25 C25           -1.3313     2.1260     0.0325 C.3     
  26 O26           -1.0881     3.5342     0.0365 O.3     
  27 H27            1.1559     3.1733     0.0077 H       
  28 H28            3.3469    -0.4913    -0.0334 H       
  29 H29            1.2391    -1.7599    -0.0212 H       
  30 H30           -1.7287    -0.3772    -2.0682 H       
  31 H31           -1.1156    -1.3350     2.0558 H       
  32 H32           -3.2486    -2.9448     3.0992 H       
  33 H33           -6.6813    -3.6016     2.1241 H       
  34 H34           -5.8026    -5.0742     1.6472 H       
  35 H35           -7.5891    -5.4107     2.6789 H       
  36 H36           -5.0017    -4.9466     6.0486 H       
  37 H37           -6.5386    -6.3040     7.4103 H       
  38 H38           -8.5973    -7.2103     6.4111 H       
  39 H39           -9.1205    -6.7678     4.0471 H       
  40 H40           -1.9122     1.8601    -0.8507 H       
  41 H41           -1.8866     1.8507     0.9291 H       
  42 H42           -1.8916     4.0720     0.0509 H       
@<TRIPOS>BOND
   1    1    6 ar
   2    1    2 ar
   3    1   25 1
   4    2    3 ar
   5    2   27 1
   6    3    4 ar
   7    3   24 1
   8    4    5 ar
   9    4   28 1
  10    5    6 ar
  11    5   29 1
  12    6    7 1
  13    7   10 2
  14    7    9 1
  15    8    9 2
  16    8   12 1
  17    9   30 1
  18   10   11 1
  19   10   31 1
  20   11   13 1
  21   11   12 1
  22   12   15 2
  23   13   14 2
  24   13   32 1
  25   14   15 1
  26   14   16 1
  27   16   17 1
  28   16   33 1
  29   16   34 1
  30   17   18 1
  31   18   20 ar
  32   18   19 ar
  33   19   23 ar
  34   19   35 1
  35   20   21 ar
  36   20   36 1
  37   21   22 ar
  38   21   37 1
  39   22   23 ar
  40   22   38 1
  41   23   39 1
  42   25   26 1
  43   25   40 1
  44   25   41 1
  45   26   42 1

#	End of record

