#	Name: ASD09530028
#	Creating user name:	WinNT
#	Creation time:	15. 06. 2019 21:22

#	Modifying user name:	WinNT
#	Modification time:	15. 06. 2019 21:22

#	Program:	/corina/corina34_cracker 3.40 0067  02.08.2006

@<TRIPOS>MOLECULE
ASD09530028
  48   50    0    0    0
SMALL
NO_CHARGES


@<TRIPOS>ATOM
   1 C1             0.2991     1.1695     0.1544 C.ar    
   2 C2             0.0848    -0.1777    -0.0997 C.ar    
   3 C3             1.1486    -0.9900    -0.4654 C.ar    
   4 C4             2.4178    -0.4560    -0.5756 C.ar    
   5 C5             2.6287     0.8867    -0.3214 C.ar    
   6 C6             1.5702     1.6985     0.0427 C.ar    
   7 O7            -1.1647    -0.7006     0.0099 O.3     
   8 C8             4.0145     1.4663    -0.4415 C.3     
   9 C9             4.2337     1.9567    -1.8495 C.2     
  10 N10            5.4102     2.5178    -2.1922 N.am    
  11 O11            3.3514     1.8463    -2.6743 O.2     
  12 C12            5.6233     2.9945    -3.5610 C.3     
  13 C13            6.6738     4.0750    -3.5588 C.ar    
  14 N14            7.5676     4.1112    -2.5903 N.ar    
  15 C15            8.5056     5.0366    -2.5452 C.ar    
  16 C16            8.5837     6.0136    -3.5266 C.ar    
  17 C17            7.6561     6.0053    -4.5637 C.ar    
  18 C18            6.6907     5.0117    -4.5755 C.ar    
  19 O19            9.5521     6.9659    -3.4757 O.3     
  20 C20           10.4651     6.9046    -2.3781 C.3     
  21 C21            6.0895     1.8317    -4.4392 C.3     
  22 C22           -1.4410    -1.4669     1.0932 C.2     
  23 S23           -2.9032    -2.3166     1.3443 S.3     
  24 C24           -2.2972    -2.9259     2.8822 C.2     
  25 C25           -1.0677    -2.4412     3.0634 C.2     
  26 N26           -0.6336    -1.6665     2.0862 N.2     
  27 C27           11.4750     8.0485    -2.4903 C.3     
  28 F28           10.7978     9.2725    -2.4659 F       
  29 F29           12.3688     7.9885    -1.4157 F       
  30 F30           12.1817     7.9305    -3.6919 F       
  31 H31           -0.5280     1.8048     0.4349 H       
  32 H32            0.9845    -2.0390    -0.6634 H       
  33 H33            3.2461    -1.0878    -0.8602 H       
  34 H34            1.7376     2.7470     0.2404 H       
  35 H35            4.1217     2.2988     0.2540 H       
  36 H36            4.7512     0.6985    -0.2053 H       
  37 H37            6.1159     2.6061    -1.5325 H       
  38 H38            4.6898     3.3961    -3.9553 H       
  39 H39            9.2204     5.0340    -1.7356 H       
  40 H40            7.6905     6.7525    -5.3427 H       
  41 H41            5.9548     4.9744    -5.3651 H       
  42 H42            9.9145     6.9966    -1.4419 H       
  43 H43           10.9927     5.9510    -2.3971 H       
  44 H44            7.0230     1.4301    -4.0449 H       
  45 H45            5.3297     1.0501    -4.4408 H       
  46 H46            6.2481     2.1863    -5.4576 H       
  47 H47           -2.8284    -3.5777     3.5600 H       
  48 H48           -0.4740    -2.6670     3.9369 H       
@<TRIPOS>BOND
   1    1    2 ar
   2    1    6 ar
   3    1   31 1
   4    2    3 ar
   5    2    7 1
   6    3    4 ar
   7    3   32 1
   8    4    5 ar
   9    4   33 1
  10    5    6 ar
  11    5    8 1
  12    6   34 1
  13    7   22 1
  14    8    9 1
  15    8   35 1
  16    8   36 1
  17    9   10 am
  18    9   11 2
  19   10   12 1
  20   10   37 1
  21   12   13 1
  22   12   21 1
  23   12   38 1
  24   13   14 ar
  25   13   18 ar
  26   14   15 ar
  27   15   16 ar
  28   15   39 1
  29   16   17 ar
  30   16   19 1
  31   17   18 ar
  32   17   40 1
  33   18   41 1
  34   19   20 1
  35   20   27 1
  36   20   42 1
  37   20   43 1
  38   21   44 1
  39   21   45 1
  40   21   46 1
  41   22   23 1
  42   22   26 2
  43   23   24 1
  44   24   25 2
  45   24   47 1
  46   25   26 1
  47   25   48 1
  48   27   28 1
  49   27   29 1
  50   27   30 1

#	End of record

