#	Name: ASD01901317
#	Creating user name:	WinNT
#	Creation time:	15. 06. 2019 19:53

#	Modifying user name:	WinNT
#	Modification time:	15. 06. 2019 19:53

#	Program:	/corina/corina34_cracker 3.40 0067  02.08.2006

@<TRIPOS>MOLECULE
ASD01901317
  40   43    0    0    0
SMALL
NO_CHARGES


@<TRIPOS>ATOM
   1 C1            -0.0167     1.3816     0.0096 C.ar    
   2 C2             0.0021    -0.0041     0.0020 C.ar    
   3 C3             1.2173    -0.6827    -0.0132 C.ar    
   4 C4             2.4067     0.0233    -0.0208 C.ar    
   5 C5             2.3943     1.4044    -0.0128 C.ar    
   6 C6             1.1821     2.0908     0.0020 C.ar    
   7 C7             1.1681     3.5750     0.0096 C.2     
   8 N8             0.6209     5.6018    -1.0706 N.2     
   9 C9             0.6314     4.2914    -1.0822 C.2     
  10 C10            1.6693     4.2673     1.0762 C.2     
  11 C11            1.1156     6.2896    -0.0304 C.2     
  12 N12            1.2112     7.5910     0.2021 N.2     
  13 N13            1.6406     5.6303     1.0512 N.pl3   
  14 C14            2.0556     6.5824     1.9428 C.2     
  15 C15            1.7796     7.7853     1.3957 C.2     
  16 C16            2.0654     9.1240     2.0259 C.3     
  17 O17            2.6784     8.9288     3.3019 O.3     
  18 C18            3.0029    10.0439     4.0076 C.ar    
  19 C19            2.7318    11.3002     3.4851 C.ar    
  20 C20            3.6008     9.9279     5.2541 C.ar    
  21 C21            3.9299    11.0630     5.9694 C.ar    
  22 C22            3.6633    12.3139     5.4442 C.ar    
  23 C23            3.0628    12.4322     4.2044 C.ar    
  24 N24           -1.1992    -0.7202     0.0101 N.pl3   
  25 F25            1.2351    -2.0335    -0.0202 F       
  26 H26           -0.9585     1.9103     0.0170 H       
  27 H27            3.3476    -0.5068    -0.0326 H       
  28 H28            3.3248     1.9525    -0.0184 H       
  29 H29            0.2284     3.7576    -1.9301 H       
  30 H30            2.0814     3.7429     1.9257 H       
  31 H31            2.5166     6.4048     2.9032 H       
  32 H32            2.7377     9.6921     1.3829 H       
  33 H33            1.1323     9.6732     2.1513 H       
  34 H34            2.2627    11.3931     2.5168 H       
  35 H35            3.8086     8.9510     5.6650 H       
  36 H36            4.3953    10.9732     6.9398 H       
  37 H37            3.9210    13.2001     6.0052 H       
  38 H38            2.8519    13.4104     3.7982 H       
  39 H39           -2.0458    -0.2470     0.0211 H       
  40 H40           -1.1857    -1.6901     0.0048 H       
@<TRIPOS>BOND
   1    1    2 ar
   2    1    6 ar
   3    1   26 1
   4    2    3 ar
   5    2   24 1
   6    3    4 ar
   7    3   25 1
   8    4    5 ar
   9    4   27 1
  10    5    6 ar
  11    5   28 1
  12    6    7 1
  13    7   10 2
  14    7    9 1
  15    8    9 2
  16    8   11 1
  17    9   29 1
  18   10   13 1
  19   10   30 1
  20   11   13 1
  21   11   12 2
  22   12   15 1
  23   13   14 1
  24   14   15 2
  25   14   31 1
  26   15   16 1
  27   16   17 1
  28   16   32 1
  29   16   33 1
  30   17   18 1
  31   18   20 ar
  32   18   19 ar
  33   19   23 ar
  34   19   34 1
  35   20   21 ar
  36   20   35 1
  37   21   22 ar
  38   21   36 1
  39   22   23 ar
  40   22   37 1
  41   23   38 1
  42   24   39 1
  43   24   40 1

#	End of record

