#	Name: ASD08170155
#	Creating user name:	WinNT
#	Creation time:	15. 06. 2019 21:17

#	Modifying user name:	WinNT
#	Modification time:	15. 06. 2019 21:17

#	Program:	/corina/corina34_cracker 3.40 0067  02.08.2006

@<TRIPOS>MOLECULE
ASD08170155
  72   73    0    0    0
SMALL
NO_CHARGES


@<TRIPOS>ATOM
   1 Cl1            0.0000     0.0000     0.0000 Cl      
   2 H2             0.0000     1.3700     0.0000 H       
   3 Cl3            5.0000     6.3700     5.0000 Cl      
   4 H4             5.0000     7.7400     5.0000 H       
   5 C5            11.9999    26.3270    11.7951 C.3     
   6 C6            13.4146    28.3864    11.7926 C.3     
   7 C7            14.8500    28.9160    11.7818 C.3     
   8 C8            14.8295    30.4228    11.7901 C.2     
   9 C9            12.0204    24.8202    11.7868 C.2     
  10 S10           14.8018    31.4708    10.3714 S.3     
  11 C11           14.7924    32.8370    11.4048 C.2     
  12 N12           14.8095    32.4270    12.6372 N.2     
  13 N13           14.8235    31.1810    12.8402 N.2     
  14 S14           12.0209    23.7875    10.3567 S.3     
  15 N15           12.0464    24.0508    12.8284 N.2     
  16 N16           12.0606    22.8071    12.6118 N.2     
  17 C17           12.0499    22.4102    11.3750 C.2     
  18 N18           12.0622    21.0866    10.9483 N.am    
  19 C19           12.0877    20.0873    11.8523 C.2     
  20 O20           12.1000    20.3423    13.0379 O.2     
  21 N21           14.7705    34.1651    10.9926 N.am    
  22 C22           14.7651    35.1547    11.9076 C.2     
  23 C23           14.7414    36.5938    11.4609 C.3     
  24 O24           14.7794    34.8870    13.0904 O.2     
  25 C25           12.1009    18.6531    11.3898 C.3     
  26 C26           12.1292    17.7393    12.5878 C.ar    
  27 C27           13.4353    26.8566    11.7842 C.3     
  28 C28           14.7399    37.4948    12.6690 C.ar    
  29 C29           10.9453    17.3040    13.1532 C.ar    
  30 C30           15.9361    37.9244    13.2123 C.ar    
  31 C31           15.9347    38.7508    14.3204 C.ar    
  32 C32           14.7371    39.1479    14.8849 C.ar    
  33 C33           13.5407    38.7190    14.3411 C.ar    
  34 C34           13.5421    37.8961    13.2303 C.ar    
  35 C35           10.9712    16.4658    14.2521 C.ar    
  36 C36           12.1811    16.0625    14.7854 C.ar    
  37 C37           13.3651    16.4971    14.2194 C.ar    
  38 C38           13.3392    17.3318    13.1179 C.ar    
  39 S39           12.2142    14.9950    16.1868 S.o2    
  40 S40           14.7353    40.2004    16.2981 S.o2    
  41 N41           12.2265    13.4398    15.6182 N.am    
  42 O42           13.4702    15.2012    16.8187 O.2     
  43 O43           10.9712    15.1689    16.8530 O.2     
  44 N44           14.7101    41.7616    15.7466 N.am    
  45 O45           13.4938    39.9871    16.9557 O.2     
  46 O46           15.9929    40.0198    16.9344 O.2     
  47 H47           11.4728    26.6881    10.9120 H       
  48 H48           11.4898    26.6785    12.6919 H       
  49 H49           12.9044    28.7379    12.6894 H       
  50 H50           12.8874    28.7475    10.9096 H       
  51 H51           15.3771    28.5549    12.6648 H       
  52 H52           15.3602    28.5645    10.8850 H       
  53 H53           12.0523    20.8827    10.0000 H       
  54 H54           14.7591    34.3792    10.0466 H       
  55 H55           15.6232    36.8006    10.8546 H       
  56 H56           13.8435    36.7762    10.8705 H       
  57 H57           11.2057    18.4529    10.8012 H       
  58 H58           12.9853    18.4769    10.7775 H       
  59 H59           13.9625    26.4955    12.6673 H       
  60 H60           13.9455    26.5051    10.8874 H       
  61 H61           10.0000    17.6190    12.7365 H       
  62 H62           16.8719    37.6141    12.7712 H       
  63 H63           16.8694    39.0859    14.7453 H       
  64 H64           12.6050    39.0290    14.7823 H       
  65 H65           12.6074    37.5611    12.8054 H       
  66 H66           10.0462    16.1262    14.6942 H       
  67 H67           14.3104    16.1823    14.6363 H       
  68 H68           14.2642    17.6713    12.6757 H       
  69 H69           12.6627    12.7400    16.1290 H       
  70 H70           11.7975    13.2285    14.7742 H       
  71 H71           14.6997    41.9390    14.7930 H       
  72 H72           14.7058    42.4987    16.3771 H       
@<TRIPOS>BOND
   1    1    2 1
   2    3    4 1
   3    5    9 1
   4    5   27 1
   5    5   47 1
   6    5   48 1
   7    6    7 1
   8    6   27 1
   9    6   49 1
  10    6   50 1
  11    7    8 1
  12    7   51 1
  13    7   52 1
  14    8   10 1
  15    8   13 2
  16    9   14 1
  17    9   15 2
  18   10   11 1
  19   11   12 2
  20   11   21 1
  21   12   13 1
  22   14   17 1
  23   15   16 1
  24   16   17 2
  25   17   18 1
  26   18   19 am
  27   18   53 1
  28   19   20 2
  29   19   25 1
  30   21   22 am
  31   21   54 1
  32   22   23 1
  33   22   24 2
  34   23   28 1
  35   23   55 1
  36   23   56 1
  37   25   26 1
  38   25   57 1
  39   25   58 1
  40   26   29 ar
  41   26   38 ar
  42   27   59 1
  43   27   60 1
  44   28   30 ar
  45   28   34 ar
  46   29   35 ar
  47   29   61 1
  48   30   31 ar
  49   30   62 1
  50   31   32 ar
  51   31   63 1
  52   32   33 ar
  53   32   40 1
  54   33   34 ar
  55   33   64 1
  56   34   65 1
  57   35   36 ar
  58   35   66 1
  59   36   37 ar
  60   36   39 1
  61   37   38 ar
  62   37   67 1
  63   38   68 1
  64   39   41 am
  65   39   42 2
  66   39   43 2
  67   40   44 am
  68   40   45 2
  69   40   46 2
  70   41   69 1
  71   41   70 1
  72   44   71 1
  73   44   72 1

#	End of record

