#	Name: ASD07930813
#	Creating user name:	WinNT
#	Creation time:	15. 06. 2019 21:13

#	Modifying user name:	WinNT
#	Modification time:	15. 06. 2019 21:13

#	Program:	/corina/corina34_cracker 3.40 0067  02.08.2006

@<TRIPOS>MOLECULE
ASD07930813
  17   18    0    0    0
SMALL
NO_CHARGES


@<TRIPOS>ATOM
   1 C1            -0.0169     1.3924     0.0097 C.ar    
   2 C2             0.0021    -0.0041     0.0020 C.ar    
   3 N3             1.1294     2.0684     0.0024 N.ar    
   4 N4             1.1552    -0.6451    -0.0124 N.ar    
   5 C5             2.2909     0.0324    -0.0196 C.ar    
   6 C6             2.2772     1.4168    -0.0121 C.ar    
   7 C7            -1.3059     2.1172     0.0197 C.2     
   8 N8            -2.4990     1.5654     0.0228 N.2     
   9 C9            -3.4285     2.5258     0.0323 C.2     
  10 C10           -2.8040     3.7226     0.0352 C.2     
  11 N11           -1.4600     3.4729     0.0333 N.pl3   
  12 H12           -0.9250    -0.5580     0.0083 H       
  13 H13            3.2326    -0.4962    -0.0311 H       
  14 H14            3.2078     1.9648    -0.0180 H       
  15 H15           -4.4973     2.3708     0.0365 H       
  16 H16           -3.2767     4.6936     0.0425 H       
  17 H17           -0.7504     4.1341     0.0381 H       
@<TRIPOS>BOND
   1    1    2 ar
   2    1    3 ar
   3    1    7 1
   4    2    4 ar
   5    2   12 1
   6    3    6 ar
   7    4    5 ar
   8    5    6 ar
   9    5   13 1
  10    6   14 1
  11    7    8 2
  12    7   11 1
  13    8    9 1
  14    9   10 2
  15    9   15 1
  16   10   11 1
  17   10   16 1
  18   11   17 1

#	End of record

