#	Name: ASD01811665
#	Creating user name:	WinNT
#	Creation time:	15. 06. 2019 19:27

#	Modifying user name:	WinNT
#	Modification time:	15. 06. 2019 19:27

#	Program:	/corina/corina34_cracker 3.40 0067  02.08.2006

@<TRIPOS>MOLECULE
ASD01811665
  57   61    0    0    0
SMALL
NO_CHARGES


@<TRIPOS>ATOM
   1 N1            -0.0158     1.3121     0.0093 N.ar    
   2 C2             0.0021    -0.0041     0.0020 C.ar    
   3 C3             1.1973    -0.7057    -0.0127 C.ar    
   4 C4             2.3959    -0.0152    -0.0204 C.ar    
   5 C5             2.3561     1.3765    -0.0130 C.ar    
   6 C6             1.1070     2.0193     0.0023 C.ar    
   7 N7             3.3288     2.3533    -0.0168 N.pl3   
   8 C8             2.7618     3.5824    -0.0050 C.2     
   9 C9             1.4022     3.4635     0.0073 C.2     
  10 C10            0.4245     4.5601     0.0223 C.2     
  11 N11            0.8472     5.8399     0.0251 N.am    
  12 O12           -0.7668     4.3130     0.0321 O.2     
  13 C13           -0.1277     6.9333     0.0401 C.3     
  14 C14           -0.5491     7.2244     1.4837 C.3     
  15 C15           -1.5068     8.4187     1.4966 C.3     
  16 O16           -0.8666     9.5473     0.8978 O.3     
  17 C17           -0.4927     9.3497    -0.4673 C.3     
  18 C18            0.5057     8.1928    -0.5590 C.3     
  19 C19            4.7713     2.0976    -0.0310 C.3     
  20 C20            5.2316     1.8952    -1.4516 C.ar    
  21 C21            5.6497     2.9795    -2.2016 C.ar    
  22 C22            6.0728     2.7998    -3.5030 C.ar    
  23 C23            6.0780     1.5232    -4.0611 C.ar    
  24 C24            5.6558     0.4344    -3.3011 C.ar    
  25 C25            5.2398     0.6249    -1.9989 C.ar    
  26 C26            6.5314     1.3238    -5.4602 C.2     
  27 C27            6.5877     0.0948    -6.1458 C.2     
  28 C28            7.0526     0.3362    -7.3910 C.2     
  29 N29            7.2844     1.6621    -7.4995 N.pl3   
  30 N30            6.9465     2.2650    -6.2812 N.2     
  31 O31            0.8369     7.9554    -1.9287 O.3     
  32 C32            7.7951     2.3511    -8.6873 C.3     
  33 H33           -0.9315    -0.5470     0.0080 H       
  34 H34            1.1928    -1.7857    -0.0178 H       
  35 H35            3.3386    -0.5422    -0.0316 H       
  36 H36            3.3037     4.5166    -0.0052 H       
  37 H37            1.7969     6.0370     0.0173 H       
  38 H38           -1.0025     6.6498    -0.5450 H       
  39 H39           -1.0508     6.3507     1.8999 H       
  40 H40            0.3326     7.4580     2.0805 H       
  41 H41           -2.4061     8.1696     0.9333 H       
  42 H42           -1.7764     8.6573     2.5254 H       
  43 H43           -1.3788     9.1128    -1.0562 H       
  44 H44           -0.0319    10.2590    -0.8532 H       
  45 H45            1.4087     8.4460    -0.0035 H       
  46 H46            5.2955     2.9490     0.4030 H       
  47 H47            4.9873     1.2023     0.5520 H       
  48 H48            5.6449     3.9687    -1.7682 H       
  49 H49            6.3987     3.6472    -4.0879 H       
  50 H50            5.6579    -0.5573    -3.7288 H       
  51 H51            4.9161    -0.2189    -1.4076 H       
  52 H52            6.3087    -0.8693    -5.7470 H       
  53 H53            7.2110    -0.4015    -8.1637 H       
  54 H54            1.2430     8.7127    -2.3721 H       
  55 H55            6.9594     2.6630    -9.3137 H       
  56 H56            8.3668     3.2272    -8.3814 H       
  57 H57            8.4390     1.6756    -9.2504 H       
@<TRIPOS>BOND
   1    1    2 ar
   2    1    6 ar
   3    2    3 ar
   4    2   33 1
   5    3    4 ar
   6    3   34 1
   7    4    5 ar
   8    4   35 1
   9    5    7 1
  10    5    6 ar
  11    6    9 1
  12    7    8 1
  13    7   19 1
  14    8    9 2
  15    8   36 1
  16    9   10 1
  17   10   11 am
  18   10   12 2
  19   11   13 1
  20   11   37 1
  21   13   14 1
  22   13   18 1
  23   13   38 1
  24   14   15 1
  25   14   39 1
  26   14   40 1
  27   15   16 1
  28   15   41 1
  29   15   42 1
  30   16   17 1
  31   17   18 1
  32   17   43 1
  33   17   44 1
  34   18   31 1
  35   18   45 1
  36   19   20 1
  37   19   46 1
  38   19   47 1
  39   20   21 ar
  40   20   25 ar
  41   21   22 ar
  42   21   48 1
  43   22   23 ar
  44   22   49 1
  45   23   24 ar
  46   23   26 1
  47   24   25 ar
  48   24   50 1
  49   25   51 1
  50   26   27 1
  51   26   30 2
  52   27   28 2
  53   27   52 1
  54   28   29 1
  55   28   53 1
  56   29   30 1
  57   29   32 1
  58   31   54 1
  59   32   55 1
  60   32   56 1
  61   32   57 1

#	End of record

