#	Name: ASD03091344
#	Creating user name:	WinNT
#	Creation time:	15. 06. 2019 20:30

#	Modifying user name:	WinNT
#	Modification time:	15. 06. 2019 20:30

#	Program:	/corina/corina34_cracker 3.40 0067  02.08.2006

@<TRIPOS>MOLECULE
ASD03091344
  54   58    0    0    0
SMALL
NO_CHARGES


@<TRIPOS>ATOM
   1 N1            -0.0289     1.3744     0.1011 N.am    
   2 C2            -0.0121     0.0267     0.2791 C.2     
   3 N3            -1.0808    -0.7096     0.2577 N.2     
   4 C4            -2.3106    -0.1736     0.0525 C.ar    
   5 C5            -2.4254     1.2208    -0.1423 C.ar    
   6 C6            -1.1962     2.0271    -0.1068 C.2     
   7 O7            -1.2263     3.2334    -0.2674 O.2     
   8 C8            -3.4599    -0.9669     0.0293 C.ar    
   9 C9            -4.6804    -0.3915    -0.1805 C.ar    
  10 C10           -4.7997     0.9847    -0.3734 C.ar    
  11 C11           -3.6768     1.7945    -0.3552 C.ar    
  12 N12           -6.0602     1.5497    -0.5867 N.3     
  13 C13            1.2270     2.1277     0.1408 C.3     
  14 C14           -5.9811     3.0149    -0.6204 C.3     
  15 C15           -6.6657     1.0348    -1.8229 C.3     
  16 C16           -8.1623     0.8339    -1.6371 C.3     
  17 C17           -8.9443     2.1316    -1.6070 C.3     
  18 N18           -8.0804     3.2903    -1.8746 N.3     
  19 C19           -7.3538     3.6686    -0.6530 C.3     
  20 C20           -6.3177     1.9635    -2.9718 C.3     
  21 C21           -7.2825     3.1336    -3.0718 C.3     
  22 C22            1.4567     3.0082    -1.0989 C.3     
  23 C23            2.0052     4.0782    -0.1402 C.3     
  24 C24            1.1385     3.4307     0.9527 C.3     
  25 C25            1.3156    -0.6470     0.5125 C.3     
  26 C26            1.1004    -2.1518     0.6856 C.3     
  27 H27           -3.3833    -2.0341     0.1767 H       
  28 H28           -5.5653    -1.0105    -0.1977 H       
  29 H29           -3.7701     2.8601    -0.5046 H       
  30 H30            2.0847     1.5072     0.4006 H       
  31 H31           -5.4466     3.3600     0.2647 H       
  32 H32           -5.4245     3.3181    -1.5072 H       
  33 H33           -6.2182     0.0647    -2.0388 H       
  34 H34           -8.5366     0.2192    -2.4556 H       
  35 H35           -8.3299     0.3031    -0.6999 H       
  36 H36           -9.7296     2.0914    -2.3619 H       
  37 H37           -9.4023     2.2484    -0.6248 H       
  38 H38           -7.9249     3.3481     0.2183 H       
  39 H39           -7.2364     4.7519    -0.6260 H       
  40 H40           -5.3087     2.3481    -2.8233 H       
  41 H41           -6.3466     1.3998    -3.9042 H       
  42 H42           -7.9469     2.9724    -3.9207 H       
  43 H43           -6.7132     4.0479    -3.2393 H       
  44 H44            2.2054     2.6108    -1.7841 H       
  45 H45            0.5356     3.3032    -1.6016 H       
  46 H46            3.0761     3.9920     0.0436 H       
  47 H47            1.6990     5.0924    -0.3965 H       
  48 H48            0.1304     3.8412     1.0109 H       
  49 H49            1.6304     3.3743     1.9238 H       
  50 H50            1.9685    -0.4692    -0.3420 H       
  51 H51            1.7762    -0.2399     1.4126 H       
  52 H52            0.4475    -2.3296     1.5401 H       
  53 H53            0.6397    -2.5589    -0.2145 H       
  54 H54            2.0607    -2.6391     0.8545 H       
@<TRIPOS>BOND
   1    1    2 1
   2    1   13 1
   3    1    6 am
   4    2    3 2
   5    2   25 1
   6    3    4 1
   7    4    5 ar
   8    4    8 ar
   9    5    6 1
  10    5   11 ar
  11    6    7 2
  12    8    9 ar
  13    8   27 1
  14    9   10 ar
  15    9   28 1
  16   10   11 ar
  17   10   12 1
  18   11   29 1
  19   12   15 1
  20   12   14 1
  21   13   22 1
  22   13   24 1
  23   13   30 1
  24   14   19 1
  25   14   31 1
  26   14   32 1
  27   15   16 1
  28   15   20 1
  29   15   33 1
  30   16   17 1
  31   16   34 1
  32   16   35 1
  33   17   18 1
  34   17   36 1
  35   17   37 1
  36   18   19 1
  37   18   21 1
  38   19   38 1
  39   19   39 1
  40   20   21 1
  41   20   40 1
  42   20   41 1
  43   21   42 1
  44   21   43 1
  45   22   23 1
  46   22   44 1
  47   22   45 1
  48   23   24 1
  49   23   46 1
  50   23   47 1
  51   24   48 1
  52   24   49 1
  53   25   26 1
  54   25   50 1
  55   25   51 1
  56   26   52 1
  57   26   53 1
  58   26   54 1

#	End of record

