#	Name: ASD02039432
#	Creating user name:	WinNT
#	Creation time:	15. 06. 2019 20:18

#	Modifying user name:	WinNT
#	Modification time:	15. 06. 2019 20:18

#	Program:	/corina/corina34_cracker 3.40 0067  02.08.2006

@<TRIPOS>MOLECULE
ASD02039432
  49   52    0    0    0
SMALL
NO_CHARGES


@<TRIPOS>ATOM
   1 C1            -0.3870     1.5997     0.3342 C.2     
   2 O2            -0.6563     0.2960     0.4936 O.3     
   3 C3             0.9665     2.2153     0.0893 C.3     
   4 N4             1.5932     2.5431     1.3722 N.am    
   5 C5             2.4695     1.5701     2.0292 C.3     
   6 C6             1.3636     3.7398     1.9481 C.2     
   7 C7             0.5513     4.7503     1.2485 C.2     
   8 C8             0.3309     6.0326     1.6584 C.2     
   9 N9            -0.1093     4.5768     0.0753 N.2     
  10 C10           -0.7165     5.6859    -0.2339 C.2     
  11 N11           -0.4644     6.6113     0.7281 N.pl3   
  12 O12            1.8271     3.9855     3.0455 O.2     
  13 C13           -0.9641     7.9882     0.7546 C.3     
  14 C14            3.8482     2.1381     2.4051 C.3     
  15 C15            3.7313     1.3424     3.7159 C.3     
  16 C16            2.2061     1.4236     3.5372 C.3     
  17 N17           -1.8354     0.0990     0.6751 N.2     
  18 C18           -2.5148     1.2195     0.6640 C.2     
  19 C19           -1.5661     2.2544     0.4298 C.2     
  20 C20           -3.9776     1.3770     0.8515 C.ar    
  21 C21           -4.7783     0.2560     1.0679 C.ar    
  22 C22           -6.1371     0.4041     1.2418 C.ar    
  23 C23           -6.7104     1.6710     1.2012 C.ar    
  24 C24           -5.9132     2.7905     0.9850 C.ar    
  25 C25           -4.5531     2.6467     0.8173 C.ar    
  26 S26           -8.4483     1.8580     1.4233 S.3     
  27 C27           -8.6866     3.6511     1.2868 C.3     
  28 F28           -8.2557     4.0843     0.0283 F       
  29 F29          -10.0430     3.9547     1.4453 F       
  30 F30           -7.9448     4.2972     2.2816 F       
  31 H31            1.5949     1.5079    -0.4518 H       
  32 H32            0.8508     3.1241    -0.5013 H       
  33 H33            2.5188     0.6191     1.4988 H       
  34 H34            0.7166     6.4971     2.5539 H       
  35 H35           -1.3207     5.8457    -1.1148 H       
  36 H36           -1.9195     8.0180     1.2784 H       
  37 H37           -0.2464     8.6253     1.2714 H       
  38 H38           -1.0981     8.3458    -0.2663 H       
  39 H39            4.6537     1.7944     1.7561 H       
  40 H40            3.8510     3.2185     2.5489 H       
  41 H41            4.1256     0.3285     3.6479 H       
  42 H42            4.0980     1.8826     4.5887 H       
  43 H43            1.7598     2.3087     3.9905 H       
  44 H44            1.6858     0.5031     3.8022 H       
  45 H45           -1.7454     3.3166     0.3532 H       
  46 H46           -4.3337    -0.7278     1.0987 H       
  47 H47           -6.7575    -0.4639     1.4094 H       
  48 H48           -6.3600     3.7732     0.9531 H       
  49 H49           -3.9345     3.5160     0.6499 H       
@<TRIPOS>BOND
   1    1    2 1
   2    1    3 1
   3    1   19 2
   4    2   17 1
   5    3    4 1
   6    3   31 1
   7    3   32 1
   8    4    5 1
   9    4    6 am
  10    5   14 1
  11    5   16 1
  12    5   33 1
  13    6    7 1
  14    6   12 2
  15    7    8 2
  16    7    9 1
  17    8   11 1
  18    8   34 1
  19    9   10 2
  20   10   11 1
  21   10   35 1
  22   11   13 1
  23   13   36 1
  24   13   37 1
  25   13   38 1
  26   14   15 1
  27   14   39 1
  28   14   40 1
  29   15   16 1
  30   15   41 1
  31   15   42 1
  32   16   43 1
  33   16   44 1
  34   17   18 2
  35   18   19 1
  36   18   20 1
  37   19   45 1
  38   20   21 ar
  39   20   25 ar
  40   21   22 ar
  41   21   46 1
  42   22   23 ar
  43   22   47 1
  44   23   24 ar
  45   23   26 1
  46   24   25 ar
  47   24   48 1
  48   25   49 1
  49   26   27 1
  50   27   28 1
  51   27   29 1
  52   27   30 1

#	End of record

