#	Name: ASD00111028
#	Creating user name:	WinNT
#	Creation time:	15. 06. 2019 18:30

#	Modifying user name:	WinNT
#	Modification time:	15. 06. 2019 18:30

#	Program:	/corina/corina34_cracker 3.40 0067  02.08.2006

@<TRIPOS>MOLECULE
ASD00111028
  37   39    0    0    0
SMALL
NO_CHARGES


@<TRIPOS>ATOM
   1 C1            -0.0168     1.3907     0.0097 C.ar    
   2 C2             0.0021    -0.0041     0.0020 C.ar    
   3 C3             1.2232    -0.6809    -0.0127 C.ar    
   4 C4             2.3999     0.0399    -0.0194 C.ar    
   5 C5             2.3748     1.4146    -0.0130 C.ar    
   6 C6             1.1703     2.0958     0.0021 C.ar    
   7 C7             3.7271    -0.6904    -0.0335 C.3     
   8 C8             4.3834    -0.4695    -1.3999 C.3     
   9 N9             5.1234     0.7816    -1.4224 N.3     
  10 C10            4.3383     2.0047    -1.3897 C.3     
  11 C11            3.6756     2.1915    -0.0222 C.3     
  12 C12            3.3913     3.6761     0.2145 C.3     
  13 C13           -1.2675    -0.7637     0.0099 C.2     
  14 C14           -1.5702    -1.8437    -0.7712 C.2     
  15 C15           -2.8635    -2.2564    -0.4474 C.2     
  16 N16           -3.3317    -1.4682     0.4868 N.2     
  17 N17           -2.3504    -0.5197     0.8021 N.pl3   
  18 C18           -2.4690     0.5478     1.7984 C.3     
  19 Br19          -0.4383    -2.6372    -2.0615 Br      
  20 H20           -0.9590     1.9186     0.0170 H       
  21 H21            1.2466    -1.7606    -0.0184 H       
  22 H22            1.1588     3.1757     0.0069 H       
  23 H23            4.3719    -0.2958     0.7518 H       
  24 H24            3.5619    -1.7558     0.1269 H       
  25 H25            5.0661    -1.2936    -1.6071 H       
  26 H26            3.6110    -0.4431    -2.1685 H       
  27 H27            5.8383     0.7917    -0.7105 H       
  28 H28            4.9903     2.8546    -1.5913 H       
  29 H29            3.5666     1.9559    -2.1580 H       
  30 H30            4.3342     1.8138     0.7598 H       
  31 H31            2.7244     4.0470    -0.5639 H       
  32 H32            2.9197     3.8049     1.1887 H       
  33 H33            4.3272     4.2342     0.1872 H       
  34 H34           -3.3902    -3.0870    -0.8936 H       
  35 H35           -2.1215     0.1829     2.7649 H       
  36 H36           -1.8621     1.3998     1.4920 H       
  37 H37           -3.5117     0.8549     1.8794 H       
@<TRIPOS>BOND
   1    1    2 ar
   2    1    6 ar
   3    1   20 1
   4    2    3 ar
   5    2   13 1
   6    3    4 ar
   7    3   21 1
   8    4    5 ar
   9    4    7 1
  10    5    6 ar
  11    5   11 1
  12    6   22 1
  13    7    8 1
  14    7   23 1
  15    7   24 1
  16    8    9 1
  17    8   25 1
  18    8   26 1
  19    9   10 1
  20    9   27 1
  21   10   11 1
  22   10   28 1
  23   10   29 1
  24   11   12 1
  25   11   30 1
  26   12   31 1
  27   12   32 1
  28   12   33 1
  29   13   14 2
  30   13   17 1
  31   14   15 1
  32   14   19 1
  33   15   16 2
  34   15   34 1
  35   16   17 1
  36   17   18 1
  37   18   35 1
  38   18   36 1
  39   18   37 1

#	End of record

