#	Name: ASD03081278
#	Creating user name:	WinNT
#	Creation time:	15. 06. 2019 20:27

#	Modifying user name:	WinNT
#	Modification time:	15. 06. 2019 20:27

#	Program:	/corina/corina34_cracker 3.40 0067  02.08.2006

@<TRIPOS>MOLECULE
ASD03081278
  29   31    0    0    0
SMALL
NO_CHARGES


@<TRIPOS>ATOM
   1 O1            -0.0162     1.3444     0.0094 O.3     
   2 C2             0.0021    -0.0041     0.0020 C.2     
   3 N3             1.2607    -0.3805    -0.0120 N.2     
   4 N4             2.0177     0.6597    -0.0137 N.2     
   5 C5             1.2725     1.7416    -0.0007 C.2     
   6 C6             1.7573     3.1372     0.0021 C.ar    
   7 C7             3.1280     3.4036    -0.0095 C.ar    
   8 C8             2.6660     5.7533     0.0076 C.ar    
   9 C9             0.8471     4.1956     0.0107 C.ar    
  10 C10            3.5737     4.7088    -0.0067 C.ar    
  11 C11            1.3066     5.4965     0.0134 C.ar    
  12 C12            5.0526     4.9982    -0.0188 C.3     
  13 C13           -2.4678    -0.3632     0.0246 C.ar    
  14 C14           -1.1769    -0.8945     0.0089 C.ar    
  15 C15           -1.0185    -2.2856    -0.0006 C.ar    
  16 C16           -2.1550    -3.0751     0.0060 C.ar    
  17 C17           -3.3991    -2.4709     0.0216 C.ar    
  18 N18           -3.5184    -1.1569     0.0307 N.ar    
  19 H19            3.8374     2.5894    -0.0204 H       
  20 H20            3.0203     6.7735     0.0101 H       
  21 H21           -0.2144     3.9965     0.0149 H       
  22 H22            0.6035     6.3162     0.0249 H       
  23 H23            5.3997     5.0734    -1.0493 H       
  24 H24            5.2430     5.9387     0.4983 H       
  25 H25            5.5848     4.1919     0.4859 H       
  26 H26           -2.6059     0.7079     0.0366 H       
  27 H27           -0.0347    -2.7310    -0.0131 H       
  28 H28           -2.0714    -4.1518    -0.0013 H       
  29 H29           -4.2876    -3.0848     0.0268 H       
@<TRIPOS>BOND
   1    1    2 1
   2    1    5 1
   3    2    3 2
   4    2   14 1
   5    3    4 1
   6    4    5 2
   7    5    6 1
   8    6    7 ar
   9    6    9 ar
  10    7   10 ar
  11    7   19 1
  12    8   10 ar
  13    8   11 ar
  14    8   20 1
  15    9   11 ar
  16    9   21 1
  17   10   12 1
  18   11   22 1
  19   12   23 1
  20   12   24 1
  21   12   25 1
  22   13   14 ar
  23   13   18 ar
  24   13   26 1
  25   14   15 ar
  26   15   16 ar
  27   15   27 1
  28   16   17 ar
  29   16   28 1
  30   17   18 ar
  31   17   29 1

#	End of record

