#	Name: ASD01915552
#	Creating user name:	WinNT
#	Creation time:	15. 06. 2019 20:05

#	Modifying user name:	WinNT
#	Modification time:	15. 06. 2019 20:05

#	Program:	/corina/corina34_cracker 3.40 0067  02.08.2006

@<TRIPOS>MOLECULE
ASD01915552
  45   48    0    0    0
SMALL
NO_CHARGES


@<TRIPOS>ATOM
   1 C1            -0.0042     1.4686     0.2351 C.2     
   2 N2             0.0662     0.1192    -0.0301 N.pl3   
   3 C3            -1.1428    -0.6636    -0.3131 C.3     
   4 C4            -2.3280    -0.0486     0.4294 C.3     
   5 N5            -2.4044     1.3988     0.2637 N.am    
   6 C6            -1.2935     2.1742     0.2865 C.2     
   7 C7             1.2763     1.9058     0.4262 C.2     
   8 C8             2.0758     0.7650     0.2739 C.2     
   9 N9             1.2865    -0.2503     0.0108 N.2     
  10 C10            3.5774     0.7131     0.3910 C.3     
  11 O11            4.0777     2.0189     0.6851 O.3     
  12 C12            5.4235     2.1473     0.8238 C.ar    
  13 O13           -1.3590     3.3874     0.3465 O.2     
  14 C14            5.9775     3.3866     1.1097 C.ar    
  15 C15            6.2452     1.0381     0.6853 C.ar    
  16 C16            7.6129     1.1711     0.8266 C.ar    
  17 C17            8.1631     2.4085     1.1059 C.ar    
  18 C18            7.3458     3.5144     1.2501 C.ar    
  19 C19           -3.6531     1.9998     0.0772 C.ar    
  20 C20           -4.5847     2.0023     1.1077 C.ar    
  21 C21           -5.8184     2.5962     0.9232 C.ar    
  22 C22           -6.1291     3.1884    -0.2859 C.ar    
  23 C23           -5.2024     3.1886    -1.3193 C.ar    
  24 C24           -3.9613     2.5998    -1.1361 C.ar    
  25 O25           -5.5097     3.7711    -2.5080 O.3     
  26 C26           -6.8045     4.3643    -2.6242 C.3     
  27 H27           -1.3402    -0.6535    -1.3851 H       
  28 H28           -0.9976    -1.6909     0.0209 H       
  29 H29           -3.2488    -0.4951     0.0540 H       
  30 H30           -2.2354    -0.2772     1.4911 H       
  31 H31            1.6014     2.9119     0.6465 H       
  32 H32            3.8559     0.0283     1.1920 H       
  33 H33            4.0033     0.3642    -0.5498 H       
  34 H34            5.3396     4.2508     1.2220 H       
  35 H35            5.8159     0.0713     0.4674 H       
  36 H36            8.2529     0.3079     0.7192 H       
  37 H37            9.2326     2.5105     1.2161 H       
  38 H38            7.7780     4.4799     1.4679 H       
  39 H39           -4.3445     1.5394     2.0534 H       
  40 H40           -6.5414     2.5971     1.7255 H       
  41 H41           -7.0945     3.6516    -0.4272 H       
  42 H42           -3.2389     2.5993    -1.9389 H       
  43 H43           -7.5685     3.6034    -2.4648 H       
  44 H44           -6.9127     5.1500    -1.8765 H       
  45 H45           -6.9201     4.7922    -3.6201 H       
@<TRIPOS>BOND
   1    1    2 1
   2    1    7 2
   3    1    6 1
   4    2    3 1
   5    2    9 1
   6    3    4 1
   7    3   27 1
   8    3   28 1
   9    4    5 1
  10    4   29 1
  11    4   30 1
  12    5    6 am
  13    5   19 1
  14    6   13 2
  15    7    8 1
  16    7   31 1
  17    8    9 2
  18    8   10 1
  19   10   11 1
  20   10   32 1
  21   10   33 1
  22   11   12 1
  23   12   14 ar
  24   12   15 ar
  25   14   18 ar
  26   14   34 1
  27   15   16 ar
  28   15   35 1
  29   16   17 ar
  30   16   36 1
  31   17   18 ar
  32   17   37 1
  33   18   38 1
  34   19   20 ar
  35   19   24 ar
  36   20   21 ar
  37   20   39 1
  38   21   22 ar
  39   21   40 1
  40   22   23 ar
  41   22   41 1
  42   23   24 ar
  43   23   25 1
  44   24   42 1
  45   25   26 1
  46   26   43 1
  47   26   44 1
  48   26   45 1

#	End of record

