#	Name: ASD01870614
#	Creating user name:	WinNT
#	Creation time:	15. 06. 2019 19:39

#	Modifying user name:	WinNT
#	Modification time:	15. 06. 2019 19:39

#	Program:	/corina/corina34_cracker 3.40 0067  02.08.2006

@<TRIPOS>MOLECULE
ASD01870614
  39   42    0    0    0
SMALL
NO_CHARGES


@<TRIPOS>ATOM
   1 C1             0.0027     1.3706    -0.0383 C.ar    
   2 C2             0.0254    -0.0191    -0.0502 C.ar    
   3 C3             1.2273    -0.6989    -0.0619 C.ar    
   4 C4             2.4287    -0.0057    -0.0620 C.ar    
   5 C5             2.4240     1.3792    -0.0502 C.ar    
   6 C6             1.1981     2.0768    -0.0382 C.ar    
   7 C7             3.4780     2.4151    -0.0461 C.2     
   8 N8             2.8892     3.6247    -0.0327 N.am    
   9 C9             1.5489     3.5105    -0.0273 C.2     
  10 C10            3.5796     4.8405    -0.0249 C.ar    
  11 C11            4.9650     4.8444    -0.1363 C.ar    
  12 C12            5.6389     6.0521    -0.1276 C.ar    
  13 C13            4.8962     7.2256    -0.0065 C.ar    
  14 C14            3.5154     7.1437     0.1005 C.ar    
  15 N15            2.9061     5.9740     0.0831 N.ar    
  16 O16            0.7591     4.4332    -0.0156 O.2     
  17 O17            4.6749     2.2091    -0.0533 O.2     
  18 N18            5.5356     8.4710     0.0074 N.am    
  19 C19            6.7471     8.6001     0.5838 C.2     
  20 C20            7.4688     9.8734     0.4959 C.2     
  21 O21            7.2420     7.6598     1.1773 O.2     
  22 C22            8.6966    10.1385     1.0317 C.2     
  23 C23            8.9998    11.4699     0.7067 C.2     
  24 C24            7.9572    11.9531    -0.0042 C.2     
  25 O25            7.0389    10.9866    -0.1334 O.3     
  26 C26            9.5588     9.1863     1.8198 C.3     
  27 F27           -1.1761     2.0305    -0.0325 F       
  28 H28           -0.9030    -0.5708    -0.0499 H       
  29 H29            1.2319    -1.7789    -0.0707 H       
  30 H30            3.3648    -0.5442    -0.0708 H       
  31 H31            5.5086     3.9157    -0.2282 H       
  32 H32            6.7150     6.0853    -0.2122 H       
  33 H33            2.9326     8.0480     0.1946 H       
  34 H34            5.1068     9.2410    -0.3978 H       
  35 H35            9.8975    12.0073     0.9747 H       
  36 H36            7.8788    12.9528    -0.4054 H       
  37 H37           10.2142     8.6420     1.1398 H       
  38 H38           10.1614     9.7477     2.5337 H       
  39 H39            8.9243     8.4804     2.3557 H       
@<TRIPOS>BOND
   1    1    2 ar
   2    1    6 ar
   3    1   27 1
   4    2    3 ar
   5    2   28 1
   6    3    4 ar
   7    3   29 1
   8    4    5 ar
   9    4   30 1
  10    5    7 1
  11    5    6 ar
  12    6    9 1
  13    7    8 am
  14    7   17 2
  15    8    9 am
  16    8   10 1
  17    9   16 2
  18   10   11 ar
  19   10   15 ar
  20   11   12 ar
  21   11   31 1
  22   12   13 ar
  23   12   32 1
  24   13   14 ar
  25   13   18 1
  26   14   15 ar
  27   14   33 1
  28   18   19 am
  29   18   34 1
  30   19   20 1
  31   19   21 2
  32   20   22 2
  33   20   25 1
  34   22   23 1
  35   22   26 1
  36   23   24 2
  37   23   35 1
  38   24   25 1
  39   24   36 1
  40   26   37 1
  41   26   38 1
  42   26   39 1

#	End of record

