#	Name: ASD01912317
#	Creating user name:	WinNT
#	Creation time:	15. 06. 2019 19:59

#	Modifying user name:	WinNT
#	Modification time:	15. 06. 2019 19:59

#	Program:	/corina/corina34_cracker 3.40 0067  02.08.2006

@<TRIPOS>MOLECULE
ASD01912317
  57   59    0    0    0
SMALL
NO_CHARGES


@<TRIPOS>ATOM
   1 C1             0.4528    -2.3763    -1.2801 C.2     
   2 C2             1.1282    -1.9773     0.0066 C.3     
   3 C3             1.5737    -0.5164    -0.0829 C.3     
   4 C4             2.1353    -0.0707     1.2687 C.3     
   5 C5             2.4396     1.4046     1.2244 C.2     
   6 O6             0.2438    -1.5452    -2.1383 O.2     
   7 N7             0.0861    -3.6578    -1.4795 N.am    
   8 O8             2.1339     2.0578     0.2493 O.2     
   9 N9             3.0514     1.9981     2.2684 N.am    
  10 C10            3.3519     3.4352     2.2341 C.3     
  11 C11            2.6767     4.1096     3.4351 C.3     
  12 C12            3.0189     3.3217     4.6806 C.2     
  13 C13            2.7520     1.8324     4.6856 C.3     
  14 C14            3.4199     1.2164     3.4557 C.3     
  15 C15            3.5428     3.9246     5.7469 C.2     
  16 C16            3.8600     3.1620     6.9168 C.1     
  17 C17            4.1201     2.5369     7.8758 C.1     
  18 C18            4.4374     1.7743     9.0457 C.ar    
  19 C19            4.9870     2.4118    10.1618 C.ar    
  20 C20            5.2875     1.6609    11.2833 C.ar    
  21 C21            5.0305     0.2964    11.2568 C.ar    
  22 C22            4.4854    -0.2708    10.1194 C.ar    
  23 N23            4.2022     0.4655     9.0646 N.ar    
  24 C24            4.2057    -1.7513    10.0886 C.3     
  25 C25            2.6398    -0.3802    -1.1394 C.ar    
  26 C26            2.4333     0.4484    -2.2265 C.ar    
  27 C27            3.4106     0.5737    -3.1957 C.ar    
  28 C28            4.5958    -0.1303    -3.0778 C.ar    
  29 C29            4.8018    -0.9595    -1.9896 C.ar    
  30 C30            3.8260    -1.0796    -1.0181 C.ar    
  31 Cl31           5.8236     0.0261    -4.2951 Cl      
  32 H32            0.4295    -2.0940     0.8351 H       
  33 H33            1.9980    -2.6129     0.1727 H       
  34 H34            0.7200     0.1084    -0.3456 H       
  35 H35            1.4009    -0.2669     2.0498 H       
  36 H36            3.0498    -0.6240     1.4825 H       
  37 H37            0.2569    -4.3233    -0.7948 H       
  38 H38           -0.3486    -3.9147    -2.3077 H       
  39 H39            4.4302     3.5845     2.2898 H       
  40 H40            2.9685     3.8668     1.3095 H       
  41 H41            3.0422     5.1315     3.5355 H       
  42 H42            1.5963     4.1181     3.2916 H       
  43 H43            3.1660     1.3885     5.5909 H       
  44 H44            1.6778     1.6519     4.6458 H       
  45 H45            3.0812     0.1873     3.3353 H       
  46 H46            4.5022     1.2344     3.5837 H       
  47 H47            3.7282     4.9884     5.7291 H       
  48 H48            5.1744     3.4754    10.1482 H       
  49 H49            5.7132     2.1253    12.1605 H       
  50 H50            5.2547    -0.3167    12.1171 H       
  51 H51            3.1938    -1.9374    10.4486 H       
  52 H52            4.3008    -2.1178     9.0665 H       
  53 H53            4.9200    -2.2694    10.7284 H       
  54 H54            1.5080     0.9977    -2.3186 H       
  55 H55            3.2491     1.2209    -4.0452 H       
  56 H56            5.7268    -1.5093    -1.8970 H       
  57 H57            3.9886    -1.7234    -0.1664 H       
@<TRIPOS>BOND
   1    1    2 1
   2    1    6 2
   3    1    7 am
   4    2    3 1
   5    2   32 1
   6    2   33 1
   7    3    4 1
   8    3   25 1
   9    3   34 1
  10    4    5 1
  11    4   35 1
  12    4   36 1
  13    5    8 2
  14    5    9 am
  15    7   37 1
  16    7   38 1
  17    9   10 1
  18    9   14 1
  19   10   11 1
  20   10   39 1
  21   10   40 1
  22   11   12 1
  23   11   41 1
  24   11   42 1
  25   12   13 1
  26   12   15 2
  27   13   14 1
  28   13   43 1
  29   13   44 1
  30   14   45 1
  31   14   46 1
  32   15   16 1
  33   15   47 1
  34   16   17 3
  35   17   18 1
  36   18   19 ar
  37   18   23 ar
  38   19   20 ar
  39   19   48 1
  40   20   21 ar
  41   20   49 1
  42   21   22 ar
  43   21   50 1
  44   22   23 ar
  45   22   24 1
  46   24   51 1
  47   24   52 1
  48   24   53 1
  49   25   26 ar
  50   25   30 ar
  51   26   27 ar
  52   26   54 1
  53   27   28 ar
  54   27   55 1
  55   28   29 ar
  56   28   31 1
  57   29   30 ar
  58   29   56 1
  59   30   57 1

#	End of record

