#	Name: ASD09890051
#	Creating user name:	WinNT
#	Creation time:	15. 06. 2019 21:24

#	Modifying user name:	WinNT
#	Modification time:	15. 06. 2019 21:24

#	Program:	/corina/corina34_cracker 3.40 0067  02.08.2006

@<TRIPOS>MOLECULE
ASD09890051
  45   47    0    0    0
SMALL
NO_CHARGES


@<TRIPOS>ATOM
   1 C1            -0.0167     1.3781     0.0096 C.ar    
   2 C2             0.0021    -0.0041     0.0020 C.ar    
   3 C3             1.2084    -0.6789    -0.0132 C.ar    
   4 C4             2.3960     0.0285    -0.0212 C.ar    
   5 C5             2.3773     1.4107    -0.0145 C.ar    
   6 C6             1.1710     2.0855     0.0021 C.ar    
   7 C7             3.6720     2.1819    -0.0228 C.3     
   8 C8             5.2917     3.1615    -1.4933 C.3     
   9 C9             5.6121     3.3673    -2.9514 C.2     
  10 N10            5.2203     4.4259    -3.7273 N.pl3   
  11 C11            5.7404     4.1851    -4.9695 C.2     
  12 N12            6.3929     3.0480    -4.8986 N.2     
  13 N13            6.3181     2.5739    -3.7065 N.2     
  14 S14            5.5666     5.2067    -6.3945 S.3     
  15 C15            6.5087     4.2339    -7.5954 C.3     
  16 C16            6.3938     4.8800    -8.9776 C.3     
  17 C17            7.9789     4.1888    -7.1742 C.3     
  18 C18            4.4466     5.5265    -3.3312 C.ar    
  19 C19            4.9990     6.8000    -3.3287 C.ar    
  20 C20            4.2345     7.8822    -2.9385 C.ar    
  21 C21            2.9202     7.6980    -2.5506 C.ar    
  22 C22            2.3672     6.4306    -2.5521 C.ar    
  23 C23            3.1253     5.3453    -2.9463 C.ar    
  24 H24           -0.9258    -0.5567     0.0083 H       
  25 O25            4.0688     2.4320    -1.3726 O.3     
  26 H26           -0.9592     1.9054     0.0170 H       
  27 H27            1.2231    -1.7588    -0.0184 H       
  28 H28            3.3386    -0.4987    -0.0324 H       
  29 H29            1.1563     3.1654     0.0069 H       
  30 H30            3.5335     3.1300     0.4968 H       
  31 H31            4.4443     1.6008     0.4812 H       
  32 H32            6.0975     2.6008    -1.0198 H       
  33 H33            5.1867     4.1300    -1.0042 H       
  34 H34            6.1105     3.2200    -7.6340 H       
  35 H35            6.7919     5.8939    -8.9390 H       
  36 H36            6.9611     4.2941    -9.7008 H       
  37 H37            5.3464     4.9121    -9.2777 H       
  38 H38            8.0608     3.7286    -6.1895 H       
  39 H39            8.5462     3.6030    -7.8974 H       
  40 H40            8.3770     5.2028    -7.1356 H       
  41 H41            6.0257     6.9445    -3.6312 H       
  42 H42            4.6639     8.8732    -2.9360 H       
  43 H43            2.3244     8.5456    -2.2456 H       
  44 H44            1.3403     6.2897    -2.2486 H       
  45 H45            2.6928     4.3557    -2.9475 H       
@<TRIPOS>BOND
   1    1    2 ar
   2    1    6 ar
   3    1   26 1
   4    2    3 ar
   5    2   24 1
   6    3    4 ar
   7    3   27 1
   8    4    5 ar
   9    4   28 1
  10    5    6 ar
  11    5    7 1
  12    6   29 1
  13    7   25 1
  14    7   30 1
  15    7   31 1
  16    8    9 1
  17    8   25 1
  18    8   32 1
  19    8   33 1
  20    9   10 1
  21    9   13 2
  22   10   11 1
  23   10   18 1
  24   11   12 2
  25   11   14 1
  26   12   13 1
  27   14   15 1
  28   15   16 1
  29   15   17 1
  30   15   34 1
  31   16   35 1
  32   16   36 1
  33   16   37 1
  34   17   38 1
  35   17   39 1
  36   17   40 1
  37   18   19 ar
  38   18   23 ar
  39   19   20 ar
  40   19   41 1
  41   20   21 ar
  42   20   42 1
  43   21   22 ar
  44   21   43 1
  45   22   23 ar
  46   22   44 1
  47   23   45 1

#	End of record

