#	Name: ASD08780006
#	Creating user name:	WinNT
#	Creation time:	15. 06. 2019 21:19

#	Modifying user name:	WinNT
#	Modification time:	15. 06. 2019 21:19

#	Program:	/corina/corina34_cracker 3.40 0067  02.08.2006

@<TRIPOS>MOLECULE
ASD08780006
  26   26    0    0    0
SMALL
NO_CHARGES


@<TRIPOS>ATOM
   1 C1            -0.1020     1.3122    -0.9882 C.2     
   2 C2            -0.0360    -0.0765    -0.4923 C.ar    
   3 C3             1.1801    -0.7648    -0.4979 C.ar    
   4 C4             1.2366    -2.0655    -0.0323 C.ar    
   5 C5             0.0801    -2.6870     0.4417 C.ar    
   6 C6            -1.1267    -2.0022     0.4462 C.ar    
   7 C7            -1.1878    -0.7032    -0.0110 C.ar    
   8 O8             0.9023     1.8583    -1.4022 O.2     
   9 N9            -1.2767     1.9729    -0.9873 N.am    
  10 N10            2.4540    -2.7595    -0.0367 N.am    
  11 C11            3.5659    -2.1726     0.4488 C.2     
  12 S12            3.5167    -0.5415     0.9664 S.2     
  13 N13            4.7167    -2.8699     0.5267 N.am    
  14 O14            0.1362    -3.9644     0.8988 O.3     
  15 C15           -1.0846    -4.5392     1.3693 C.3     
  16 H16            2.0736    -0.2821    -0.8655 H       
  17 H17           -2.0195    -2.4865     0.8134 H       
  18 H18           -2.1277    -0.1712    -0.0014 H       
  19 H19           -2.0787     1.5359    -0.6607 H       
  20 H20           -1.3201     2.8855    -1.3132 H       
  21 H21            2.4964    -3.6622    -0.3891 H       
  22 H22            4.7446    -3.7941     0.2334 H       
  23 H23            5.5170    -2.4476     0.8761 H       
  24 H24           -1.4683    -3.9473     2.2003 H       
  25 H25           -1.8166    -4.5490     0.5617 H       
  26 H26           -0.9001    -5.5597     1.7049 H       
@<TRIPOS>BOND
   1    1    2 1
   2    1    8 2
   3    1    9 am
   4    2    3 ar
   5    2    7 ar
   6    3    4 ar
   7    3   16 1
   8    4    5 ar
   9    4   10 1
  10    5    6 ar
  11    5   14 1
  12    6    7 ar
  13    6   17 1
  14    7   18 1
  15    9   19 1
  16    9   20 1
  17   10   11 am
  18   10   21 1
  19   11   12 2
  20   11   13 am
  21   13   22 1
  22   13   23 1
  23   14   15 1
  24   15   24 1
  25   15   25 1
  26   15   26 1

#	End of record

