#	Name: ASD01148719
#	Creating user name:	WinNT
#	Creation time:	15. 06. 2019 19:03

#	Modifying user name:	WinNT
#	Modification time:	15. 06. 2019 19:03

#	Program:	/corina/corina34_cracker 3.40 0067  02.08.2006

@<TRIPOS>MOLECULE
ASD01148719
  56   59    0    0    0
SMALL
NO_CHARGES


@<TRIPOS>ATOM
   1 N1            -0.0159     1.3405     0.0806 N.pl3   
   2 C2             0.0025     0.0050    -0.1114 C.2     
   3 C3             1.3185    -0.4072    -0.1549 C.2     
   4 C4             2.1214     0.7498     0.0213 C.2     
   5 C5             1.2768     1.8041     0.1629 C.2     
   6 C6             1.7984    -1.7849    -0.3468 C.2     
   7 O7             1.0017    -2.6922    -0.4863 O.2     
   8 O8             3.1216    -2.0409    -0.3678 O.3     
   9 C9            -1.1689     2.1309     0.1752 C.ar    
  10 C10           -2.0122     2.0029     1.2708 C.ar    
  11 C11           -3.1481     2.7834     1.3611 C.ar    
  12 C12           -3.4461     3.6913     0.3616 C.ar    
  13 C13           -2.6085     3.8208    -0.7310 C.ar    
  14 C14           -1.4677     3.0478    -0.8238 C.ar    
  15 S15           -4.8965     4.6848     0.4802 S.o2    
  16 O16           -5.2291     5.0692    -0.8467 O.2     
  17 O17           -5.7920     3.9871     1.3348 O.2     
  18 N18           -4.4754     6.0736     1.2778 N.am    
  19 C19            1.6785     3.2110     0.3693 C.ar    
  20 C20            0.7782     4.1196     0.9307 C.ar    
  21 C21            1.1535     5.4300     1.1231 C.ar    
  22 C22            2.4325     5.8507     0.7575 C.ar    
  23 C23            3.3323     4.9439     0.1967 C.ar    
  24 C24            2.9606     3.6318     0.0085 C.ar    
  25 C25            4.4459     9.0269     0.8151 C.ar    
  26 C26            4.1124     7.7048     0.6054 C.ar    
  27 C27            2.8355     7.2622     0.9646 C.ar    
  28 C28            1.9490     8.1877     1.5242 C.ar    
  29 C29            2.3648     9.4913     1.6989 C.ar    
  30 N30            3.5791     9.8680     1.3461 N.ar    
  31 C31           -1.2064    -0.8835    -0.2539 C.3     
  32 C32            3.5227    -3.4229    -0.5612 C.3     
  33 C33            5.0499    -3.5161    -0.5564 C.3     
  34 H34            3.2007     0.7852     0.0394 H       
  35 H35           -1.7803     1.2934     2.0514 H       
  36 H36           -3.8044     2.6843     2.2131 H       
  37 H37           -2.8441     4.5305    -1.5102 H       
  38 H38           -0.8112     3.1530    -1.6749 H       
  39 H39           -4.9418     6.9026     1.0875 H       
  40 H40           -3.7625     6.0582     1.9353 H       
  41 H41           -0.2120     3.7942     1.2135 H       
  42 H42            0.4575     6.1328     1.5568 H       
  43 H43            4.3221     5.2705    -0.0863 H       
  44 H44            3.6587     2.9290    -0.4218 H       
  45 H45            5.4312     9.3771     0.5450 H       
  46 H46            4.8268     7.0219     0.1698 H       
  47 H47            0.9535     7.8864     1.8149 H       
  48 H48            1.6872    10.2134     2.1300 H       
  49 H49           -1.4856    -0.9513    -1.3053 H       
  50 H50           -0.9726    -1.8785     0.1248 H       
  51 H51           -2.0352    -0.4634     0.3158 H       
  52 H52            3.1189    -4.0347     0.2455 H       
  53 H53            3.1397    -3.7821    -1.5163 H       
  54 H54            5.3510    -4.5536    -0.7016 H       
  55 H55            5.4537    -2.9043    -1.3631 H       
  56 H56            5.4329    -3.1569     0.3987 H       
@<TRIPOS>BOND
   1    1    2 1
   2    1    5 1
   3    1    9 1
   4    2    3 2
   5    2   31 1
   6    3    4 1
   7    3    6 1
   8    4    5 2
   9    4   34 1
  10    5   19 1
  11    6    7 2
  12    6    8 1
  13    8   32 1
  14    9   10 ar
  15    9   14 ar
  16   10   11 ar
  17   10   35 1
  18   11   12 ar
  19   11   36 1
  20   12   13 ar
  21   12   15 1
  22   13   14 ar
  23   13   37 1
  24   14   38 1
  25   15   16 2
  26   15   17 2
  27   15   18 am
  28   18   39 1
  29   18   40 1
  30   19   20 ar
  31   19   24 ar
  32   20   21 ar
  33   20   41 1
  34   21   22 ar
  35   21   42 1
  36   22   23 ar
  37   22   27 1
  38   23   24 ar
  39   23   43 1
  40   24   44 1
  41   25   26 ar
  42   25   30 ar
  43   25   45 1
  44   26   27 ar
  45   26   46 1
  46   27   28 ar
  47   28   29 ar
  48   28   47 1
  49   29   30 ar
  50   29   48 1
  51   31   49 1
  52   31   50 1
  53   31   51 1
  54   32   33 1
  55   32   52 1
  56   32   53 1
  57   33   54 1
  58   33   55 1
  59   33   56 1

#	End of record

