#	Name: ASD01915169
#	Creating user name:	WinNT
#	Creation time:	15. 06. 2019 20:05

#	Modifying user name:	WinNT
#	Modification time:	15. 06. 2019 20:05

#	Program:	/corina/corina34_cracker 3.40 0067  02.08.2006

@<TRIPOS>MOLECULE
ASD01915169
  38   41    0    0    0
SMALL
NO_CHARGES


@<TRIPOS>ATOM
   1 C1             0.1086     1.6006     0.0319 C.ar    
   2 C2             0.1608     0.2166     0.0600 C.ar    
   3 C3            -1.0070    -0.5232     0.1010 C.ar    
   4 C4            -2.2311     0.1140     0.1147 C.ar    
   5 C5            -2.2907     1.5059     0.0872 C.ar    
   6 C6            -1.1129     2.2483     0.0507 C.ar    
   7 C7            -3.6051     2.1953     0.1018 C.2     
   8 N8            -3.8109     3.5315     0.0786 N.2     
   9 C9            -5.1111     3.6876     0.1032 C.2     
  10 O10           -5.6535     2.4665     0.1400 O.3     
  11 N11           -4.7809     1.6241     0.1338 N.2     
  12 C12           -5.8557     4.9978     0.0925 C.3     
  13 C13           -6.8004     5.1640    -1.1116 C.3     
  14 N14           -7.7659     5.7281    -0.1484 N.am    
  15 C15           -7.1263     4.9957     0.9617 C.3     
  16 C16           -8.8117     6.5729    -0.2442 C.2     
  17 C17           -9.6585     6.8369     0.9370 C.ar    
  18 O18           -9.0581     7.1175    -1.3028 O.2     
  19 C19          -10.6534     7.8153     0.8814 C.ar    
  20 C20          -11.4411     8.0573     1.9864 C.ar    
  21 C21          -11.2470     7.3314     3.1516 C.ar    
  22 C22          -10.2603     6.3591     3.2125 C.ar    
  23 C23           -9.4708     6.1050     2.1115 C.ar    
  24 F24            1.2525     2.3183    -0.0081 F       
  25 F25          -12.0218     7.5725     4.2318 F       
  26 H26            1.1165    -0.2863     0.0494 H       
  27 H27           -0.9609    -1.6020     0.1220 H       
  28 H28           -3.1419    -0.4656     0.1464 H       
  29 H29           -1.1536     3.3273     0.0296 H       
  30 H30           -5.2067     5.8568     0.2630 H       
  31 H31           -6.4471     5.8824    -1.8513 H       
  32 H32           -7.1203     4.2200    -1.5526 H       
  33 H33           -7.5420     4.0022     1.1298 H       
  34 H34           -7.0332     5.5797     1.8774 H       
  35 H35          -10.8052     8.3816    -0.0256 H       
  36 H36          -12.2106     8.8140     1.9445 H       
  37 H37          -10.1130     5.7968     4.1227 H       
  38 H38           -8.7028     5.3473     2.1598 H       
@<TRIPOS>BOND
   1    1    2 ar
   2    1   24 1
   3    1    6 ar
   4    2    3 ar
   5    2   26 1
   6    3    4 ar
   7    3   27 1
   8    4    5 ar
   9    4   28 1
  10    5    6 ar
  11    5    7 1
  12    6   29 1
  13    7    8 1
  14    7   11 2
  15    8    9 2
  16    9   10 1
  17    9   12 1
  18   10   11 1
  19   12   13 1
  20   12   15 1
  21   12   30 1
  22   13   14 1
  23   13   31 1
  24   13   32 1
  25   14   15 1
  26   14   16 am
  27   15   33 1
  28   15   34 1
  29   16   17 1
  30   16   18 2
  31   17   19 ar
  32   17   23 ar
  33   19   20 ar
  34   19   35 1
  35   20   21 ar
  36   20   36 1
  37   21   22 ar
  38   21   25 1
  39   22   23 ar
  40   22   37 1
  41   23   38 1

#	End of record

