#	Name: ASD06590079
#	Creating user name:	WinNT
#	Creation time:	15. 06. 2019 21:06

#	Modifying user name:	WinNT
#	Modification time:	15. 06. 2019 21:06

#	Program:	/corina/corina34_cracker 3.40 0067  02.08.2006

@<TRIPOS>MOLECULE
ASD06590079
 346  347    0    0    0
SMALL
NO_CHARGES


@<TRIPOS>ATOM
   1 C1            -1.5035    22.9105    12.0901 C.2     
   2 O2            -1.2200    23.4043    11.0193 O.2     
   3 N3            -0.7598    25.0187    13.0343 N.am    
   4 C4            -1.3033    23.6977    13.3595 C.3     
   5 C5            -2.6455    23.8607    14.0756 C.3     
   6 C6            -2.4654    24.7639    15.2973 C.3     
   7 O7            -3.5931    24.4501    13.1830 O.3     
   8 C8            -3.7161    21.2483    10.4760 C.2     
   9 O9            -4.4008    21.9991    11.1382 O.2     
  10 N10           -2.0027    21.6598    12.1445 N.am    
  11 C11           -2.3057    20.9376    10.9064 C.3     
  12 C12           -2.1654    19.4330    11.1462 C.3     
  13 C13           -0.7246    19.1034    11.4404 C.2     
  14 O14            0.0929    19.9937    11.5405 O.2     
  15 N15           -0.3446    17.8193    11.5922 N.am    
  16 C16           -6.1150    19.8643     8.0900 C.2     
  17 O17           -5.4144    18.9016     7.8589 O.2     
  18 N18           -4.2167    20.6919     9.3551 N.am    
  19 C19           -5.5878    20.9940     8.9367 C.3     
  20 C20           -5.5989    22.2895     8.1229 C.3     
  21 C21           -9.2880    19.1362     6.3362 C.2     
  22 O22           -9.8133    20.1730     6.6828 O.2     
  23 N23           -7.3650    19.9237     7.5897 N.am    
  24 C24           -7.8776    18.8255     6.7666 C.3     
  25 C25          -12.0687    17.2787     4.8595 C.2     
  26 O26          -11.5010    16.2151     4.9908 O.2     
  27 N27           -9.9656    18.2621     5.5660 N.am    
  28 C28          -11.3367    18.5641     5.1476 C.3     
  29 C29          -11.3060    19.4276     3.8849 C.3     
  30 C30          -10.6739    20.7827     4.2089 C.3     
  31 C31          -10.6432    21.6461     2.9461 C.3     
  32 N32          -10.0379    22.9437     3.2564 N.pl3   
  33 C33           -9.9026    23.8923     2.2706 C.2     
  34 N34           -9.3640    25.0468     2.5466 N.2     
  35 N35          -10.3352    23.6233     0.9936 N.pl3   
  36 C36          -15.1867    16.3287     3.2047 C.2     
  37 O37          -15.3728    17.4521     2.7875 O.2     
  38 N38          -13.3542    17.3112     4.4560 N.am    
  39 C39          -14.0658    16.0616     4.1760 C.3     
  40 C40          -14.6417    15.5000     5.4775 C.3     
  41 O41          -15.6340    16.3947     5.9844 O.3     
  42 C42          -18.2797    16.0080     2.4302 C.2     
  43 O43          -18.3347    16.1219     3.6365 O.2     
  44 N44          -15.9823    15.3190     2.7997 N.am    
  45 C45          -17.0009    15.5555     1.7737 C.3     
  46 C46          -17.2556    14.2604     0.9998 C.3     
  47 C47          -16.0093    13.8717     0.2471 C.2     
  48 O48          -14.9948    14.5131     0.3860 O.2     
  49 O49          -16.0262    12.8128    -0.5777 O.3     
  50 C50          -21.7735    16.3894     1.4250 C.2     
  51 O51          -21.5805    15.9948     0.2945 O.2     
  52 N52          -19.3621    16.2863     1.6770 N.am    
  53 C53          -20.6052    16.7263     2.3153 C.3     
  54 C54          -20.5552    18.2387     2.5407 C.3     
  55 C55          -19.3709    18.5804     3.4471 C.3     
  56 O56          -20.4009    18.9027     1.2847 O.3     
  57 C57          -25.3973    16.8695     1.4592 C.2     
  58 O58          -25.3358    17.6938     2.3467 O.2     
  59 N59          -23.0329    16.5267     1.8850 N.am    
  60 C60          -24.1651    16.0996     1.0592 C.3     
  61 C61          -24.4098    14.6033     1.2638 C.3     
  62 C62          -23.2076    13.8138     0.7420 C.3     
  63 C63          -23.4523    12.3174     0.9466 C.3     
  64 N64          -22.3012    11.5615     0.4470 N.pl3   
  65 C65          -22.2938    10.1889     0.5250 C.2     
  66 N66          -21.2696     9.5164     0.0805 N.2     
  67 N67          -23.3667     9.5257     1.0720 N.pl3   
  68 C68          -28.9936    16.5921     0.8653 C.2     
  69 O69          -28.8795    15.5051     0.3398 O.2     
  70 N70          -26.5676    16.6420     0.8306 N.am    
  71 C71          -27.7654    17.3905     1.2195 C.3     
  72 C72          -27.7947    18.7278     0.4767 C.3     
  73 C73          -26.6144    19.5890     0.9304 C.3     
  74 C74          -26.6432    20.9063     0.1988 C.2     
  75 O75          -27.5214    21.1338    -0.6061 O.2     
  76 N76          -25.6931    21.8315     0.4391 N.am    
  77 C77          -32.5808    17.2431     0.5986 C.2     
  78 O78          -32.4309    18.4386     0.7374 O.2     
  79 N79          -30.2187    17.0862     1.1325 N.am    
  80 C80          -31.4126    16.3101     0.7882 C.3     
  81 C81          -31.7241    15.3257     1.9172 C.3     
  82 C82          -30.5931    14.3011     2.0270 C.3     
  83 C83          -30.8999    13.3315     3.1391 C.2     
  84 O84          -31.9225    13.4484     3.7807 O.2     
  85 N85          -30.0380    12.3344     3.4207 N.am    
  86 C86          -36.2125    16.9108     0.3464 C.2     
  87 O87          -36.1824    15.7377     0.6526 O.2     
  88 N88          -33.7922    16.7490     0.2748 N.am    
  89 C89          -34.9278    17.6559     0.0905 C.3     
  90 C90          -34.9256    18.1913    -1.3428 C.3     
  91 C91          -33.6989    19.0391    -1.5604 C.ar    
  92 C92          -32.5316    18.4586    -2.0210 C.ar    
  93 C93          -31.4056    19.2336    -2.2210 C.ar    
  94 C94          -31.4468    20.5954    -1.9596 C.ar    
  95 O95          -30.3406    21.3600    -2.1559 O.3     
  96 C96          -32.6194    21.1755    -1.4979 C.ar    
  97 C97          -33.7442    20.3971    -1.3046 C.ar    
  98 C98          -39.7699    17.4939    -0.2602 C.2     
  99 O99          -39.5509    18.4795    -0.9321 O.2     
 100 N100         -37.3948    17.5481     0.2351 N.am    
 101 C101         -38.6437    16.8237     0.4839 C.3     
 102 C102         -38.9475    16.8311     1.9834 C.3     
 103 C103         -37.8672    16.0426     2.7265 C.3     
 104 C104         -38.1711    16.0500     4.2260 C.3     
 105 N105         -37.1367    15.2949     4.9376 N.pl3   
 106 C106         -37.1993    15.1637     6.3047 C.2     
 107 N107         -38.1790    15.7110     6.9677 N.2     
 108 N108         -36.2287    14.4552     6.9724 N.pl3   
 109 C109         -43.4221    17.3438    -0.2167 C.2     
 110 O110         -43.4374    16.6502     0.7781 O.2     
 111 N111         -41.0204    16.9979    -0.1789 N.am    
 112 C112         -42.1153    17.6493    -0.9022 C.3     
 113 C113         -42.1590    17.1269    -2.3395 C.3     
 114 C114         -40.8834    17.5456    -3.0734 C.3     
 115 C115         -40.9271    17.0232    -4.5108 C.3     
 116 C116         -39.6515    17.4419    -5.2446 C.3     
 117 N117         -39.6935    16.9403    -6.6247 N.3     
 118 C118         -46.9708    17.6530    -1.0377 C.2     
 119 O119         -46.7357    17.9494    -2.1900 O.2     
 120 N120         -44.5738    17.8414    -0.7091 N.am    
 121 C121         -45.8442    17.5444    -0.0427 C.3     
 122 C122         -46.0696    18.5434     1.0940 C.3     
 123 C123         -44.9951    18.3477     2.1655 C.3     
 124 C124         -45.1446    19.4260     3.2406 C.3     
 125 C125         -45.1561    16.9662     2.8029 C.3     
 126 C126         -50.6088    17.8346    -0.9712 C.2     
 127 O127         -50.6916    17.8446     0.2387 O.2     
 128 N128         -48.2396    17.4209    -0.6470 N.am    
 129 C129         -49.3214    17.4184    -1.6350 C.3     
 130 C130         -49.4786    16.0116    -2.2157 C.3     
 131 C131         -50.4886    16.0440    -3.3644 C.3     
 132 C132         -49.9027    16.8338    -4.5366 C.3     
 133 C133         -50.7945    14.6142    -3.8150 C.3     
 134 C134         -54.0672    18.4534    -1.9808 C.2     
 135 O135         -53.9092    17.9128    -3.0549 O.2     
 136 N136         -51.6681    18.1956    -1.7222 N.am    
 137 C137         -52.8848    18.6979    -1.0791 C.3     
 138 C138         -52.7424    20.1992    -0.8206 C.3     
 139 C139         -51.6377    20.4345     0.1772 C.ar    
 140 C140         -50.3397    20.6215    -0.2600 C.ar    
 141 C141         -49.3265    20.8373     0.6552 C.ar    
 142 C142         -49.6113    20.8667     2.0076 C.ar    
 143 C143         -50.9095    20.6806     2.4447 C.ar    
 144 C144         -51.9234    20.4691     1.5292 C.ar    
 145 C145         -57.5357    19.5945    -2.1560 C.2     
 146 O146         -57.3668    20.4187    -1.2888 O.2     
 147 N147         -55.3003    18.8356    -1.5937 N.am    
 148 C148         -56.4498    18.5979    -2.4702 C.3     
 149 C149         -56.9783    17.1798    -2.2451 C.3     
 150 O150         -58.6906    19.5665    -2.8395 O.3     
 151 C151          -0.0414    25.6963    13.9515 C.2     
 152 O152           0.1550    25.2125    15.0462 O.2     
 153 C153           9.8671    40.5367    19.6763 C.3     
 154 C154           9.2995    39.1570    20.0159 C.3     
 155 C155           8.5315    38.6107    18.8107 C.3     
 156 C156           7.9639    37.2311    19.1503 C.3     
 157 C157           7.1959    36.6848    17.9451 C.3     
 158 C158           6.6282    35.3052    18.2847 C.3     
 159 C159           5.8602    34.7589    17.0795 C.3     
 160 C160           5.2926    33.3793    17.4191 C.3     
 161 C161           4.5246    32.8330    16.2138 C.3     
 162 C162           3.9569    31.4534    16.5535 C.3     
 163 C163           3.1890    30.9070    15.3482 C.3     
 164 C164           2.6213    29.5274    15.6879 C.3     
 165 C165           1.8533    28.9811    14.4826 C.3     
 166 C166           1.2857    27.6015    14.8222 C.3     
 167 C167           0.5177    27.0552    13.6170 C.3     
 168 H168          -0.9169    25.4057    12.1588 H       
 169 H169          -0.6067    23.1682    14.0094 H       
 170 H170          -3.0073    22.8837    14.3961 H       
 171 H171          -2.1037    25.7409    14.9767 H       
 172 H172          -3.4217    24.8800    15.8074 H       
 173 H173          -1.7426    24.3144    15.9781 H       
 174 H174          -3.3359    25.3233    12.8568 H       
 175 H175          -2.1613    21.2378    13.0034 H       
 176 H176          -1.6110    21.2474    10.1257 H       
 177 H177          -2.7854    19.1409    11.9938 H       
 178 H178          -2.4877    18.8917    10.2567 H       
 179 H179          -0.9984    17.1073    11.5122 H       
 180 H180           0.5828    17.6072    11.7816 H       
 181 H181          -3.6691    20.0914     8.8255 H       
 182 H182          -6.2186    21.1128     9.8176 H       
 183 H183          -4.9681    22.1706     7.2420 H       
 184 H184          -6.6191    22.5142     7.8115 H       
 185 H185          -5.2176    23.1066     8.7353 H       
 186 H186          -7.9253    20.6936     7.7745 H       
 187 H187          -7.8696    17.9026     7.3464 H       
 188 H188          -7.2467    18.7066     5.8857 H       
 189 H189          -9.5454    17.4329     5.2887 H       
 190 H190         -11.8492    19.1035     5.9442 H       
 191 H191         -10.7175    18.9265     3.1163 H       
 192 H192         -12.3231    19.5783     3.5230 H       
 193 H193         -11.2624    21.2837     4.9774 H       
 194 H194          -9.6568    20.6319     4.5707 H       
 195 H195         -10.0547    21.1451     2.1776 H       
 196 H196         -11.6603    21.7969     2.5843 H       
 197 H197          -9.7327    23.1334     4.1573 H       
 198 H198          -9.2685    25.7161     1.8511 H       
 199 H199         -10.7360    22.7642     0.7882 H       
 200 H200         -10.2397    24.2927     0.2981 H       
 201 H201         -13.8082    18.1619     4.3510 H       
 202 H202         -13.3743    15.3389     3.7430 H       
 203 H203         -15.0941    14.5272     5.2847 H       
 204 H204         -13.8428    15.3903     6.2108 H       
 205 H205         -16.0429    16.1015     6.8102 H       
 206 H206         -15.8805    14.4358     3.1876 H       
 207 H207         -16.6525    16.3267     1.0867 H       
 208 H208         -17.5211    13.4663     1.6978 H       
 209 H209         -18.0730    14.4130     0.2951 H       
 210 H210         -15.2027    12.6023    -1.0388 H       
 211 H211         -19.3181    16.1953     0.7123 H       
 212 H212         -20.7207    16.2197     3.2735 H       
 213 H213         -21.4810    18.5664     3.0136 H       
 214 H214         -18.4475    18.2298     2.9860 H       
 215 H215         -19.3200    19.6602     3.5869 H       
 216 H216         -19.5013    18.0946     4.4140 H       
 217 H217         -21.1175    18.7311     0.6585 H       
 218 H218         -23.1896    16.9083     2.7629 H       
 219 H219         -23.9418    16.2911     0.0096 H       
 220 H220         -24.5452    14.3992     2.3260 H       
 221 H221         -25.3053    14.3037     0.7193 H       
 222 H222         -23.0722    14.0179    -0.3201 H       
 223 H223         -22.3121    14.1133     1.2866 H       
 224 H224         -23.5877    12.1133     2.0088 H       
 225 H225         -24.3478    12.0179     0.4021 H       
 226 H226         -21.5442    12.0294     0.0611 H       
 227 H227         -21.2644     8.5479     0.1355 H       
 228 H228         -24.1289    10.0262     1.4028 H       
 229 H229         -23.3615     8.5573     1.1270 H       
 230 H230         -26.6167    15.9828     0.1208 H       
 231 H231         -27.7475    17.5720     2.2941 H       
 232 H232         -27.7231    18.5492    -0.5961 H       
 233 H233         -28.7282    19.2455     0.6973 H       
 234 H234         -26.6860    19.7676     2.0032 H       
 235 H235         -25.6809    19.0713     0.7098 H       
 236 H236         -24.9907    21.6495     1.0828 H       
 237 H237         -25.7117    22.6793    -0.0318 H       
 238 H238         -30.3100    17.9556     1.5528 H       
 239 H239         -31.2340    15.7592    -0.1353 H       
 240 H240         -31.8151    15.8687     2.8579 H       
 241 H241         -32.6608    14.8112     1.7026 H       
 242 H242         -30.5021    13.7581     1.0863 H       
 243 H243         -29.6564    14.8156     2.2417 H       
 244 H244         -29.2201    12.2409     2.9076 H       
 245 H245         -30.2355    11.7103     4.1365 H       
 246 H246         -33.9121    15.7929     0.1637 H       
 247 H247         -34.8452    18.4883     0.7894 H       
 248 H248         -34.9187    17.3557    -2.0427 H       
 249 H249         -35.8183    18.7950    -1.5065 H       
 250 H250         -32.5000    17.3984    -2.2244 H       
 251 H251         -30.4938    18.7796    -2.5801 H       
 252 H252         -30.2733    21.7334    -3.0453 H       
 253 H253         -32.6540    22.2354    -1.2934 H       
 254 H254         -34.6586    20.8490    -0.9494 H       
 255 H255         -37.4189    18.4864    -0.0098 H       
 256 H256         -38.5418    15.7948     0.1389 H       
 257 H257         -38.9615    17.8588     2.3462 H       
 258 H258         -39.9195    16.3704     2.1594 H       
 259 H259         -37.8532    15.0148     2.3637 H       
 260 H260         -36.8952    16.5033     2.5505 H       
 261 H261         -38.1851    17.0777     4.5888 H       
 262 H262         -39.1431    15.5892     4.4021 H       
 263 H263         -36.4077    14.8876     4.4441 H       
 264 H264         -38.2232    15.6184     7.9323 H       
 265 H265         -35.4996    14.0478     6.4790 H       
 266 H266         -36.2729    14.3626     7.9370 H       
 267 H267         -41.1956    16.2096     0.3585 H       
 268 H268         -41.9535    18.7272    -0.9121 H       
 269 H269         -42.2316    16.0394    -2.3288 H       
 270 H270         -43.0262    17.5440    -2.8515 H       
 271 H271         -40.8108    18.6331    -3.0841 H       
 272 H272         -40.0162    17.1286    -2.5614 H       
 273 H273         -40.9998    15.9357    -4.5000 H       
 274 H274         -41.7943    17.4402    -5.0227 H       
 275 H275         -39.5789    18.5294    -5.2553 H       
 276 H276         -38.7843    17.0249    -4.7326 H       
 277 H277         -40.5232    17.2611    -7.1009 H       
 278 H278         -38.8614    17.2040    -7.1307 H       
 279 H279         -44.5615    18.3962    -1.5047 H       
 280 H280         -45.8140    16.5331     0.3630 H       
 281 H281         -46.0114    19.5588     0.7022 H       
 282 H282         -47.0540    18.3790     1.5323 H       
 283 H283         -44.0084    18.4244     1.7088 H       
 284 H284         -46.1314    19.3493     3.6973 H       
 285 H285         -44.3791    19.2866     4.0039 H       
 286 H286         -45.0300    20.4102     2.7865 H       
 287 H287         -45.0495    16.1980     2.0370 H       
 288 H288         -44.3906    16.8268     3.5662 H       
 289 H289         -46.1428    16.8895     3.2596 H       
 290 H290         -48.4366    17.2554     0.2882 H       
 291 H291         -49.0832    18.1178    -2.4364 H       
 292 H292         -48.5155    15.6627    -2.5883 H       
 293 H293         -49.8340    15.3353    -1.4383 H       
 294 H294         -51.4077    16.5230    -3.0268 H       
 295 H295         -50.6481    16.9166    -5.3276 H       
 296 H296         -49.6200    17.8305    -4.1979 H       
 297 H297         -49.0227    16.3169    -4.9192 H       
 298 H298         -51.2119    14.0516    -2.9799 H       
 299 H299         -51.5141    14.6373    -4.6334 H       
 300 H300         -49.8755    14.1352    -4.1526 H       
 301 H301         -51.6250    18.1228    -2.6885 H       
 302 H302         -53.0362    18.1790    -0.1326 H       
 303 H303         -52.5028    20.7076    -1.7545 H       
 304 H304         -53.6794    20.5901    -0.4241 H       
 305 H305         -50.1172    20.5986    -1.3166 H       
 306 H306         -48.3123    20.9827     0.3137 H       
 307 H307         -48.8196    21.0346     2.7226 H       
 308 H308         -51.1319    20.7032     3.5013 H       
 309 H309         -52.9382    20.3274     1.8705 H       
 310 H310         -55.4267    19.2680    -0.7346 H       
 311 H311         -56.1432    18.7105    -3.5101 H       
 312 H312         -57.8336    17.0030    -2.8973 H       
 313 H313         -56.1929    16.4590    -2.4723 H       
 314 H314         -57.2850    17.0672    -1.2052 H       
 315 H315         -59.3572    20.2256    -2.6023 H       
 316 H316          10.5411    40.4524    18.8238 H       
 317 H317           9.0504    41.2146    19.4282 H       
 318 H318          10.4143    40.9259    20.5350 H       
 319 H319          10.1162    38.4792    20.2641 H       
 320 H320           8.6255    39.2413    20.8684 H       
 321 H321           7.7148    39.2886    18.5626 H       
 322 H322           9.2055    38.5265    17.9582 H       
 323 H323           8.7806    36.5532    19.3984 H       
 324 H324           7.2899    37.3154    20.0028 H       
 325 H325           6.3792    37.3627    17.6970 H       
 326 H326           7.8698    36.6006    17.0926 H       
 327 H327           7.4449    34.6273    18.5328 H       
 328 H328           5.9542    35.3894    19.1372 H       
 329 H329           5.0435    35.4368    16.8314 H       
 330 H330           6.5342    34.6746    16.2270 H       
 331 H331           6.1093    32.7014    17.6672 H       
 332 H332           4.6186    33.4635    18.2716 H       
 333 H333           3.7079    33.5109    15.9657 H       
 334 H334           5.1986    32.7487    15.3613 H       
 335 H335           4.7736    30.7755    16.8016 H       
 336 H336           3.2830    31.5376    17.4060 H       
 337 H337           2.3723    31.5849    15.1001 H       
 338 H338           3.8629    30.8228    14.4957 H       
 339 H339           3.4380    28.8495    15.9360 H       
 340 H340           1.9473    29.6117    16.5404 H       
 341 H341           1.0366    29.6590    14.2345 H       
 342 H342           2.5273    28.8969    13.6301 H       
 343 H343           2.1024    26.9236    15.0704 H       
 344 H344           0.6117    27.6858    15.6747 H       
 345 H345           1.1917    26.9709    12.7645 H       
 346 H346          -0.2990    27.7331    13.3689 H       
@<TRIPOS>BOND
   1    1    2 2
   2    1    4 1
   3    1   10 am
   4    3  151 am
   5    3    4 1
   6    3  168 1
   7    4    5 1
   8    4  169 1
   9    5    6 1
  10    5    7 1
  11    5  170 1
  12    6  171 1
  13    6  172 1
  14    6  173 1
  15    7  174 1
  16    8    9 2
  17    8   11 1
  18    8   18 am
  19   10   11 1
  20   10  175 1
  21   11   12 1
  22   11  176 1
  23   12   13 1
  24   12  177 1
  25   12  178 1
  26   13   14 2
  27   13   15 am
  28   15  179 1
  29   15  180 1
  30   16   17 2
  31   16   19 1
  32   16   23 am
  33   18   19 1
  34   18  181 1
  35   19   20 1
  36   19  182 1
  37   20  183 1
  38   20  184 1
  39   20  185 1
  40   21   22 2
  41   21   24 1
  42   21   27 am
  43   23   24 1
  44   23  186 1
  45   24  187 1
  46   24  188 1
  47   25   26 2
  48   25   28 1
  49   25   38 am
  50   27   28 1
  51   27  189 1
  52   28   29 1
  53   28  190 1
  54   29   30 1
  55   29  191 1
  56   29  192 1
  57   30   31 1
  58   30  193 1
  59   30  194 1
  60   31   32 1
  61   31  195 1
  62   31  196 1
  63   32   33 1
  64   32  197 1
  65   33   34 2
  66   33   35 1
  67   34  198 1
  68   35  199 1
  69   35  200 1
  70   36   37 2
  71   36   39 1
  72   36   44 am
  73   38   39 1
  74   38  201 1
  75   39   40 1
  76   39  202 1
  77   40   41 1
  78   40  203 1
  79   40  204 1
  80   41  205 1
  81   42   43 2
  82   42   45 1
  83   42   52 am
  84   44   45 1
  85   44  206 1
  86   45   46 1
  87   45  207 1
  88   46   47 1
  89   46  208 1
  90   46  209 1
  91   47   48 2
  92   47   49 1
  93   49  210 1
  94   50   51 2
  95   50   53 1
  96   50   59 am
  97   52   53 1
  98   52  211 1
  99   53   54 1
 100   53  212 1
 101   54   55 1
 102   54   56 1
 103   54  213 1
 104   55  214 1
 105   55  215 1
 106   55  216 1
 107   56  217 1
 108   57   58 2
 109   57   60 1
 110   57   70 am
 111   59   60 1
 112   59  218 1
 113   60   61 1
 114   60  219 1
 115   61   62 1
 116   61  220 1
 117   61  221 1
 118   62   63 1
 119   62  222 1
 120   62  223 1
 121   63   64 1
 122   63  224 1
 123   63  225 1
 124   64   65 1
 125   64  226 1
 126   65   66 2
 127   65   67 1
 128   66  227 1
 129   67  228 1
 130   67  229 1
 131   68   69 2
 132   68   71 1
 133   68   79 am
 134   70   71 1
 135   70  230 1
 136   71   72 1
 137   71  231 1
 138   72   73 1
 139   72  232 1
 140   72  233 1
 141   73   74 1
 142   73  234 1
 143   73  235 1
 144   74   75 2
 145   74   76 am
 146   76  236 1
 147   76  237 1
 148   77   78 2
 149   77   80 1
 150   77   88 am
 151   79   80 1
 152   79  238 1
 153   80   81 1
 154   80  239 1
 155   81   82 1
 156   81  240 1
 157   81  241 1
 158   82   83 1
 159   82  242 1
 160   82  243 1
 161   83   84 2
 162   83   85 am
 163   85  244 1
 164   85  245 1
 165   86   87 2
 166   86   89 1
 167   86  100 am
 168   88   89 1
 169   88  246 1
 170   89   90 1
 171   89  247 1
 172   90   91 1
 173   90  248 1
 174   90  249 1
 175   91   92 ar
 176   91   97 ar
 177   92   93 ar
 178   92  250 1
 179   93   94 ar
 180   93  251 1
 181   94   95 1
 182   94   96 ar
 183   95  252 1
 184   96   97 ar
 185   96  253 1
 186   97  254 1
 187   98   99 2
 188   98  101 1
 189   98  111 am
 190  100  101 1
 191  100  255 1
 192  101  102 1
 193  101  256 1
 194  102  103 1
 195  102  257 1
 196  102  258 1
 197  103  104 1
 198  103  259 1
 199  103  260 1
 200  104  105 1
 201  104  261 1
 202  104  262 1
 203  105  106 1
 204  105  263 1
 205  106  107 2
 206  106  108 1
 207  107  264 1
 208  108  265 1
 209  108  266 1
 210  109  110 2
 211  109  112 1
 212  109  120 am
 213  111  112 1
 214  111  267 1
 215  112  113 1
 216  112  268 1
 217  113  114 1
 218  113  269 1
 219  113  270 1
 220  114  115 1
 221  114  271 1
 222  114  272 1
 223  115  116 1
 224  115  273 1
 225  115  274 1
 226  116  117 1
 227  116  275 1
 228  116  276 1
 229  117  277 1
 230  117  278 1
 231  118  119 2
 232  118  121 1
 233  118  128 am
 234  120  121 1
 235  120  279 1
 236  121  122 1
 237  121  280 1
 238  122  123 1
 239  122  281 1
 240  122  282 1
 241  123  124 1
 242  123  125 1
 243  123  283 1
 244  124  284 1
 245  124  285 1
 246  124  286 1
 247  125  287 1
 248  125  288 1
 249  125  289 1
 250  126  127 2
 251  126  129 1
 252  126  136 am
 253  128  129 1
 254  128  290 1
 255  129  130 1
 256  129  291 1
 257  130  131 1
 258  130  292 1
 259  130  293 1
 260  131  132 1
 261  131  133 1
 262  131  294 1
 263  132  295 1
 264  132  296 1
 265  132  297 1
 266  133  298 1
 267  133  299 1
 268  133  300 1
 269  134  135 2
 270  134  137 1
 271  134  147 am
 272  136  137 1
 273  136  301 1
 274  137  138 1
 275  137  302 1
 276  138  139 1
 277  138  303 1
 278  138  304 1
 279  139  140 ar
 280  139  144 ar
 281  140  141 ar
 282  140  305 1
 283  141  142 ar
 284  141  306 1
 285  142  143 ar
 286  142  307 1
 287  143  144 ar
 288  143  308 1
 289  144  309 1
 290  145  146 2
 291  145  148 1
 292  145  150 1
 293  147  148 1
 294  147  310 1
 295  148  149 1
 296  148  311 1
 297  149  312 1
 298  149  313 1
 299  149  314 1
 300  150  315 1
 301  151  152 2
 302  151  167 1
 303  153  154 1
 304  153  316 1
 305  153  317 1
 306  153  318 1
 307  154  155 1
 308  154  319 1
 309  154  320 1
 310  155  156 1
 311  155  321 1
 312  155  322 1
 313  156  157 1
 314  156  323 1
 315  156  324 1
 316  157  158 1
 317  157  325 1
 318  157  326 1
 319  158  159 1
 320  158  327 1
 321  158  328 1
 322  159  160 1
 323  159  329 1
 324  159  330 1
 325  160  161 1
 326  160  331 1
 327  160  332 1
 328  161  162 1
 329  161  333 1
 330  161  334 1
 331  162  163 1
 332  162  335 1
 333  162  336 1
 334  163  164 1
 335  163  337 1
 336  163  338 1
 337  164  165 1
 338  164  339 1
 339  164  340 1
 340  165  166 1
 341  165  341 1
 342  165  342 1
 343  166  167 1
 344  166  343 1
 345  166  344 1
 346  167  345 1
 347  167  346 1

#	End of record

