#	Name: ASD01813229
#	Creating user name:	WinNT
#	Creation time:	15. 06. 2019 19:30

#	Modifying user name:	WinNT
#	Modification time:	15. 06. 2019 19:30

#	Program:	/corina/corina34_cracker 3.40 0067  02.08.2006

@<TRIPOS>MOLECULE
ASD01813229
  48   52    0    0    0
SMALL
NO_CHARGES


@<TRIPOS>ATOM
   1 C1             7.3299     1.2722     0.9165 C.2     
   2 C2             6.0774     1.3471     0.2923 C.2     
   3 C3             5.3103     0.2237     0.1892 C.2     
   4 C4             5.7892    -0.9897     0.7106 C.2     
   5 N5             7.0159    -1.0340     1.3154 N.am    
   6 C6             7.7739     0.0952     1.4124 C.2     
   7 C7             5.0027    -2.1456     0.6060 C.2     
   8 C8             5.4583    -3.3293     1.1096 C.2     
   9 C9             6.7205    -3.3713     1.7304 C.2     
  10 C10            7.4876    -2.1918     1.8204 C.2     
  11 O11            8.5826    -2.2190     2.3564 O.2     
  12 C12            7.2323    -4.6289     2.2793 C.2     
  13 O13            8.4430    -4.6624     2.8732 O.3     
  14 O14            6.5656    -5.6432     2.1998 O.2     
  15 C15            3.6536    -2.0808    -0.0623 C.3     
  16 N16            3.7896    -2.4524    -1.4770 N.3     
  17 C17            4.2499    -3.8699    -1.6175 C.3     
  18 C18            3.2237    -4.6886    -0.7745 C.3     
  19 N19            1.9633    -4.6468    -1.5544 N.3     
  20 C20            2.2498    -3.8035    -2.7576 C.3     
  21 C21            2.4834    -2.3754    -2.1746 C.3     
  22 C22            0.9285    -4.1040    -0.8004 C.ar    
  23 N23            1.1303    -3.8102     0.4745 N.ar    
  24 C24            0.1757    -3.2939     1.2255 C.ar    
  25 C25           -1.0773    -3.0402     0.7026 C.ar    
  26 C26           -1.3299    -3.3346    -0.6319 C.ar    
  27 C27           -0.3075    -3.8696    -1.3944 C.ar    
  28 C28            3.7360    -4.2105    -3.0622 C.3     
  29 Cl29          -2.3239    -2.3614     1.7021 Cl      
  30 H30            7.9445     2.1565     0.9977 H       
  31 H31            5.7220     2.2870    -0.1036 H       
  32 H32            4.3429     0.2669    -0.2890 H       
  33 H33            8.7407     0.0491     1.8916 H       
  34 H34            4.8571    -4.2233     1.0329 H       
  35 H35            8.7382    -5.5153     3.2204 H       
  36 H36            2.9702    -2.7721     0.4308 H       
  37 H37            3.2602    -1.0669     0.0108 H       
  38 H38            5.3032    -4.0558    -1.4073 H       
  39 H39            3.5637    -5.7178    -0.6597 H       
  40 H40            3.0804    -4.2253     0.2016 H       
  41 H41            1.5354    -3.8782    -3.5775 H       
  42 H42            1.6922    -2.1202    -1.4696 H       
  43 H43            2.5264    -1.6407    -2.9787 H       
  44 H44            0.3767    -3.0671     2.2621 H       
  45 H45           -2.3011    -3.1458    -1.0648 H       
  46 H46           -0.4691    -4.1102    -2.4348 H       
  47 H47            4.1912    -3.5775    -3.8239 H       
  48 H48            3.8355    -5.2699    -3.2984 H       
@<TRIPOS>BOND
   1    1    2 1
   2    1    6 2
   3    1   30 1
   4    2    3 2
   5    2   31 1
   6    3    4 1
   7    3   32 1
   8    4    5 1
   9    4    7 2
  10    5    6 1
  11    5   10 am
  12    6   33 1
  13    7    8 1
  14    7   15 1
  15    8    9 2
  16    8   34 1
  17    9   10 1
  18    9   12 1
  19   10   11 2
  20   12   13 1
  21   12   14 2
  22   13   35 1
  23   15   16 1
  24   15   36 1
  25   15   37 1
  26   16   17 1
  27   16   21 1
  28   17   18 1
  29   17   28 1
  30   17   38 1
  31   18   19 1
  32   18   39 1
  33   18   40 1
  34   19   20 1
  35   19   22 1
  36   20   21 1
  37   20   28 1
  38   20   41 1
  39   21   42 1
  40   21   43 1
  41   22   23 ar
  42   22   27 ar
  43   23   24 ar
  44   24   25 ar
  45   24   44 1
  46   25   26 ar
  47   25   29 1
  48   26   27 ar
  49   26   45 1
  50   27   46 1
  51   28   47 1
  52   28   48 1

#	End of record

