#	Name: ASD08070101
#	Creating user name:	WinNT
#	Creation time:	15. 06. 2019 21:14

#	Modifying user name:	WinNT
#	Modification time:	15. 06. 2019 21:14

#	Program:	/corina/corina34_cracker 3.40 0067  02.08.2006

@<TRIPOS>MOLECULE
ASD08070101
  39   39    0    0    0
SMALL
NO_CHARGES


@<TRIPOS>ATOM
   1 C1             0.6638     1.2353     0.5050 C.ar    
   2 C2             0.5284    -0.1300     0.3822 C.ar    
   3 C3             1.9281     1.8107     0.5305 C.ar    
   4 C4             3.0622     1.0110     0.4322 C.ar    
   5 C5             2.9349    -0.3553     0.3086 C.ar    
   6 C6             1.6644    -0.9370     0.2831 C.ar    
   7 C7             1.5232    -2.4004     0.1514 C.2     
   8 O8             2.5129    -3.1013     0.0648 O.2     
   9 C9             0.2017    -4.7975    -1.4838 C.3     
  10 C10            0.1570    -4.4120    -0.0038 C.3     
  11 N11            0.2972    -2.9596     0.1270 N.am    
  12 O12            2.0571     3.1564     0.6512 O.3     
  13 O13           -0.9337    -4.2463    -2.1540 O.3     
  14 C14           -0.1371    -5.4477     2.7888 C.3     
  15 Cl15           4.6395     1.7355     0.4646 Cl      
  16 C16            0.8515     3.9177     0.7472 C.3     
  17 C17           -1.1793    -4.8516     0.5977 C.3     
  18 C18           -1.1809    -4.5656     2.1007 C.3     
  19 C19           -2.5653    -4.8701     2.6764 C.3     
  20 H20           -0.2143     1.8599     0.5771 H       
  21 H21           -0.4550    -0.5761     0.3629 H       
  22 H22            3.8155    -0.9758     0.2319 H       
  23 H23            1.1143    -4.4066    -1.9337 H       
  24 H24            0.1868    -5.8834    -1.5770 H       
  25 H25            0.9730    -4.9048     0.5248 H       
  26 H26           -0.4924    -2.4004     0.1960 H       
  27 H27           -0.9707    -4.4511    -3.0983 H       
  28 H28            0.8492    -5.2307     2.3786 H       
  29 H29           -0.1382    -5.2439     3.8596 H       
  30 H30           -0.3787    -6.4968     2.6183 H       
  31 H31            0.2502     3.7603    -0.1482 H       
  32 H32            0.2885     3.5976     1.6239 H       
  33 H33            1.0964     4.9759     0.8390 H       
  34 H34           -1.9906    -4.3005     0.1221 H       
  35 H35           -1.3190    -5.9197     0.4309 H       
  36 H36           -0.9392    -3.5165     2.2711 H       
  37 H37           -3.2953    -4.1817     2.2506 H       
  38 H38           -2.8444    -5.8944     2.4291 H       
  39 H39           -2.5426    -4.7513     3.7596 H       
@<TRIPOS>BOND
   1    1    2 ar
   2    1    3 ar
   3    1   20 1
   4    2    6 ar
   5    2   21 1
   6    3    4 ar
   7    3   12 1
   8    4    5 ar
   9    4   15 1
  10    5    6 ar
  11    5   22 1
  12    6    7 1
  13    7    8 2
  14    7   11 am
  15    9   10 1
  16    9   13 1
  17    9   23 1
  18    9   24 1
  19   10   17 1
  20   10   11 1
  21   10   25 1
  22   11   26 1
  23   12   16 1
  24   13   27 1
  25   14   18 1
  26   14   28 1
  27   14   29 1
  28   14   30 1
  29   16   31 1
  30   16   32 1
  31   16   33 1
  32   17   18 1
  33   17   34 1
  34   17   35 1
  35   18   19 1
  36   18   36 1
  37   19   37 1
  38   19   38 1
  39   19   39 1

#	End of record

