#	Name: ASD01884706
#	Creating user name:	WinNT
#	Creation time:	15. 06. 2019 19:48

#	Modifying user name:	WinNT
#	Modification time:	15. 06. 2019 19:48

#	Program:	/corina/corina34_cracker 3.40 0067  02.08.2006

@<TRIPOS>MOLECULE
ASD01884706
  42   44    0    0    0
SMALL
NO_CHARGES


@<TRIPOS>ATOM
   1 C1            -0.0168     1.3861     0.0097 C.2     
   2 C2             0.0021    -0.0041     0.0020 C.2     
   3 C3            -1.2195    -0.6996     0.0099 C.2     
   4 C4            -2.4055     0.0015     0.0249 C.2     
   5 N5            -2.4135     1.3554     0.0318 N.am    
   6 C6            -1.2663     2.0589     0.0311 C.2     
   7 O7            -1.3005     3.2774     0.0385 O.2     
   8 C8            -3.6938     2.0672     0.0474 C.3     
   9 C9             1.2076     2.1287     0.0020 C.1     
  10 N10            2.1789     2.7178    -0.0041 N.1     
  11 C11           -4.1261     2.3078     1.4952 C.3     
  12 C12           -5.4633     3.0512     1.5114 C.3     
  13 C13           -5.9567     3.1818     2.9537 C.3     
  14 C14           -5.2795     4.4447     0.9070 C.3     
  15 C15           -1.2316    -2.1841     0.0015 C.ar    
  16 C16           -0.7397    -2.8745    -1.0968 C.ar    
  17 C17           -0.7564    -4.2695    -1.0929 C.ar    
  18 C18           -1.2692    -4.9631     0.0189 C.ar    
  19 C19           -1.7573    -4.2492     1.1096 C.ar    
  20 C20           -1.7335    -2.8843     1.1033 C.ar    
  21 C21           -0.3324    -5.2945    -2.0501 C.2     
  22 C22           -0.5986    -6.4860    -1.4923 C.2     
  23 N23           -1.1583    -6.3083    -0.2566 N.pl3   
  24 H24            0.9394    -0.5405    -0.0101 H       
  25 H25           -3.3420    -0.5365     0.0310 H       
  26 H26           -3.5837     3.0242    -0.4627 H       
  27 H27           -4.4486     1.4685    -0.4625 H       
  28 H28           -4.2362     1.3508     2.0052 H       
  29 H29           -3.3714     2.9065     2.0050 H       
  30 H30           -6.1954     2.4949     0.9259 H       
  31 H31           -5.2246     3.7381     3.5392 H       
  32 H32           -6.9093     3.7114     2.9653 H       
  33 H33           -6.0877     2.1891     3.3843 H       
  34 H34           -4.9279     4.3516    -0.1205 H       
  35 H35           -6.2321     4.9743     0.9186 H       
  36 H36           -4.5474     5.0009     1.4925 H       
  37 H37           -0.3477    -2.3367    -1.9474 H       
  38 H38           -2.1522    -4.7767     1.9653 H       
  39 H39           -2.1145    -2.3393     1.9543 H       
  40 H40            0.1099    -5.1238    -3.0205 H       
  41 H41           -0.4008    -7.4434    -1.9513 H       
  42 H42           -1.4361    -7.0233     0.3372 H       
@<TRIPOS>BOND
   1    1    2 2
   2    1    9 1
   3    1    6 1
   4    2    3 1
   5    2   24 1
   6    3    4 2
   7    3   15 1
   8    4    5 1
   9    4   25 1
  10    5    8 1
  11    5    6 am
  12    6    7 2
  13    8   11 1
  14    8   26 1
  15    8   27 1
  16    9   10 3
  17   11   12 1
  18   11   28 1
  19   11   29 1
  20   12   13 1
  21   12   14 1
  22   12   30 1
  23   13   31 1
  24   13   32 1
  25   13   33 1
  26   14   34 1
  27   14   35 1
  28   14   36 1
  29   15   16 ar
  30   15   20 ar
  31   16   17 ar
  32   16   37 1
  33   17   18 ar
  34   17   21 1
  35   18   19 ar
  36   18   23 1
  37   19   20 ar
  38   19   38 1
  39   20   39 1
  40   21   22 2
  41   21   40 1
  42   22   23 1
  43   22   41 1
  44   23   42 1

#	End of record

