#	Name: ASD01001238
#	Creating user name:	WinNT
#	Creation time:	15. 06. 2019 18:55

#	Modifying user name:	WinNT
#	Modification time:	15. 06. 2019 18:55

#	Program:	/corina/corina34_cracker 3.40 0067  02.08.2006

@<TRIPOS>MOLECULE
ASD01001238
  49   53    0    0    0
SMALL
NO_CHARGES


@<TRIPOS>ATOM
   1 C1            -0.0003     1.2545     0.0462 C.ar    
   2 C2            -0.0113    -0.1345     0.0498 C.ar    
   3 C3            -1.2021    -0.8269     0.0551 C.ar    
   4 C4            -2.4081    -0.1350     0.0569 C.ar    
   5 C5            -2.3988     1.2731     0.0532 C.ar    
   6 C6            -1.1829     1.9601     0.0530 C.ar    
   7 N7            -3.7278    -0.5344     0.0623 N.pl3   
   8 C8            -4.5442     0.5599     0.0603 C.2     
   9 C9            -3.8004     1.6827     0.0570 C.2     
  10 C10           -6.0575     0.5633     0.0564 C.3     
  11 N11           -6.4959     1.9427     0.3298 N.am    
  12 C12           -5.8204     3.0434    -0.3737 C.3     
  13 C13           -4.3504     3.0854     0.0622 C.3     
  14 C14           -6.5672     0.1214    -1.2912 C.2     
  15 C15           -7.4922     2.1901     1.2032 C.2     
  16 C16           -7.9262     3.6085     1.4692 C.3     
  17 O17           -8.0394     1.2711     1.7750 O.2     
  18 Cl18           1.5127     2.1057     0.0402 Cl      
  19 C19           -9.0644     3.6104     2.4915 C.3     
  20 N20           -9.4875     4.9930     2.7508 N.3     
  21 C21           -6.6525    -1.2562    -1.7817 C.ar    
  22 C22           -7.1857    -1.1740    -3.0808 C.ar    
  23 N23           -7.4033     0.1593    -3.3469 N.pl3   
  24 C24           -7.0345     0.9152    -2.2677 C.2     
  25 C25           -6.3300    -2.5015    -1.2385 C.ar    
  26 C26           -6.5342    -3.6353    -1.9729 C.ar    
  27 C27           -7.0598    -3.5594    -3.2557 C.ar    
  28 C28           -7.3858    -2.3415    -3.8105 C.ar    
  29 H29            0.9227    -0.6768     0.0482 H       
  30 H30           -1.1990    -1.9068     0.0575 H       
  31 H31           -1.1701     3.0400     0.0503 H       
  32 H32           -4.0311    -1.4557     0.0666 H       
  33 H33           -6.4314    -0.1050     0.8321 H       
  34 H34           -5.8773     2.8781    -1.4496 H       
  35 H35           -6.3028     3.9878    -0.1221 H       
  36 H36           -4.2793     3.5017     1.0670 H       
  37 H37           -3.7812     3.7035    -0.6322 H       
  38 H38           -7.0841     4.1785     1.8619 H       
  39 H39           -8.2711     4.0631     0.5405 H       
  40 H40           -9.9065     3.0404     2.0988 H       
  41 H41           -8.7195     3.1557     3.4202 H       
  42 H42          -10.2390     5.0211     3.4235 H       
  43 H43           -8.7089     5.5584     3.0546 H       
  44 H44           -7.7673     0.5101    -4.1748 H       
  45 H45           -7.1022     1.9917    -2.2125 H       
  46 H46           -5.9201    -2.5681    -0.2415 H       
  47 H47           -6.2846    -4.5982    -1.5524 H       
  48 H48           -7.2152    -4.4645    -3.8240 H       
  49 H49           -7.7943    -2.2930    -4.8091 H       
@<TRIPOS>BOND
   1    1    2 ar
   2    1   18 1
   3    1    6 ar
   4    2    3 ar
   5    2   29 1
   6    3    4 ar
   7    3   30 1
   8    4    5 ar
   9    4    7 1
  10    5    6 ar
  11    5    9 1
  12    6   31 1
  13    7    8 1
  14    7   32 1
  15    8    9 2
  16    8   10 1
  17    9   13 1
  18   10   11 1
  19   10   14 1
  20   10   33 1
  21   11   12 1
  22   11   15 am
  23   12   13 1
  24   12   34 1
  25   12   35 1
  26   13   36 1
  27   13   37 1
  28   14   21 1
  29   14   24 2
  30   15   16 1
  31   15   17 2
  32   16   19 1
  33   16   38 1
  34   16   39 1
  35   19   20 1
  36   19   40 1
  37   19   41 1
  38   20   42 1
  39   20   43 1
  40   21   22 ar
  41   21   25 ar
  42   22   23 1
  43   22   28 ar
  44   23   24 1
  45   23   44 1
  46   24   45 1
  47   25   26 ar
  48   25   46 1
  49   26   27 ar
  50   26   47 1
  51   27   28 ar
  52   27   48 1
  53   28   49 1

#	End of record

