#	Name: ASD01884108
#	Creating user name:	WinNT
#	Creation time:	15. 06. 2019 19:47

#	Modifying user name:	WinNT
#	Modification time:	15. 06. 2019 19:47

#	Program:	/corina/corina34_cracker 3.40 0067  02.08.2006

@<TRIPOS>MOLECULE
ASD01884108
  51   55    0    0    0
SMALL
NO_CHARGES


@<TRIPOS>ATOM
   1 C1            -0.0167     1.3776     0.0096 C.ar    
   2 C2             0.0021    -0.0041     0.0020 C.ar    
   3 C3            -1.1810    -0.7162     0.0095 C.ar    
   4 C4            -2.4037    -0.0455     0.0243 C.ar    
   5 C5            -2.4326     1.3446     0.0320 C.ar    
   6 C6            -1.2364     2.0614     0.0308 C.ar    
   7 C7            -3.6728    -0.8148     0.0313 C.ar    
   8 C8            -4.8952    -0.1451     0.0461 C.ar    
   9 C9            -6.0773    -0.8597     0.0522 C.ar    
  10 C10           -6.0556    -2.2402     0.0441 C.ar    
  11 C11           -4.8385    -2.9209     0.0292 C.ar    
  12 C12           -3.6447    -2.2059     0.0173 C.ar    
  13 C13           -4.8166    -4.4041     0.0210 C.ar    
  14 C14           -6.0071    -5.1193     0.0280 C.ar    
  15 C15           -5.9739    -6.5065     0.0196 C.ar    
  16 C16           -4.7504    -7.2004     0.0042 C.ar    
  17 C17           -3.5571    -6.4473    -0.0023 C.ar    
  18 C18           -3.5961    -5.0890     0.0002 C.ar    
  19 S19           -7.2398    -7.7365     0.0234 S.3     
  20 N20           -6.2064    -9.0771     0.0056 N.am    
  21 C21           -4.9461    -8.6441    -0.0031 C.2     
  22 O22           -4.0039    -9.4174    -0.0165 O.2     
  23 C23           -6.6276   -10.4803     0.0006 C.3     
  24 C24           -6.0976   -11.1852    -1.2604 C.3     
  25 C25           -5.1828   -12.3284    -0.7746 C.3     
  26 C26           -5.6805   -12.6292     0.6610 C.3     
  27 C27           -6.0163   -11.2198     1.2086 C.3     
  28 C28           -1.2577     3.5379     0.0394 C.2     
  29 Cl29           1.4752     2.2653     0.0001 Cl      
  30 O30           -0.2145     4.1604     0.0383 O.2     
  31 O31           -2.4339     4.1945     0.0485 O.3     
  32 H32            0.9458    -0.5291    -0.0102 H       
  33 H33           -1.1594    -1.7960     0.0035 H       
  34 H34           -3.3777     1.8672     0.0431 H       
  35 H35           -4.9181     0.9346     0.0532 H       
  36 H36           -7.0220    -0.3366     0.0636 H       
  37 H37           -6.9829    -2.7939     0.0496 H       
  38 H38           -2.6998    -2.7289     0.0054 H       
  39 H39           -6.9533    -4.5988     0.0402 H       
  40 H40           -2.6040    -6.9551    -0.0142 H       
  41 H41           -2.6720    -4.5300    -0.0052 H       
  42 H42           -7.7152   -10.5435     0.0345 H       
  43 H43           -6.9280   -11.5913    -1.8380 H       
  44 H44           -5.5271   -10.4833    -1.8686 H       
  45 H45           -5.2989   -13.2062    -1.4104 H       
  46 H46           -4.1425   -12.0035    -0.7575 H       
  47 H47           -6.5713   -13.2568     0.6374 H       
  48 H48           -4.8932   -13.0961     1.2528 H       
  49 H49           -5.1106   -10.7158     1.5460 H       
  50 H50           -6.7406   -11.2885     2.0202 H       
  51 H51           -2.3973     5.1608     0.0540 H       
@<TRIPOS>BOND
   1    1    2 ar
   2    1   29 1
   3    1    6 ar
   4    2    3 ar
   5    2   32 1
   6    3    4 ar
   7    3   33 1
   8    4    5 ar
   9    4    7 1
  10    5    6 ar
  11    5   34 1
  12    6   28 1
  13    7    8 ar
  14    7   12 ar
  15    8    9 ar
  16    8   35 1
  17    9   10 ar
  18    9   36 1
  19   10   11 ar
  20   10   37 1
  21   11   12 ar
  22   11   13 1
  23   12   38 1
  24   13   14 ar
  25   13   18 ar
  26   14   15 ar
  27   14   39 1
  28   15   16 ar
  29   15   19 1
  30   16   17 ar
  31   16   21 1
  32   17   18 ar
  33   17   40 1
  34   18   41 1
  35   19   20 1
  36   20   21 am
  37   20   23 1
  38   21   22 2
  39   23   24 1
  40   23   27 1
  41   23   42 1
  42   24   25 1
  43   24   43 1
  44   24   44 1
  45   25   26 1
  46   25   45 1
  47   25   46 1
  48   26   27 1
  49   26   47 1
  50   26   48 1
  51   27   49 1
  52   27   50 1
  53   28   30 2
  54   28   31 1
  55   31   51 1

#	End of record

