#	Name: ASD04910183
#	Creating user name:	WinNT
#	Creation time:	15. 06. 2019 20:55

#	Modifying user name:	WinNT
#	Modification time:	15. 06. 2019 20:55

#	Program:	/corina/corina34_cracker 3.40 0067  02.08.2006

@<TRIPOS>MOLECULE
ASD04910183
  33   35    0    0    0
SMALL
NO_CHARGES


@<TRIPOS>ATOM
   1 C1             0.0476     1.4843     0.0631 C.ar    
   2 C2            -0.0565     0.1060    -0.0567 C.ar    
   3 C3             1.0838    -0.6693    -0.1252 C.ar    
   4 C4             2.3349    -0.0695    -0.0744 C.ar    
   5 C5             2.4386     1.3097     0.0455 C.ar    
   6 C6             1.2976     2.0842     0.1139 C.ar    
   7 O7            -1.0755     2.2477     0.1249 O.3     
   8 C8             3.7962     1.9614     0.1012 C.3     
   9 C9             0.9706    -2.1665    -0.2548 C.3     
  10 N10            3.4939    -0.8569    -0.1435 N.pl3   
  11 N11            3.8108    -1.9331     0.6955 N.2     
  12 C12            4.9688    -2.4158     0.3222 C.2     
  13 C13            5.4266    -1.6640    -0.7652 C.2     
  14 C14            4.5000    -0.7152    -1.0354 C.2     
  15 C15            6.7204    -1.8767    -1.5081 C.3     
  16 C16            8.0206    -1.7621    -0.7096 C.3     
  17 C17            7.5275    -3.1334    -1.1759 C.3     
  18 H18           -1.0298    -0.3606    -0.0959 H       
  19 H19            1.3782     3.1572     0.2071 H       
  20 H20           -1.4037     2.3924     1.0229 H       
  21 H21            4.1609     2.1286    -0.9123 H       
  22 H22            3.7200     2.9160     0.6220 H       
  23 H23            4.4898     1.3111     0.6343 H       
  24 H24            0.8951    -2.4353    -1.3084 H       
  25 H25            1.8539    -2.6365     0.1777 H       
  26 H26            0.0809    -2.5106     0.2726 H       
  27 H27            5.4826    -3.2505     0.7757 H       
  28 H28            4.5554     0.0237    -1.8211 H       
  29 H29            6.7320    -1.5292    -2.5411 H       
  30 H30            8.8875    -1.3396    -1.2176 H       
  31 H31            7.9401    -1.5329     0.3529 H       
  32 H32            7.1226    -3.8064    -0.4200 H       
  33 H33            8.0700    -3.6130    -1.9905 H       
@<TRIPOS>BOND
   1    1    2 ar
   2    1    6 ar
   3    1    7 1
   4    2    3 ar
   5    2   18 1
   6    3    4 ar
   7    3    9 1
   8    4    5 ar
   9    4   10 1
  10    5    6 ar
  11    5    8 1
  12    6   19 1
  13    7   20 1
  14    8   21 1
  15    8   22 1
  16    8   23 1
  17    9   24 1
  18    9   25 1
  19    9   26 1
  20   10   11 1
  21   10   14 1
  22   11   12 2
  23   12   13 1
  24   12   27 1
  25   13   14 2
  26   13   15 1
  27   14   28 1
  28   15   16 1
  29   15   17 1
  30   15   29 1
  31   16   17 1
  32   16   30 1
  33   16   31 1
  34   17   32 1
  35   17   33 1

#	End of record

