#	Name: ASD01816633
#	Creating user name:	WinNT
#	Creation time:	15. 06. 2019 19:35

#	Modifying user name:	WinNT
#	Modification time:	15. 06. 2019 19:35

#	Program:	/corina/corina34_cracker 3.40 0067  02.08.2006

@<TRIPOS>MOLECULE
ASD01816633
  48   52    0    0    0
SMALL
NO_CHARGES


@<TRIPOS>ATOM
   1 C1            -0.0167     1.3813     0.0096 C.ar    
   2 C2             0.0021    -0.0041     0.0020 C.ar    
   3 C3             1.1984    -0.6909    -0.0126 C.ar    
   4 C4             2.4015     0.0059    -0.0198 C.ar    
   5 C5             2.3790     1.4106    -0.0126 C.ar    
   6 C6             1.1663     2.0916     0.0022 C.ar    
   7 N7             3.6053    -0.6772    -0.0336 N.pl3   
   8 C8             4.7970    -0.0586    -0.0411 C.2     
   9 C9             4.9000     1.3102    -0.0351 C.2     
  10 C10            3.6670     2.1301    -0.0205 C.2     
  11 C11            5.9971     2.2729    -0.0393 C.2     
  12 N12            5.4246     3.4960    -0.0281 N.am    
  13 N13            4.0323     3.3799    -0.0170 N.2     
  14 O14            7.1915     2.0228    -0.0502 O.2     
  15 C15            6.1268     4.7086    -0.0279 C.ar    
  16 C16            3.5779    -2.1420    -0.0397 C.3     
  17 C17            3.5558    -2.6380    -1.4625 C.ar    
  18 C18            4.7430    -2.8877    -2.1254 C.ar    
  19 C19            4.7240    -3.3431    -3.4301 C.ar    
  20 C20            3.5153    -3.5492    -4.0733 C.ar    
  21 C21            2.3269    -3.2988    -3.4083 C.ar    
  22 C22            2.3484    -2.8485    -2.1019 C.ar    
  23 F23            3.4955    -3.9939    -5.3488 F       
  24 C24            7.0626     4.9706    -1.0179 C.ar    
  25 C25            5.8829     5.6572     0.9635 C.ar    
  26 C26            6.5798     6.8543     0.9582 C.ar    
  27 C27            7.5146     7.1062    -0.0293 C.ar    
  28 C28            7.7536     6.1676    -1.0158 C.ar    
  29 O29            4.9629     5.4085     1.9331 O.3     
  30 C30            4.7655     6.4264     2.9165 C.3     
  31 H31           -0.9602     1.9068     0.0169 H       
  32 H32           -0.9289    -0.5515     0.0079 H       
  33 H33            1.2004    -1.7709    -0.0181 H       
  34 H34            1.1506     3.1715     0.0081 H       
  35 H35            5.6983    -0.6536    -0.0518 H       
  36 H36            4.4655    -2.5241     0.4646 H       
  37 H37            2.6859    -2.4909     0.4806 H       
  38 H38            5.6857    -2.7266    -1.6237 H       
  39 H39            5.6515    -3.5378    -3.9479 H       
  40 H40            1.3835    -3.4592    -3.9090 H       
  41 H41            1.4215    -2.6531    -1.5831 H       
  42 H42            7.2515     4.2392    -1.7898 H       
  43 H43            6.3928     7.5913     1.7252 H       
  44 H44            8.0564     8.0404    -0.0321 H       
  45 H45            8.4847     6.3689    -1.7849 H       
  46 H46            4.4362     7.3439     2.4287 H       
  47 H47            4.0072     6.1012     3.6288 H       
  48 H48            5.7025     6.6104     3.4421 H       
@<TRIPOS>BOND
   1    1    2 ar
   2    1    6 ar
   3    1   31 1
   4    2    3 ar
   5    2   32 1
   6    3    4 ar
   7    3   33 1
   8    4    5 ar
   9    4    7 1
  10    5    6 ar
  11    5   10 1
  12    6   34 1
  13    7    8 1
  14    7   16 1
  15    8    9 2
  16    8   35 1
  17    9   10 1
  18    9   11 1
  19   10   13 2
  20   11   12 am
  21   11   14 2
  22   12   13 1
  23   12   15 1
  24   15   24 ar
  25   15   25 ar
  26   16   17 1
  27   16   36 1
  28   16   37 1
  29   17   18 ar
  30   17   22 ar
  31   18   19 ar
  32   18   38 1
  33   19   20 ar
  34   19   39 1
  35   20   21 ar
  36   20   23 1
  37   21   22 ar
  38   21   40 1
  39   22   41 1
  40   24   28 ar
  41   24   42 1
  42   25   26 ar
  43   25   29 1
  44   26   27 ar
  45   26   43 1
  46   27   28 ar
  47   27   44 1
  48   28   45 1
  49   29   30 1
  50   30   46 1
  51   30   47 1
  52   30   48 1

#	End of record

