#	Name: ASD01230604
#	Creating user name:	WinNT
#	Creation time:	15. 06. 2019 19:14

#	Modifying user name:	WinNT
#	Modification time:	15. 06. 2019 19:14

#	Program:	/corina/corina34_cracker 3.40 0067  02.08.2006

@<TRIPOS>MOLECULE
ASD01230604
  44   47    0    0    0
SMALL
NO_CHARGES


@<TRIPOS>ATOM
   1 S1             0.0797     1.7748     1.3208 S.o2    
   2 N2            -0.1046     0.2590     0.6836 N.am    
   3 C3             0.6428    -0.1824    -0.2989 C.2     
   4 N4             1.6408     0.5190    -0.9132 N.pl3   
   5 C5             1.9775     1.9097    -0.5979 C.3     
   6 C6             1.8042     2.1793     0.8996 C.3     
   7 C7             0.3593    -1.5587    -0.7586 C.2     
   8 C8             1.1312    -2.1035    -1.7616 C.2     
   9 C9             2.1622    -1.3346    -2.3191 C.2     
  10 C10            2.3908    -0.0800    -1.8947 C.2     
  11 C11           -0.7394    -2.3417    -0.1488 C.ar    
  12 O12           -0.8235     2.5856     0.5819 O.2     
  13 O13           -0.0680     1.5939     2.7225 O.2     
  14 C14           -0.4542    -3.4970     0.5799 C.ar    
  15 C15           -1.4799    -4.2236     1.1463 C.ar    
  16 C16           -2.7956    -3.8069     0.9923 C.ar    
  17 C17           -3.0833    -2.6577     0.2679 C.ar    
  18 C18           -2.0623    -1.9229    -0.2965 C.ar    
  19 O19           -3.8041    -4.5258     1.5516 O.3     
  20 C20           -5.4889    -6.1850     1.2893 C.ar    
  21 C21           -4.3858    -5.4985     0.8022 C.ar    
  22 C22           -6.0787    -7.1731     0.5253 C.ar    
  23 C23           -5.5705    -7.4788    -0.7238 C.ar    
  24 C24           -4.4717    -6.7960    -1.2119 C.ar    
  25 C25           -3.8781    -5.8069    -0.4519 C.ar    
  26 F26            4.0639    -2.6597    -2.8305 F       
  27 F27            2.2492    -2.7603    -4.2147 F       
  28 C28            3.0244    -1.9216    -3.4067 C.3     
  29 F29            3.5606    -0.8899    -4.1847 F       
  30 H30            3.0126     2.1019    -0.8804 H       
  31 H31            1.3225     2.5746    -1.1610 H       
  32 H32            2.0022     3.2297     1.1133 H       
  33 H33            2.4842     1.5483     1.4719 H       
  34 H34            0.9450    -3.1077    -2.1127 H       
  35 H35            3.1975     0.4799    -2.3444 H       
  36 H36            0.5688    -3.8219     0.6997 H       
  37 H37           -1.2599    -5.1181     1.7101 H       
  38 H38           -4.1078    -2.3367     0.1499 H       
  39 H39           -2.2867    -1.0289    -0.8595 H       
  40 H40           -5.8833    -5.9500     2.2669 H       
  41 H41           -6.9373    -7.7077     0.9040 H       
  42 H42           -6.0327    -8.2522    -1.3193 H       
  43 H43           -4.0767    -7.0366    -2.1878 H       
  44 H44           -3.0198    -5.2739    -0.8335 H       
@<TRIPOS>BOND
   1    1    2 am
   2    1    6 1
   3    1   12 2
   4    1   13 2
   5    2    3 2
   6    3    4 1
   7    3    7 1
   8    4    5 1
   9    4   10 1
  10    5    6 1
  11    5   30 1
  12    5   31 1
  13    6   32 1
  14    6   33 1
  15    7    8 2
  16    7   11 1
  17    8    9 1
  18    8   34 1
  19    9   10 2
  20    9   28 1
  21   10   35 1
  22   11   14 ar
  23   11   18 ar
  24   14   15 ar
  25   14   36 1
  26   15   16 ar
  27   15   37 1
  28   16   17 ar
  29   16   19 1
  30   17   18 ar
  31   17   38 1
  32   18   39 1
  33   19   21 1
  34   20   21 ar
  35   20   22 ar
  36   20   40 1
  37   21   25 ar
  38   22   23 ar
  39   22   41 1
  40   23   24 ar
  41   23   42 1
  42   24   25 ar
  43   24   43 1
  44   25   44 1
  45   26   28 1
  46   27   28 1
  47   28   29 1

#	End of record

