#	Name: ASD00170194
#	Creating user name:	WinNT
#	Creation time:	15. 06. 2019 18:31

#	Modifying user name:	WinNT
#	Modification time:	15. 06. 2019 18:31

#	Program:	/corina/corina34_cracker 3.40 0067  02.08.2006

@<TRIPOS>MOLECULE
ASD00170194
  36   38    0    0    0
SMALL
NO_CHARGES


@<TRIPOS>ATOM
   1 C1            -0.0142     1.3328    -0.1101 C.2     
   2 C2             0.0057    -0.0013    -0.1404 C.2     
   3 C3            -1.3204    -0.5793     0.0265 C.2     
   4 C4            -2.3070     0.3600     0.1720 C.2     
   5 S5            -1.6529     1.9297     0.1173 S.3     
   6 C6             1.2018     2.2259    -0.2453 C.3     
   7 C7             2.0523     1.7759    -1.4319 C.3     
   8 C8             3.0748     0.7476    -0.9562 C.3     
   9 C9             2.4801    -0.0899     0.1737 C.3     
  10 C10            1.2553    -0.8424    -0.3371 C.3     
  11 N11           -3.6460     0.0726     0.3436 N.pl3   
  12 C12           -1.5739    -2.0198     0.0370 C.2     
  13 C13           -1.8294    -2.7349    -1.2320 C.ar    
  14 O14           -1.5747    -2.6303     1.0907 O.2     
  15 C15           -1.9618    -4.1247    -1.2388 C.ar    
  16 C16           -2.2004    -4.7859    -2.4251 C.ar    
  17 C17           -2.3087    -4.0740    -3.6084 C.ar    
  18 C18           -2.1778    -2.6951    -3.6079 C.ar    
  19 C19           -1.9448    -2.0223    -2.4269 C.ar    
  20 Cl20          -2.6091    -4.9134    -5.0980 Cl      
  21 H21            0.8789     3.2552    -0.4014 H       
  22 H22            1.7953     2.1693     0.6672 H       
  23 H23            1.4107     1.3274    -2.1903 H       
  24 H24            2.5709     2.6362    -1.8551 H       
  25 H25            3.3460     0.0955    -1.7865 H       
  26 H26            3.9654     1.2624    -0.5955 H       
  27 H27            3.2240    -0.8043     0.5264 H       
  28 H28            2.1876     0.5642     0.9951 H       
  29 H29            1.1511    -1.7783     0.2120 H       
  30 H30            1.3812    -1.0601    -1.3977 H       
  31 H31           -3.9556    -0.8452     0.2913 H       
  32 H32           -4.2774     0.7883     0.5165 H       
  33 H33           -1.8771    -4.6808    -0.3169 H       
  34 H34           -2.3026    -5.8610    -2.4317 H       
  35 H35           -2.2625    -2.1454    -4.5336 H       
  36 H36           -1.8429    -0.9471    -2.4277 H       
@<TRIPOS>BOND
   1    1    2 2
   2    1    6 1
   3    1    5 1
   4    2    3 1
   5    2   10 1
   6    3    4 2
   7    3   12 1
   8    4    5 1
   9    4   11 1
  10    6    7 1
  11    6   21 1
  12    6   22 1
  13    7    8 1
  14    7   23 1
  15    7   24 1
  16    8    9 1
  17    8   25 1
  18    8   26 1
  19    9   10 1
  20    9   27 1
  21    9   28 1
  22   10   29 1
  23   10   30 1
  24   11   31 1
  25   11   32 1
  26   12   13 1
  27   12   14 2
  28   13   15 ar
  29   13   19 ar
  30   15   16 ar
  31   15   33 1
  32   16   17 ar
  33   16   34 1
  34   17   18 ar
  35   17   20 1
  36   18   19 ar
  37   18   35 1
  38   19   36 1

#	End of record

