#	Name: ASD04230154
#	Creating user name:	WinNT
#	Creation time:	15. 06. 2019 20:48

#	Modifying user name:	WinNT
#	Modification time:	15. 06. 2019 20:48

#	Program:	/corina/corina34_cracker 3.40 0067  02.08.2006

@<TRIPOS>MOLECULE
ASD04230154
  42   45    0    0    0
SMALL
NO_CHARGES


@<TRIPOS>ATOM
   1 C1             1.5360     4.6863     1.7198 C.ar    
   2 C2             2.5439     5.3841     2.3695 C.ar    
   3 C3             3.8005     4.8590     2.4681 C.ar    
   4 C4             4.0825     3.6081     1.9003 C.ar    
   5 C5             3.0564     2.8818     1.2692 C.ar    
   6 C6             1.7832     3.4397     1.1726 C.ar    
   7 C7             5.3934     3.0678     1.9619 C.2     
   8 C8             5.6628     1.9284     1.2154 C.2     
   9 C9             4.5671     1.3877     0.3903 C.2     
  10 O10            3.2979     1.6422     0.7793 O.3     
  11 C11            6.9879     1.2871     1.2462 C.2     
  12 N12            7.2188     0.1818     0.5104 N.am    
  13 O13            7.8740     1.7549     1.9357 O.2     
  14 C14            8.5059    -0.3623     0.4509 C.ar    
  15 C15            8.6754    -1.7389     0.3687 C.ar    
  16 C16            9.9458    -2.2799     0.3092 C.ar    
  17 C17           11.0531    -1.4557     0.3312 C.ar    
  18 C18           10.8923    -0.0738     0.4135 C.ar    
  19 C19            9.6136     0.4725     0.4681 C.ar    
  20 C20           12.0824     0.8138     0.4377 C.2     
  21 O21            4.7981     0.7334    -0.6092 O.2     
  22 O22            0.7869     2.7610     0.5436 O.3     
  23 C23           12.0705     2.2199     0.5185 C.2     
  24 N24           13.3088     2.6371     0.5155 N.2     
  25 N25           14.1533     1.5234     0.4332 N.pl3   
  26 C26           13.3864     0.4153     0.3915 C.2     
  27 C27           15.6176     1.5562     0.4032 C.3     
  28 H28            0.5488     5.1178     1.6444 H       
  29 H29            2.3328     6.3514     2.8008 H       
  30 H30            4.5764     5.4066     2.9824 H       
  31 H31            6.1576     3.5287     2.5701 H       
  32 H32            6.4924    -0.2364     0.0222 H       
  33 H33            7.8122    -2.3879     0.3516 H       
  34 H34           10.0727    -3.3505     0.2457 H       
  35 H35           12.0443    -1.8820     0.2849 H       
  36 H36            9.4841     1.5428     0.5316 H       
  37 H37            0.2742     2.1849     1.1270 H       
  38 H38           11.1911     2.8444     0.5732 H       
  39 H39           13.7402    -0.6031     0.3268 H       
  40 H40           16.0032     1.5051     1.4214 H       
  41 H41           15.9884     0.7057    -0.1689 H       
  42 H42           15.9508     2.4822    -0.0654 H       
@<TRIPOS>BOND
   1    1    2 ar
   2    1    6 ar
   3    1   28 1
   4    2    3 ar
   5    2   29 1
   6    3    4 ar
   7    3   30 1
   8    4    5 ar
   9    4    7 1
  10    5    6 ar
  11    5   10 1
  12    6   22 1
  13    7    8 2
  14    7   31 1
  15    8    9 1
  16    8   11 1
  17    9   10 1
  18    9   21 2
  19   11   12 am
  20   11   13 2
  21   12   14 1
  22   12   32 1
  23   14   15 ar
  24   14   19 ar
  25   15   16 ar
  26   15   33 1
  27   16   17 ar
  28   16   34 1
  29   17   18 ar
  30   17   35 1
  31   18   19 ar
  32   18   20 1
  33   19   36 1
  34   20   23 1
  35   20   26 2
  36   22   37 1
  37   23   24 2
  38   23   38 1
  39   24   25 1
  40   25   26 1
  41   25   27 1
  42   26   39 1
  43   27   40 1
  44   27   41 1
  45   27   42 1

#	End of record

