#	Name: ASD01150355
#	Creating user name:	WinNT
#	Creation time:	15. 06. 2019 19:04

#	Modifying user name:	WinNT
#	Modification time:	15. 06. 2019 19:04

#	Program:	/corina/corina34_cracker 3.40 0067  02.08.2006

@<TRIPOS>MOLECULE
ASD01150355
  42   44    0    0    0
SMALL
NO_CHARGES


@<TRIPOS>ATOM
   1 C1             1.8775     1.4503     0.9304 C.ar    
   2 C2             2.1249     0.0961     0.8177 C.ar    
   3 C3             1.4568    -0.6549    -0.1307 C.ar    
   4 C4             0.5341    -0.0496    -0.9744 C.ar    
   5 C5             0.2831     1.3106    -0.8639 C.ar    
   6 C6             0.9552     2.0619     0.0897 C.ar    
   7 N7             0.7047     3.4337     0.2047 N.am    
   8 C8            -0.5688     3.8524     0.2697 C.2     
   9 N9            -0.8697     5.1619     0.3806 N.am    
  10 C10            0.1431     6.0590     0.4264 C.2     
  11 C11            1.5229     5.5397     0.3513 C.2     
  12 N12            1.7029     4.2407     0.2490 N.2     
  13 C13            2.6426     6.4315     0.3937 C.1     
  14 N14            3.5308     7.1389     0.4273 N.1     
  15 O15           -0.0762     7.2515     0.5257 O.2     
  16 C16           -2.2643     5.6051     0.4495 C.3     
  17 O17           -1.4680     3.0355     0.2273 O.2     
  18 N18           -0.1412    -0.8107    -1.9350 N.am    
  19 C19           -0.5059    -2.0779    -1.6562 C.2     
  20 C20           -1.3219    -2.8631    -2.6504 C.3     
  21 O21           -0.1773    -2.5862    -0.6052 O.2     
  22 C22           -2.7081     5.6451     1.8892 C.ar    
  23 C23           -2.5461     6.8008     2.6303 C.ar    
  24 C24           -2.9530     6.8380     3.9506 C.ar    
  25 C25           -3.5224     5.7184     4.5306 C.ar    
  26 C26           -3.6842     4.5621     3.7884 C.ar    
  27 C27           -3.2822     4.5278     2.4665 C.ar    
  28 Cl28          -4.0331     5.7643     6.1892 Cl      
  29 H29            2.3980     2.0336     1.6756 H       
  30 H30            2.8423    -0.3769     1.4719 H       
  31 H31            1.6526    -1.7135    -0.2163 H       
  32 H32           -0.4339     1.7835    -1.5187 H       
  33 H33           -2.3511     6.6009     0.0148 H       
  34 H34           -2.8943     4.9101    -0.1057 H       
  35 H35           -0.3469    -0.4263    -2.8015 H       
  36 H36           -0.6547    -3.3972    -3.3270 H       
  37 H37           -1.9505    -3.5786    -2.1202 H       
  38 H38           -1.9508    -2.1816    -3.2232 H       
  39 H39           -2.1013     7.6746     2.1775 H       
  40 H40           -2.8261     7.7408     4.5296 H       
  41 H41           -4.1287     3.6878     4.2406 H       
  42 H42           -3.4084     3.6253     1.8870 H       
@<TRIPOS>BOND
   1    1    2 ar
   2    1    6 ar
   3    1   29 1
   4    2    3 ar
   5    2   30 1
   6    3    4 ar
   7    3   31 1
   8    4    5 ar
   9    4   18 1
  10    5    6 ar
  11    5   32 1
  12    6    7 1
  13    7    8 am
  14    7   12 1
  15    8    9 am
  16    8   17 2
  17    9   10 am
  18    9   16 1
  19   10   11 1
  20   10   15 2
  21   11   12 2
  22   11   13 1
  23   13   14 3
  24   16   22 1
  25   16   33 1
  26   16   34 1
  27   18   19 am
  28   18   35 1
  29   19   20 1
  30   19   21 2
  31   20   36 1
  32   20   37 1
  33   20   38 1
  34   22   23 ar
  35   22   27 ar
  36   23   24 ar
  37   23   39 1
  38   24   25 ar
  39   24   40 1
  40   25   26 ar
  41   25   28 1
  42   26   27 ar
  43   26   41 1
  44   27   42 1

#	End of record

