#	Name: ASD00960038
#	Creating user name:	WinNT
#	Creation time:	15. 06. 2019 18:53

#	Modifying user name:	WinNT
#	Modification time:	15. 06. 2019 18:53

#	Program:	/corina/corina34_cracker 3.40 0067  02.08.2006

@<TRIPOS>MOLECULE
ASD00960038
  35   37    0    0    0
SMALL
NO_CHARGES


@<TRIPOS>ATOM
   1 C1            -0.0189     1.5409     0.0105 C.3     
   2 C2             0.0021    -0.0041     0.0020 C.3     
   3 C3            -0.6985    -0.3962     1.3218 C.3     
   4 O4            -1.5292     0.7387     1.6500 O.3     
   5 C5            -0.7297     1.8993     1.3344 C.3     
   6 C6            -1.6237     3.1262     1.1437 C.3     
   7 F7             1.2846     2.0488     0.0008 F       
   8 C8            -1.5461    -1.6259     1.1205 C.2     
   9 C9            -1.1021    -2.9093     1.1906 C.2     
  10 N10           -2.8637    -1.6288     0.8486 N.pl3   
  11 C11           -3.2858    -2.9428     0.7333 C.2     
  12 C12           -2.1871    -3.7542     0.9463 C.2     
  13 N13           -3.8103    -0.6093     0.6752 N.2     
  14 C14           -5.0520    -0.9093     0.4126 C.2     
  15 N15           -5.4723    -2.1687     0.2993 N.2     
  16 C16           -4.6462    -3.1919     0.4472 C.2     
  17 O17           -2.2379     3.4662     2.3884 O.3     
  18 N18           -5.1086    -4.4866     0.3240 N.pl3   
  19 C19           -0.7764    -0.5442    -1.1993 C.3     
  20 F20           -2.1667    -5.1049     0.9227 F       
  21 O21            1.3471    -0.4865    -0.0166 O.3     
  22 *22            2.0811    -0.0947    -1.1549 Du      
  23 H23           -0.5818     1.9199    -0.8424 H       
  24 H24            0.0385    -0.5666     2.1065 H       
  25 H25            0.0026     2.0810     2.1211 H       
  26 H26           -1.0207     3.9646     0.7951 H       
  27 H27           -2.3953     2.9025     0.4070 H       
  28 H28           -0.0889    -3.2204     1.3981 H       
  29 H29           -5.7651    -0.1086     0.2827 H       
  30 H30           -2.8202     4.2368     2.3421 H       
  31 H31           -6.0442    -4.6509     0.1278 H       
  32 H32           -4.4979    -5.2322     0.4337 H       
  33 H33           -0.3071    -0.2001    -2.1209 H       
  34 H34           -0.7727    -1.6339    -1.1745 H       
  35 H35           -1.8042    -0.1834    -1.1582 H       
@<TRIPOS>BOND
   1    1    2 1
   2    1    7 1
   3    1    5 1
   4    1   23 1
   5    2   19 1
   6    2   21 1
   7    2    3 1
   8    3    4 1
   9    3    8 1
  10    3   24 1
  11    4    5 1
  12    5    6 1
  13    5   25 1
  14    6   17 1
  15    6   26 1
  16    6   27 1
  17    8    9 2
  18    8   10 1
  19    9   12 1
  20    9   28 1
  21   10   11 1
  22   10   13 1
  23   11   12 2
  24   11   16 1
  25   12   20 1
  26   13   14 2
  27   14   15 1
  28   14   29 1
  29   15   16 2
  30   16   18 1
  31   17   30 1
  32   18   31 1
  33   18   32 1
  34   19   33 1
  35   19   34 1
  36   19   35 1
  37   21   22 1

#	End of record

