#	Name: ASD01913369
#	Creating user name:	WinNT
#	Creation time:	15. 06. 2019 20:01

#	Modifying user name:	WinNT
#	Modification time:	15. 06. 2019 20:01

#	Program:	/corina/corina34_cracker 3.40 0067  02.08.2006

@<TRIPOS>MOLECULE
ASD01913369
  39   41    0    0    0
SMALL
NO_CHARGES


@<TRIPOS>ATOM
   1 C1            -0.0164     1.3609     0.0095 C.2     
   2 C2             0.0021    -0.0041     0.0020 C.2     
   3 C3             1.2382    -0.6977    -0.0130 C.2     
   4 C4             2.3984     0.0062    -0.0203 C.2     
   5 C5             2.3544     1.4153    -0.0128 C.2     
   6 N6             1.1487     2.0686     0.0022 N.pl3   
   7 C7             3.3450     2.3889    -0.0176 C.2     
   8 C8             2.7174     3.6249    -0.0057 C.2     
   9 N9             1.4155     3.4437     0.0061 N.2     
  10 C10           -1.2287    -0.7361     0.0098 C.1     
  11 C11           -2.2377    -1.3362     0.0162 C.1     
  12 C12           -3.4684    -2.0682     0.0240 C.ar    
  13 C13           -3.4543    -3.4655     0.0164 C.ar    
  14 C14           -4.6437    -4.1637     0.0239 C.ar    
  15 C15           -5.8707    -2.1004     0.0524 C.ar    
  16 C16           -4.6894    -1.3887     0.0451 C.ar    
  17 C17           -5.8489    -3.4840     0.0390 C.ar    
  18 C18            3.4151     4.9606    -0.0056 C.3     
  19 C19            3.9694     5.2467    -1.4027 C.3     
  20 C20            2.4197     6.0559     0.3823 C.3     
  21 C21            4.5646     4.9355     1.0038 C.3     
  22 H22           -0.9612     1.8841     0.0168 H       
  23 H23            1.2565    -1.7775    -0.0183 H       
  24 H24            3.3476    -0.5088    -0.0314 H       
  25 H25            4.4108     2.2147    -0.0280 H       
  26 H26           -2.5144    -3.9973     0.0042 H       
  27 H27           -4.6344    -5.2437     0.0177 H       
  28 H28           -6.8150    -1.5766     0.0691 H       
  29 H29           -4.7078    -0.3089     0.0559 H       
  30 H30           -6.7771    -4.0360     0.0448 H       
  31 H31            3.1504     5.2646    -2.1218 H       
  32 H32            4.4740     6.2129    -1.4025 H       
  33 H33            4.6785     4.4664    -1.6790 H       
  34 H34            2.0249     5.8521     1.3777 H       
  35 H35            2.9243     7.0220     0.3825 H       
  36 H36            1.6008     6.0738    -0.3368 H       
  37 H37            5.2738     4.1552     0.7275 H       
  38 H38            5.0693     5.9016     1.0039 H       
  39 H39            4.1698     4.7317     1.9991 H       
@<TRIPOS>BOND
   1    1    2 2
   2    1    6 1
   3    1   22 1
   4    2    3 1
   5    2   10 1
   6    3    4 2
   7    3   23 1
   8    4    5 1
   9    4   24 1
  10    5    6 1
  11    5    7 2
  12    6    9 1
  13    7    8 1
  14    7   25 1
  15    8    9 2
  16    8   18 1
  17   10   11 3
  18   11   12 1
  19   12   13 ar
  20   12   16 ar
  21   13   14 ar
  22   13   26 1
  23   14   17 ar
  24   14   27 1
  25   15   16 ar
  26   15   17 ar
  27   15   28 1
  28   16   29 1
  29   17   30 1
  30   18   19 1
  31   18   20 1
  32   18   21 1
  33   19   31 1
  34   19   32 1
  35   19   33 1
  36   20   34 1
  37   20   35 1
  38   20   36 1
  39   21   37 1
  40   21   38 1
  41   21   39 1

#	End of record

