#	Name: ASD01150237
#	Creating user name:	WinNT
#	Creation time:	15. 06. 2019 19:03

#	Modifying user name:	WinNT
#	Modification time:	15. 06. 2019 19:03

#	Program:	/corina/corina34_cracker 3.40 0067  02.08.2006

@<TRIPOS>MOLECULE
ASD01150237
  63   67    0    0    0
SMALL
NO_CHARGES


@<TRIPOS>ATOM
   1 C1             0.2731     0.8776     0.1753 C.ar    
   2 C2             0.1536    -0.5086     0.3248 C.ar    
   3 C3            -1.0677    -1.1020     0.3929 C.ar    
   4 C4            -2.2345    -0.3209     0.3131 C.ar    
   5 C5            -2.1185     1.0824     0.1618 C.ar    
   6 C6            -0.8512     1.6732     0.0995 C.ar    
   7 N7            -3.4443    -0.8874     0.3778 N.ar    
   8 C8            -4.5447    -0.1779     0.3050 C.ar    
   9 C9            -4.5194     1.2038     0.1559 C.ar    
  10 C10           -3.2999     1.8636     0.0821 C.ar    
  11 N11            1.5402     1.4605     0.1081 N.3     
  12 C12           -3.2348     3.3343    -0.0768 C.ar    
  13 C13           -5.8079     1.9812     0.0760 C.3     
  14 C14           -6.4321     1.7929    -1.3081 C.3     
  15 O15           -6.7130     1.5072     1.0751 O.3     
  16 C16           -5.8753    -0.8809     0.3847 C.3     
  17 C17           -2.6921     4.1244     0.9369 C.ar    
  18 C18           -2.6332     5.4938     0.7839 C.ar    
  19 C19           -3.1125     6.0852    -0.3742 C.ar    
  20 C20           -3.6525     5.3047    -1.3841 C.ar    
  21 C21           -3.7106     3.9340    -1.2431 C.ar    
  22 F22           -3.0534     7.4272    -0.5190 F       
  23 C23            2.5939     0.4431     0.2138 C.3     
  24 C24            3.9598     1.0963    -0.0089 C.3     
  25 C25            4.1740     2.1906     1.0404 C.3     
  26 C26            3.0371     3.2114     0.9412 C.3     
  27 C27            1.6979     2.4969     1.1364 C.3     
  28 C28           -7.6676     2.3727     1.5024 C.ar    
  29 C29           -8.5046     2.0175     2.5533 C.ar    
  30 C30           -9.4747     2.8923     2.9897 C.ar    
  31 C31           -9.6164     4.1391     2.3743 C.ar    
  32 C32           -8.7723     4.4925     1.3180 C.ar    
  33 C33           -7.8014     3.6136     0.8914 C.ar    
  34 C34          -10.6240     5.0516     2.8244 C.1     
  35 N35          -11.4234     5.7756     3.1814 N.1     
  36 H36            1.0445    -1.1159     0.3866 H       
  37 H37           -1.1419    -2.1733     0.5081 H       
  38 H38           -0.7543     2.7426    -0.0157 H       
  39 H39           -5.6049     3.0391     0.2422 H       
  40 H40           -5.7849     2.2404    -2.0625 H       
  41 H41           -6.5471     0.7286    -1.5132 H       
  42 H42           -7.4090     2.2757    -1.3349 H       
  43 H43           -6.1580    -1.0061     1.4299 H       
  44 H44           -6.6317    -0.2863    -0.1276 H       
  45 H45           -5.7986    -1.8588    -0.0905 H       
  46 H46           -2.3190     3.6645     1.8400 H       
  47 H47           -2.2132     6.1063     1.5681 H       
  48 H48           -4.0250     5.7703    -2.2846 H       
  49 H49           -4.1313     3.3266    -2.0308 H       
  50 H50            2.5646    -0.0085     1.2054 H       
  51 H51            2.4322    -0.3269    -0.5406 H       
  52 H52            4.7427     0.3437     0.0850 H       
  53 H53            3.9947     1.5361    -1.0057 H       
  54 H54            4.1780     1.7454     2.0354 H       
  55 H55            5.1269     2.6877     0.8590 H       
  56 H56            3.1608     3.9701     1.7140 H       
  57 H57            3.0575     3.6845    -0.0405 H       
  58 H58            0.8855     3.2187     1.0521 H       
  59 H59            1.6728     2.0358     2.1237 H       
  60 H60           -8.3944     1.0538     3.0284 H       
  61 H61          -10.1252     2.6152     3.8060 H       
  62 H62           -8.8784     5.4549     0.8396 H       
  63 H63           -7.1484     3.8860     0.0754 H       
@<TRIPOS>BOND
   1    1    2 ar
   2    1   11 1
   3    1    6 ar
   4    2    3 ar
   5    2   36 1
   6    3    4 ar
   7    3   37 1
   8    4    5 ar
   9    4    7 ar
  10    5    6 ar
  11    5   10 ar
  12    6   38 1
  13    7    8 ar
  14    8    9 ar
  15    8   16 1
  16    9   10 ar
  17    9   13 1
  18   10   12 1
  19   11   23 1
  20   11   27 1
  21   12   17 ar
  22   12   21 ar
  23   13   14 1
  24   13   15 1
  25   13   39 1
  26   14   40 1
  27   14   41 1
  28   14   42 1
  29   15   28 1
  30   16   43 1
  31   16   44 1
  32   16   45 1
  33   17   18 ar
  34   17   46 1
  35   18   19 ar
  36   18   47 1
  37   19   20 ar
  38   19   22 1
  39   20   21 ar
  40   20   48 1
  41   21   49 1
  42   23   24 1
  43   23   50 1
  44   23   51 1
  45   24   25 1
  46   24   52 1
  47   24   53 1
  48   25   26 1
  49   25   54 1
  50   25   55 1
  51   26   27 1
  52   26   56 1
  53   26   57 1
  54   27   58 1
  55   27   59 1
  56   28   29 ar
  57   28   33 ar
  58   29   30 ar
  59   29   60 1
  60   30   31 ar
  61   30   61 1
  62   31   32 ar
  63   31   34 1
  64   32   33 ar
  65   32   62 1
  66   33   63 1
  67   34   35 3

#	End of record

