#	Name: ASD01884884
#	Creating user name:	WinNT
#	Creation time:	15. 06. 2019 19:49

#	Modifying user name:	WinNT
#	Modification time:	15. 06. 2019 19:49

#	Program:	/corina/corina34_cracker 3.40 0067  02.08.2006

@<TRIPOS>MOLECULE
ASD01884884
  44   49    0    0    0
SMALL
NO_CHARGES


@<TRIPOS>ATOM
   1 C1            -0.0166     1.3722     0.0096 C.ar    
   2 C2             0.0021    -0.0041     0.0020 C.ar    
   3 C3            -1.1944    -0.7312     0.0095 C.ar    
   4 C4            -2.4135    -0.0664     0.0248 C.ar    
   5 C5            -2.4375     1.3281     0.0325 C.ar    
   6 C6            -1.2324     2.0541     0.0307 C.ar    
   7 C7            -3.5121     2.3250     0.0481 C.2     
   8 C8            -2.9276     3.5333     0.0490 C.2     
   9 N9            -1.5650     3.3929     0.0395 N.pl3   
  10 C10           -1.1597    -2.2125     0.0007 C.2     
  11 C11           -0.6285    -2.9051     1.0736 C.2     
  12 C12           -1.6755    -2.9333    -1.1037 C.2     
  13 C13           -1.6436    -4.2790    -1.1096 C.2     
  14 N14           -1.1168    -4.9714    -0.0571 N.pl3   
  15 C15           -0.6102    -4.3108     1.0358 C.2     
  16 Cl16           0.0067    -2.0521     2.4458 Cl      
  17 C17           -0.9567    -6.2981     0.2037 C.2     
  18 N18           -0.3868    -6.4033     1.3764 N.2     
  19 N19           -0.1779    -5.2369     1.8777 N.2     
  20 C20           -0.6468     4.4505     0.0380 C.ar    
  21 C21            0.4014     4.4746     0.9482 C.ar    
  22 N22            1.2673     5.4685     0.9502 N.ar    
  23 C23            1.1768     6.4705     0.0979 C.ar    
  24 C24            0.1605     6.5171    -0.8386 C.ar    
  25 C25           -0.7684     5.4906    -0.8803 C.ar    
  26 C26           -1.3623    -7.4378    -0.6950 C.3     
  27 C27           -0.2620    -8.3888    -1.1703 C.3     
  28 C28           -1.2754    -8.8541    -0.1228 C.3     
  29 F29            1.1445     2.0630     0.0022 F       
  30 H30            0.9469    -0.5271    -0.0102 H       
  31 H31           -3.3374    -0.6258     0.0302 H       
  32 H32           -4.5734     2.1251     0.0569 H       
  33 H33           -3.4536     4.4765     0.0591 H       
  34 H34           -2.0964    -2.4014    -1.9441 H       
  35 H35           -2.0399    -4.8179    -1.9575 H       
  36 H36            0.5081     3.6712     1.6620 H       
  37 H37            1.9065     7.2660     0.1319 H       
  38 H38            0.0942     7.3423    -1.5321 H       
  39 H39           -1.5726     5.5011    -1.6011 H       
  40 H40           -2.1762    -7.2236    -1.3877 H       
  41 H41           -0.3522    -8.8004    -2.1755 H       
  42 H42            0.7553    -8.1900    -0.8330 H       
  43 H43           -0.9248    -8.9615     0.9037 H       
  44 H44           -2.0323    -9.5720    -0.4388 H       
@<TRIPOS>BOND
   1    1    2 ar
   2    1   29 1
   3    1    6 ar
   4    2    3 ar
   5    2   30 1
   6    3    4 ar
   7    3   10 1
   8    4    5 ar
   9    4   31 1
  10    5    6 ar
  11    5    7 1
  12    6    9 1
  13    7    8 2
  14    7   32 1
  15    8    9 1
  16    8   33 1
  17    9   20 1
  18   10   11 2
  19   10   12 1
  20   11   16 1
  21   11   15 1
  22   12   13 2
  23   12   34 1
  24   13   14 1
  25   13   35 1
  26   14   15 1
  27   14   17 1
  28   15   19 2
  29   17   18 2
  30   17   26 1
  31   18   19 1
  32   20   21 ar
  33   20   25 ar
  34   21   22 ar
  35   21   36 1
  36   22   23 ar
  37   23   24 ar
  38   23   37 1
  39   24   25 ar
  40   24   38 1
  41   25   39 1
  42   26   27 1
  43   26   28 1
  44   26   40 1
  45   27   28 1
  46   27   41 1
  47   27   42 1
  48   28   43 1
  49   28   44 1

#	End of record

