#	Name: ASD07300829
#	Creating user name:	WinNT
#	Creation time:	15. 06. 2019 21:10

#	Modifying user name:	WinNT
#	Modification time:	15. 06. 2019 21:10

#	Program:	/corina/corina34_cracker 3.40 0067  02.08.2006

@<TRIPOS>MOLECULE
ASD07300829
  42   45    0    0    0
SMALL
NO_CHARGES


@<TRIPOS>ATOM
   1 C1            -0.0172     1.4140     0.0098 C.2     
   2 C2             0.0021    -0.0041     0.0020 C.2     
   3 N3             1.1796     2.0888     0.0020 N.pl3   
   4 N4             1.1598    -0.6390    -0.0124 N.2     
   5 C5             2.3138     0.0265    -0.0199 C.2     
   6 C6             2.3467     1.3784    -0.0136 C.2     
   7 N7            -0.9946     2.3042     0.0292 N.2     
   8 C8            -0.4779     3.5304     0.0288 C.2     
   9 C9             0.8861     3.4254     0.0128 C.2     
  10 C10            2.9698     4.5125     0.8492 C.ar    
  11 C11            1.8561     4.5409     0.0102 C.ar    
  12 C12            1.6708     5.6424    -0.8355 C.ar    
  13 C13            2.6049     6.6598    -0.8020 C.ar    
  14 C14            3.6888     6.5588     0.0619 C.ar    
  15 N15            3.8362     5.5053     0.8486 N.ar    
  16 O16            4.6094     7.5551     0.0990 O.3     
  17 C17            5.7017     7.3956     1.0065 C.3     
  18 C18            6.6280     8.6093     0.9079 C.3     
  19 F19            5.9152     9.7678     1.2350 F       
  20 F20            7.6973     8.4532     1.7964 F       
  21 F21            7.1186     8.7167    -0.3979 F       
  22 C22           -2.4705    -2.8374     0.0118 C.ar    
  23 C23           -1.2650    -2.1662     0.0030 C.ar    
  24 C24           -1.2674    -0.7674     0.0105 C.ar    
  25 C25           -2.5017    -0.1094     0.0268 C.ar    
  26 C26           -3.6597    -0.8596     0.0347 C.ar    
  27 N27           -3.6129    -2.1779     0.0271 N.ar    
  28 C28           -1.2623     4.8170     0.0470 C.3     
  29 H29            3.2423    -0.5250    -0.0317 H       
  30 H30            3.2946     1.8961    -0.0199 H       
  31 H31            3.1212     3.6709     1.5089 H       
  32 H32            0.8190     5.6948    -1.4974 H       
  33 H33            2.4941     7.5239    -1.4403 H       
  34 H34            5.3195     7.3119     2.0239 H       
  35 H35            6.2570     6.4930     0.7517 H       
  36 H36           -2.4790    -3.9173     0.0016 H       
  37 H37           -0.3335    -2.7127    -0.0091 H       
  38 H38           -2.5475     0.9696     0.0334 H       
  39 H39           -4.6175    -0.3607     0.0473 H       
  40 H40           -1.4367     5.1217     1.0789 H       
  41 H41           -0.6990     5.5933    -0.4709 H       
  42 H42           -2.2186     4.6666    -0.4540 H       
@<TRIPOS>BOND
   1    1    2 1
   2    1    3 1
   3    1    7 2
   4    2    4 2
   5    2   24 1
   6    3    6 1
   7    3    9 1
   8    4    5 1
   9    5    6 2
  10    5   29 1
  11    6   30 1
  12    7    8 1
  13    8    9 2
  14    8   28 1
  15    9   11 1
  16   10   11 ar
  17   10   15 ar
  18   10   31 1
  19   11   12 ar
  20   12   13 ar
  21   12   32 1
  22   13   14 ar
  23   13   33 1
  24   14   15 ar
  25   14   16 1
  26   16   17 1
  27   17   18 1
  28   17   34 1
  29   17   35 1
  30   18   19 1
  31   18   20 1
  32   18   21 1
  33   22   23 ar
  34   22   27 ar
  35   22   36 1
  36   23   24 ar
  37   23   37 1
  38   24   25 ar
  39   25   26 ar
  40   25   38 1
  41   26   27 ar
  42   26   39 1
  43   28   40 1
  44   28   41 1
  45   28   42 1

#	End of record

