#	Name: ASD01883509
#	Creating user name:	WinNT
#	Creation time:	15. 06. 2019 19:46

#	Modifying user name:	WinNT
#	Modification time:	15. 06. 2019 19:46

#	Program:	/corina/corina34_cracker 3.40 0067  02.08.2006

@<TRIPOS>MOLECULE
ASD01883509
  56   59    0    0    0
SMALL
NO_CHARGES


@<TRIPOS>ATOM
   1 N1            -0.0162     1.3417     0.0094 N.am    
   2 C2             0.0021    -0.0041     0.0020 C.2     
   3 C3            -1.2167    -0.7275     0.0102 C.2     
   4 C4            -2.4257    -0.0118     0.0261 C.2     
   5 C5            -2.3786     1.3953     0.0332 C.2     
   6 C6            -1.1848     2.0318     0.0299 C.2     
   7 O7             1.0656    -0.6000    -0.0121 O.2     
   8 C8            -1.2158    -2.1595     0.0021 C.1     
   9 N9            -1.2152    -3.2954    -0.0044 N.1     
  10 C10            1.2511     2.0766     0.0013 C.3     
  11 C11            1.6785     2.3402    -1.4440 C.3     
  12 C12            3.0021     3.1077    -1.4525 C.3     
  13 C13            4.1048     2.2294    -0.8581 C.3     
  14 C14            3.3665     3.4801    -2.8911 C.3     
  15 C15           -3.7230    -0.7231     0.0347 C.ar    
  16 C16           -4.0793    -1.5129     1.1290 C.ar    
  17 C17           -5.2897    -2.1764     1.1297 C.ar    
  18 C18           -6.1471    -2.0613     0.0537 C.ar    
  19 C19           -5.8098    -1.2733    -1.0424 C.ar    
  20 C20           -4.5923    -0.6004    -1.0469 C.ar    
  21 C21           -7.5066    -2.6764    -0.2151 C.3     
  22 C22           -7.6850    -2.4662    -1.7361 C.3     
  23 N23           -6.8295    -1.2895    -2.0029 N.3     
  24 C24           -6.2726    -1.3407    -3.3613 C.3     
  25 C25           -5.2536    -2.4478    -3.4451 C.ar    
  26 C26           -5.6296    -3.7325    -3.8067 C.ar    
  27 C27           -4.6672    -4.7222    -3.8733 C.ar    
  28 N28           -3.4055    -4.4558    -3.5975 N.ar    
  29 C29           -3.0120    -3.2460    -3.2503 C.ar    
  30 C30           -3.9170    -2.2047    -3.1680 C.ar    
  31 H31           -3.2952     1.9664     0.0453 H       
  32 H32           -1.1613     3.1116     0.0358 H       
  33 H33            1.1239     3.0260     0.5214 H       
  34 H34            2.0167     1.4863     0.5046 H       
  35 H35            1.8057     1.3908    -1.9642 H       
  36 H36            0.9129     2.9306    -1.9474 H       
  37 H37            2.8998     4.0151    -0.8572 H       
  38 H38            3.8452     1.9641     0.1668 H       
  39 H39            4.2071     1.3221    -1.4534 H       
  40 H40            5.0477     2.7762    -0.8642 H       
  41 H41            2.5808     4.1058    -3.3145 H       
  42 H42            4.3094     4.0268    -2.8971 H       
  43 H43            3.4688     2.5727    -3.4864 H       
  44 H44           -3.4102    -1.6049     1.9718 H       
  45 H45           -5.5671    -2.7883     1.9752 H       
  46 H46           -4.3169     0.0107    -1.8937 H       
  47 H47           -7.5049    -3.7385     0.0301 H       
  48 H48           -8.2841    -2.1522     0.3407 H       
  49 H49           -7.3309    -3.3353    -2.2907 H       
  50 H50           -8.7258    -2.2501    -1.9772 H       
  51 H51           -7.0739    -1.5295    -4.0756 H       
  52 H52           -5.7950    -0.3890    -3.5942 H       
  53 H53           -6.6614    -3.9570    -4.0330 H       
  54 H54           -4.9519    -5.7254    -4.1542 H       
  55 H55           -1.9699    -3.0660    -3.0313 H       
  56 H56           -3.5886    -1.2160    -2.8833 H       
@<TRIPOS>BOND
   1    1    2 am
   2    1   10 1
   3    1    6 1
   4    2    3 1
   5    2    7 2
   6    3    4 2
   7    3    8 1
   8    4    5 1
   9    4   15 1
  10    5    6 2
  11    5   31 1
  12    6   32 1
  13    8    9 3
  14   10   11 1
  15   10   33 1
  16   10   34 1
  17   11   12 1
  18   11   35 1
  19   11   36 1
  20   12   13 1
  21   12   14 1
  22   12   37 1
  23   13   38 1
  24   13   39 1
  25   13   40 1
  26   14   41 1
  27   14   42 1
  28   14   43 1
  29   15   16 ar
  30   15   20 ar
  31   16   17 ar
  32   16   44 1
  33   17   18 ar
  34   17   45 1
  35   18   19 ar
  36   18   21 1
  37   19   20 ar
  38   19   23 1
  39   20   46 1
  40   21   22 1
  41   21   47 1
  42   21   48 1
  43   22   23 1
  44   22   49 1
  45   22   50 1
  46   23   24 1
  47   24   25 1
  48   24   51 1
  49   24   52 1
  50   25   26 ar
  51   25   30 ar
  52   26   27 ar
  53   26   53 1
  54   27   28 ar
  55   27   54 1
  56   28   29 ar
  57   29   30 ar
  58   29   55 1
  59   30   56 1

#	End of record

