#	Name: ASD04882609
#	Creating user name:	WinNT
#	Creation time:	15. 06. 2019 20:55

#	Modifying user name:	WinNT
#	Modification time:	15. 06. 2019 20:55

#	Program:	/corina/corina34_cracker 3.40 0067  02.08.2006

@<TRIPOS>MOLECULE
ASD04882609
  75   80    0    0    0
SMALL
NO_CHARGES


@<TRIPOS>ATOM
   1 C1            -0.0215     1.4013    -0.0093 C.ar    
   2 C2            -0.0116     0.0036    -0.0051 C.ar    
   3 C3            -1.2094    -0.7019    -0.0164 C.ar    
   4 C4            -2.4097    -0.0268    -0.0317 C.ar    
   5 C5            -2.4268     1.3708    -0.0363 C.ar    
   6 C6            -1.2240     2.0826    -0.0188 C.ar    
   7 N7             1.1997    -0.6831     0.0098 N.3     
   8 C8             1.3068    -1.5361     1.2016 C.3     
   9 C9             1.3723    -1.4733    -1.2172 C.3     
  10 C10            2.7462    -2.1475    -1.1975 C.3     
  11 N11            2.8533    -3.0006    -0.0057 N.3     
  12 C12            2.6807    -2.2104     1.2213 C.3     
  13 C13           -3.7127     2.0937    -0.0531 C.2     
  14 O14           -3.7266     3.3096    -0.0572 O.2     
  15 N15           -4.8720     1.4065    -0.0640 N.am    
  16 N16            1.1864     2.1110     0.0021 N.am    
  17 C17            4.0559    -3.6824     0.0092 C.2     
  18 O18            4.4730    -4.5446     0.9546 O.3     
  19 C19            1.2294     3.3599     0.5068 C.2     
  20 C20            2.5098     4.0698     0.5995 C.2     
  21 C21            3.7311     3.5988     0.2174 C.2     
  22 N22            4.6277     4.5576     0.4707 N.2     
  23 C23            4.0138     5.5881     0.9875 C.2     
  24 O24            2.7069     5.3214     1.0755 O.3     
  25 O25            0.2060     3.8988     0.8855 O.2     
  26 C26            4.6731     6.8751     1.4119 C.3     
  27 C27            5.7520     6.7929     2.4936 C.3     
  28 C28            6.1445     7.0708     1.0411 C.3     
  29 C29           -6.1490     2.1244    -0.0807 C.3     
  30 C30           -7.3004     1.1169    -0.0905 C.3     
  31 C31           -8.6340     1.8666    -0.1079 C.3     
  32 N32           -9.7364     0.9019    -0.1173 N.am    
  33 C33          -10.3200     0.4063     0.9876 C.2     
  34 C34          -11.4126    -0.5682     0.6064 C.3     
  35 C35          -11.1236    -0.9011    -0.8757 C.3     
  36 C36          -10.3498     0.3571    -1.3342 C.3     
  37 O37          -10.0148     0.6978     2.1246 O.2     
  38 C38            5.6922    -4.9689     0.5686 C.2     
  39 N39            5.9755    -4.3790    -0.5555 N.2     
  40 N40            4.9997    -3.6136    -0.8978 N.2     
  41 C41            6.5687    -5.9485     1.3056 C.3     
  42 H42           -1.1986    -1.7818    -0.0136 H       
  43 H43           -3.3385    -0.5777    -0.0404 H       
  44 H44           -1.2341     3.1625    -0.0223 H       
  45 H45            1.1882    -0.9263     2.0972 H       
  46 H46            0.5281    -2.2983     1.1745 H       
  47 H47            0.5943    -2.2347    -1.2718 H       
  48 H48            1.3015    -0.8175    -2.0850 H       
  49 H49            2.8648    -2.7574    -2.0931 H       
  50 H50            3.5250    -1.3854    -1.1704 H       
  51 H51            3.4587    -1.4489     1.2759 H       
  52 H52            2.7516    -2.8661     2.0891 H       
  53 H53           -4.8609     0.4366    -0.0608 H       
  54 H54            1.9917     1.7034    -0.3533 H       
  55 H55            3.9364     2.6290    -0.2113 H       
  56 H56            4.0311     7.7560     1.4073 H       
  57 H57            5.8201     7.6199     3.2003 H       
  58 H58            5.9850     5.8080     2.8982 H       
  59 H59            6.6357     6.2687     0.4902 H       
  60 H60            6.4708     8.0807     0.7923 H       
  61 H61           -6.2239     2.7532     0.8065 H       
  62 H62           -6.2038     2.7475    -0.9734 H       
  63 H63           -7.2254     0.4881    -0.9777 H       
  64 H64           -7.2455     0.4938     0.8022 H       
  65 H65           -8.7089     2.4954     0.7793 H       
  66 H66           -8.6888     2.4897    -1.0006 H       
  67 H67          -11.3516    -1.4681     1.2184 H       
  68 H68          -12.3924    -0.1018     0.7086 H       
  69 H69          -10.5071    -1.7959    -0.9615 H       
  70 H70          -12.0505    -1.0123    -1.4384 H       
  71 H71          -11.0347     1.0812    -1.7754 H       
  72 H72           -9.5758     0.0834    -2.0512 H       
  73 H73            6.3467    -6.9606     0.9673 H       
  74 H74            7.6158    -5.7203     1.1065 H       
  75 H75            6.3776    -5.8730     2.3760 H       
@<TRIPOS>BOND
   1    1    2 ar
   2    1   16 1
   3    1    6 ar
   4    2    3 ar
   5    2    7 1
   6    3    4 ar
   7    3   42 1
   8    4    5 ar
   9    4   43 1
  10    5    6 ar
  11    5   13 1
  12    6   44 1
  13    7    8 1
  14    7    9 1
  15    8   12 1
  16    8   45 1
  17    8   46 1
  18    9   10 1
  19    9   47 1
  20    9   48 1
  21   10   11 1
  22   10   49 1
  23   10   50 1
  24   11   12 1
  25   11   17 1
  26   12   51 1
  27   12   52 1
  28   13   14 2
  29   13   15 am
  30   15   29 1
  31   15   53 1
  32   16   19 am
  33   16   54 1
  34   17   18 1
  35   17   40 2
  36   18   38 1
  37   19   20 1
  38   19   25 2
  39   20   21 2
  40   20   24 1
  41   21   22 1
  42   21   55 1
  43   22   23 2
  44   23   24 1
  45   23   26 1
  46   26   27 1
  47   26   28 1
  48   26   56 1
  49   27   28 1
  50   27   57 1
  51   27   58 1
  52   28   59 1
  53   28   60 1
  54   29   30 1
  55   29   61 1
  56   29   62 1
  57   30   31 1
  58   30   63 1
  59   30   64 1
  60   31   32 1
  61   31   65 1
  62   31   66 1
  63   32   33 am
  64   32   36 1
  65   33   34 1
  66   33   37 2
  67   34   35 1
  68   34   67 1
  69   34   68 1
  70   35   36 1
  71   35   69 1
  72   35   70 1
  73   36   71 1
  74   36   72 1
  75   38   39 2
  76   38   41 1
  77   39   40 1
  78   41   73 1
  79   41   74 1
  80   41   75 1

#	End of record

