#	Name: ASD01148267
#	Creating user name:	WinNT
#	Creation time:	15. 06. 2019 19:02

#	Modifying user name:	WinNT
#	Modification time:	15. 06. 2019 19:02

#	Program:	/corina/corina34_cracker 3.40 0067  02.08.2006

@<TRIPOS>MOLECULE
ASD01148267
  58   61    0    0    0
SMALL
NO_CHARGES


@<TRIPOS>ATOM
   1 C1            -0.1542     2.6558    -0.6691 C.ar    
   2 C2             0.3295     1.3607    -0.7428 C.ar    
   3 C3            -0.5276     0.2913    -0.5540 C.ar    
   4 C4            -1.8658     0.5161    -0.2921 C.ar    
   5 C5            -2.3489     1.8095    -0.2186 C.ar    
   6 C6            -1.4931     2.8791    -0.4017 C.ar    
   7 C7            -3.8085     2.0531     0.0666 C.3     
   8 O8            -4.3503     1.0150     0.9082 O.3     
   9 C9            -3.9979     3.3077     0.9524 C.3     
  10 C10           -4.0414     2.7207     2.3504 C.2     
  11 N11           -4.2353     1.4484     2.2491 N.2     
  12 C12           -3.8883     3.4746     3.6101 C.ar    
  13 C13           -3.9494     2.8067     4.8359 C.ar    
  14 C14           -3.6765     4.8553     3.5766 C.ar    
  15 C15           -3.5333     5.5583     4.7512 C.ar    
  16 C16           -3.5997     4.8912     5.9772 C.ar    
  17 C17           -3.8062     3.5097     6.0106 C.ar    
  18 C18           -3.4461     5.6457     7.2378 C.2     
  19 O19           -2.4418     6.3007     7.4353 O.2     
  20 N20           -4.4197     5.6075     8.1690 N.am    
  21 C21           -4.6048     2.1749    -1.2341 C.3     
  22 F22           -4.4682     0.9970    -1.9765 F       
  23 F23           -5.9556     2.3843    -0.9361 F       
  24 F24           -4.1188     3.2547    -1.9791 F       
  25 Cl25           2.0105     1.0789    -1.0724 Cl      
  26 Cl26           0.9201     3.9989    -0.9051 Cl      
  27 C27           -4.2112     6.2414     9.4732 C.3     
  28 C28           -4.6716     7.6751     9.4141 C.ar    
  29 N29           -3.8502     8.6055     8.9688 N.ar    
  30 C30           -5.5851     4.9861     7.9003 C.2     
  31 C31           -4.2096     9.8725     8.8994 C.ar    
  32 C32           -5.4718    10.2719     9.2955 C.ar    
  33 C33           -6.3635     9.3216     9.7695 C.ar    
  34 C34           -5.9520     7.9989     9.8222 C.ar    
  35 O35           -5.8006     4.5551     6.7853 O.2     
  36 O36           -6.5102     4.8432     8.8675 O.3     
  37 C37           -7.7416     4.1638     8.5067 C.3     
  38 C38           -0.0021    -1.1188    -0.6345 C.3     
  39 F39           -1.0486    -2.0200    -0.4110 F       
  40 F40            0.5423    -1.3419    -1.9038 F       
  41 F41            0.9879    -1.3037     0.3365 F       
  42 H42           -2.5347    -0.3190    -0.1452 H       
  43 H43           -1.8711     3.8892    -0.3440 H       
  44 H44           -3.1534     3.9884     0.8447 H       
  45 H45           -4.9350     3.8112     0.7148 H       
  46 H46           -4.1094     1.7389     4.8617 H       
  47 H47           -3.6248     5.3709     2.6290 H       
  48 H48           -3.3692     6.6255     4.7253 H       
  49 H49           -3.8575     2.9940     6.9581 H       
  50 H50           -4.7827     5.7073    10.2323 H       
  51 H51           -3.1517     6.2102     9.7271 H       
  52 H52           -3.5092    10.6065     8.5291 H       
  53 H53           -5.7600    11.3111     9.2369 H       
  54 H54           -7.3565     9.6047    10.0864 H       
  55 H55           -6.6204     7.2323    10.1854 H       
  56 H56           -8.3984     4.1163     9.3753 H       
  57 H57           -8.2377     4.7118     7.7056 H       
  58 H58           -7.5133     3.1531     8.1682 H       
@<TRIPOS>BOND
   1    1    2 ar
   2    1   26 1
   3    1    6 ar
   4    2    3 ar
   5    2   25 1
   6    3    4 ar
   7    3   38 1
   8    4    5 ar
   9    4   42 1
  10    5    6 ar
  11    5    7 1
  12    6   43 1
  13    7    8 1
  14    7    9 1
  15    7   21 1
  16    8   11 1
  17    9   10 1
  18    9   44 1
  19    9   45 1
  20   10   11 2
  21   10   12 1
  22   12   13 ar
  23   12   14 ar
  24   13   17 ar
  25   13   46 1
  26   14   15 ar
  27   14   47 1
  28   15   16 ar
  29   15   48 1
  30   16   17 ar
  31   16   18 1
  32   17   49 1
  33   18   19 2
  34   18   20 am
  35   20   27 1
  36   20   30 am
  37   21   22 1
  38   21   23 1
  39   21   24 1
  40   27   28 1
  41   27   50 1
  42   27   51 1
  43   28   29 ar
  44   28   34 ar
  45   29   31 ar
  46   30   35 2
  47   30   36 1
  48   31   32 ar
  49   31   52 1
  50   32   33 ar
  51   32   53 1
  52   33   34 ar
  53   33   54 1
  54   34   55 1
  55   36   37 1
  56   37   56 1
  57   37   57 1
  58   37   58 1
  59   38   39 1
  60   38   40 1
  61   38   41 1

#	End of record

