#	Name: ASD05430451
#	Creating user name:	WinNT
#	Creation time:	15. 06. 2019 21:00

#	Modifying user name:	WinNT
#	Modification time:	15. 06. 2019 21:00

#	Program:	/corina/corina34_cracker 3.40 0067  02.08.2006

@<TRIPOS>MOLECULE
ASD05430451
  62   66    0    0    0
SMALL
NO_CHARGES


@<TRIPOS>ATOM
   1 C1            -0.4181     1.7593     1.6858 C.ar    
   2 C2            -0.1445     0.5332     1.0799 C.ar    
   3 C3            -1.0917    -0.0667     0.2596 C.ar    
   4 C4            -2.3056     0.5466     0.0405 C.ar    
   5 C5            -2.5870     1.7765     0.6448 C.ar    
   6 C6            -1.6358     2.3776     1.4752 C.ar    
   7 C7            -5.0054     1.6946     0.3200 C.2     
   8 C8            -3.8832     2.4333     0.4121 C.2     
   9 O9             0.5112     2.3435     2.4880 O.3     
  10 C10            1.2837    -1.3984     1.6756 C.2     
  11 N11            1.0885    -0.0947     1.2988 N.pl3   
  12 C12            2.6143    -1.5818     1.7709 C.2     
  13 N13            3.2197    -0.4254     1.4620 N.2     
  14 C14            2.3166     0.4730     1.1774 C.2     
  15 C15            3.3041    -2.8646     2.1578 C.3     
  16 C16           -7.3899     0.6588     1.2771 C.2     
  17 N17           -7.4476     1.7415     0.4922 N.am    
  18 C18           -6.1194    -0.0517     1.6523 C.3     
  19 C19           -6.3027     2.2793    -0.0838 C.2     
  20 C20           -5.0204     0.2054     0.6179 C.3     
  21 C21            0.1638     3.5988     3.0757 C.3     
  22 O22           -8.4329     0.2220     1.7152 O.2     
  23 C23           -8.7406     2.3970     0.2419 C.3     
  24 C24           -8.7521     2.8775    -1.2158 C.3     
  25 C25           -7.5845     3.8504    -1.4125 C.3     
  26 N26           -6.3417     3.2445    -0.9440 N.2     
  27 C27           -9.8616     1.4146     0.4637 C.ar    
  28 C28          -10.6849     1.5436     1.5667 C.ar    
  29 C29          -10.0693     0.3884    -0.4391 C.ar    
  30 C30          -11.0976    -0.5126    -0.2372 C.ar    
  31 C31          -11.9196    -0.3875     0.8699 C.ar    
  32 C32          -11.7135     0.6435     1.7708 C.ar    
  33 F33          -12.9251    -1.2678     1.0683 F       
  34 C34           -8.9053     3.5926     1.1823 C.3     
  35 O35          -10.1628     4.2243     0.9338 O.3     
  36 H36           -0.8756    -1.0160    -0.2079 H       
  37 H37           -3.0399     0.0781    -0.5980 H       
  38 H38           -1.8491     3.3269     1.9440 H       
  39 H39           -3.9345     3.5077     0.3150 H       
  40 H40            0.5172    -2.1355     1.8642 H       
  41 H41            2.5129     1.4961     0.8925 H       
  42 H42            3.5025    -3.4546     1.2630 H       
  43 H43            4.2452    -2.6347     2.6574 H       
  44 H44            2.6636    -3.4323     2.8327 H       
  45 H45           -5.7819     0.3085     2.6242 H       
  46 H46           -6.3139    -1.1222     1.7165 H       
  47 H47           -5.2341    -0.3516    -0.2943 H       
  48 H48           -4.0549    -0.1005     1.0208 H       
  49 H49           -0.0410     4.3243     2.2884 H       
  50 H50           -0.7236     3.4762     3.6966 H       
  51 H51            0.9911     3.9536     3.6903 H       
  52 H52           -8.6355     2.0247    -1.8845 H       
  53 H53           -9.6933     3.3849    -1.4277 H       
  54 H54           -7.4936     4.0971    -2.4703 H       
  55 H55           -7.7735     4.7617    -0.8452 H       
  56 H56          -10.5240     2.3479     2.2692 H       
  57 H57           -9.4280     0.2910    -1.3026 H       
  58 H58          -11.2601    -1.3138    -0.9429 H       
  59 H59          -12.3539     0.7419     2.6349 H       
  60 H60           -8.8692     3.2493     2.2162 H       
  61 H61           -8.0997     4.3058     1.0079 H       
  62 H62          -10.3350     4.9923     1.4956 H       
@<TRIPOS>BOND
   1    1    2 ar
   2    1    9 1
   3    1    6 ar
   4    2    3 ar
   5    2   11 1
   6    3    4 ar
   7    3   36 1
   8    4    5 ar
   9    4   37 1
  10    5    6 ar
  11    5    8 1
  12    6   38 1
  13    7    8 2
  14    7   19 1
  15    7   20 1
  16    8   39 1
  17    9   21 1
  18   10   11 1
  19   10   12 2
  20   10   40 1
  21   11   14 1
  22   12   13 1
  23   12   15 1
  24   13   14 2
  25   14   41 1
  26   15   42 1
  27   15   43 1
  28   15   44 1
  29   16   17 am
  30   16   18 1
  31   16   22 2
  32   17   23 1
  33   17   19 1
  34   18   20 1
  35   18   45 1
  36   18   46 1
  37   19   26 2
  38   20   47 1
  39   20   48 1
  40   21   49 1
  41   21   50 1
  42   21   51 1
  43   23   24 1
  44   23   27 1
  45   23   34 1
  46   24   25 1
  47   24   52 1
  48   24   53 1
  49   25   26 1
  50   25   54 1
  51   25   55 1
  52   27   28 ar
  53   27   29 ar
  54   28   32 ar
  55   28   56 1
  56   29   30 ar
  57   29   57 1
  58   30   31 ar
  59   30   58 1
  60   31   32 ar
  61   31   33 1
  62   32   59 1
  63   34   35 1
  64   34   60 1
  65   34   61 1
  66   35   62 1

#	End of record

