#	Name: ASD03331775
#	Creating user name:	WinNT
#	Creation time:	15. 06. 2019 20:39

#	Modifying user name:	WinNT
#	Modification time:	15. 06. 2019 20:39

#	Program:	/corina/corina34_cracker 3.40 0067  02.08.2006

@<TRIPOS>MOLECULE
ASD03331775
  57   59    0    0    0
SMALL
NO_CHARGES


@<TRIPOS>ATOM
   1 C1            -0.6040     0.9472     0.4494 C.3     
   2 N2            -0.6776    -0.5097     0.2716 N.3     
   3 C3            -0.0886    -0.9201    -1.0160 C.3     
   4 C4             1.2688    -0.2763    -1.1326 C.2     
   5 N5             1.6836     0.7606    -0.3480 N.pl3   
   6 C6             0.8508     1.3689     0.6932 C.3     
   7 C7             2.2867    -0.5706    -1.9785 C.2     
   8 N8             3.3058     0.2768    -1.7060 N.2     
   9 C9             2.9493     1.0781    -0.7267 C.2     
  10 C10            3.7850     2.1461    -0.1369 C.ar    
  11 C11            4.4697     3.0392    -0.9652 C.ar    
  12 C12            2.2839    -1.6242    -3.0087 C.2     
  13 O13            1.3020    -2.3261    -3.1579 O.2     
  14 N14            3.3695    -1.8100    -3.7854 N.am    
  15 C15           -2.0621    -0.9856     0.3927 C.3     
  16 C16            3.3667    -2.8575    -4.8096 C.3     
  17 C17            2.7248    -2.3179    -6.0893 C.3     
  18 C18            3.4792    -1.0693    -6.5510 C.3     
  19 C19            2.7901    -3.3864    -7.1824 C.3     
  20 C20            1.2634    -1.9582    -5.8143 C.3     
  21 C21            4.7838    -3.2813    -5.0986 C.2     
  22 N22            5.0242    -4.4616    -5.7030 N.am    
  23 O23            5.7078    -2.5601    -4.7871 O.2     
  24 C24            6.4026    -4.9201    -5.8928 C.3     
  25 C25            5.2487     4.0353    -0.4067 C.ar    
  26 C26            5.3505     4.1475     0.9688 C.ar    
  27 C27            4.6735     3.2644     1.7938 C.ar    
  28 C28            3.8886     2.2698     1.2492 C.ar    
  29 Cl29           6.3315     5.4001     1.6634 Cl      
  30 F30            4.3711     2.9292    -2.3081 F       
  31 H31           -0.9789     1.4410    -0.4471 H       
  32 H32           -1.2139     1.2390     1.3044 H       
  33 H33            0.0142    -2.0048    -1.0452 H       
  34 H34           -0.7259    -0.5875    -1.8354 H       
  35 H35            0.9326     2.4546     0.6421 H       
  36 H36            1.1753     1.0208     1.6738 H       
  37 H37            4.1526    -1.2502    -3.6664 H       
  38 H38           -2.6918    -0.4573    -0.3231 H       
  39 H39           -2.0977    -2.0556     0.1876 H       
  40 H40           -2.4239    -0.7971     1.4035 H       
  41 H41            2.7971    -3.7148    -4.4510 H       
  42 H42            4.5203    -1.3256    -6.7469 H       
  43 H43            3.0218    -0.6849    -7.4626 H       
  44 H44            3.4327    -0.3081    -5.7722 H       
  45 H45            2.2490    -4.2743    -6.8553 H       
  46 H46            2.3367    -3.0004    -8.0954 H       
  47 H47            3.8311    -3.6458    -7.3753 H       
  48 H48            1.2169    -1.1969    -5.0356 H       
  49 H49            0.8061    -1.5737    -6.7260 H       
  50 H50            0.7260    -2.8476    -5.4855 H       
  51 H51            4.2846    -5.0076    -6.0124 H       
  52 H52            6.3979    -5.8874    -6.3952 H       
  53 H53            6.9454    -4.1970    -6.5017 H       
  54 H54            6.8901    -5.0169    -4.9227 H       
  55 H55            5.7788     4.7267    -1.0449 H       
  56 H56            4.7577     3.3573     2.8665 H       
  57 H57            3.3614     1.5826     1.8944 H       
@<TRIPOS>BOND
   1    1    2 1
   2    1    6 1
   3    1   31 1
   4    1   32 1
   5    2    3 1
   6    2   15 1
   7    3    4 1
   8    3   33 1
   9    3   34 1
  10    4    5 1
  11    4    7 2
  12    5    6 1
  13    5    9 1
  14    6   35 1
  15    6   36 1
  16    7    8 1
  17    7   12 1
  18    8    9 2
  19    9   10 1
  20   10   11 ar
  21   10   28 ar
  22   11   25 ar
  23   11   30 1
  24   12   13 2
  25   12   14 am
  26   14   16 1
  27   14   37 1
  28   15   38 1
  29   15   39 1
  30   15   40 1
  31   16   17 1
  32   16   21 1
  33   16   41 1
  34   17   18 1
  35   17   19 1
  36   17   20 1
  37   18   42 1
  38   18   43 1
  39   18   44 1
  40   19   45 1
  41   19   46 1
  42   19   47 1
  43   20   48 1
  44   20   49 1
  45   20   50 1
  46   21   22 am
  47   21   23 2
  48   22   24 1
  49   22   51 1
  50   24   52 1
  51   24   53 1
  52   24   54 1
  53   25   26 ar
  54   25   55 1
  55   26   27 ar
  56   26   29 1
  57   27   28 ar
  58   27   56 1
  59   28   57 1

#	End of record

