#	Name: ASD01814164
#	Creating user name:	WinNT
#	Creation time:	15. 06. 2019 19:31

#	Modifying user name:	WinNT
#	Modification time:	15. 06. 2019 19:31

#	Program:	/corina/corina34_cracker 3.40 0067  02.08.2006

@<TRIPOS>MOLECULE
ASD01814164
  43   46    0    0    0
SMALL
NO_CHARGES


@<TRIPOS>ATOM
   1 C1            -0.0169     1.3972     0.0097 C.2     
   2 C2             0.0021    -0.0041     0.0020 C.2     
   3 C3             1.1986    -0.6593    -0.0129 C.2     
   4 C4             2.3918     0.0821    -0.0204 C.2     
   5 N5             2.3437     1.4497    -0.0122 N.am    
   6 C6             1.1421     2.0937     0.0024 C.2     
   7 C7             3.6227    -0.5889    -0.0356 C.2     
   8 C8             4.7877     0.1218    -0.0425 C.2     
   9 C9             4.7345     1.5280    -0.0346 C.2     
  10 C10            3.4812     2.1736    -0.0189 C.2     
  11 O11            3.4258     3.3917    -0.0123 O.2     
  12 C12            5.9703     2.3140    -0.0413 C.2     
  13 O13            5.9124     3.6618    -0.0337 O.3     
  14 O14            7.0487     1.7516    -0.0537 O.2     
  15 C15            3.6593    -2.0954    -0.0439 C.3     
  16 C16            3.7818    -2.5871    -1.4632 C.ar    
  17 C17            5.0333    -2.7834    -2.0188 C.ar    
  18 C18            5.1514    -3.2340    -3.3180 C.ar    
  19 C19            4.0069    -3.4912    -4.0702 C.ar    
  20 C20            2.7487    -3.2918    -3.5053 C.ar    
  21 C21            2.6424    -2.8459    -2.2035 C.ar    
  22 C22            4.1275    -3.9753    -5.4675 C.ar    
  23 C23            2.9906    -4.2385    -6.2367 C.ar    
  24 C24            3.1479    -4.6869    -7.5320 C.ar    
  25 N25            4.3499    -4.8677    -8.0447 N.ar    
  26 C26            5.4480    -4.6311    -7.3528 C.ar    
  27 C27            5.3811    -4.1750    -6.0523 C.ar    
  28 H28           -0.9605     1.9226     0.0170 H       
  29 H29           -0.9233    -0.5609     0.0082 H       
  30 H30            1.2282    -1.7389    -0.0187 H       
  31 H31            1.1156     3.1733     0.0087 H       
  32 H32            5.7393    -0.3889    -0.0536 H       
  33 H33            6.7544     4.1373    -0.0385 H       
  34 H34            4.5153    -2.4412     0.5356 H       
  35 H35            2.7412    -2.4836     0.3971 H       
  36 H36            5.9196    -2.5833    -1.4350 H       
  37 H37            6.1289    -3.3865    -3.7509 H       
  38 H38            1.8584    -3.4896    -4.0838 H       
  39 H39            1.6678    -2.6909    -1.7647 H       
  40 H40            2.0035    -4.0934    -5.8231 H       
  41 H41            2.2754    -4.8930    -8.1342 H       
  42 H42            6.4122    -4.7927    -7.8118 H       
  43 H43            6.2841    -3.9834    -5.4917 H       
@<TRIPOS>BOND
   1    1    2 1
   2    1    6 2
   3    1   28 1
   4    2    3 2
   5    2   29 1
   6    3    4 1
   7    3   30 1
   8    4    5 1
   9    4    7 2
  10    5    6 1
  11    5   10 am
  12    6   31 1
  13    7    8 1
  14    7   15 1
  15    8    9 2
  16    8   32 1
  17    9   10 1
  18    9   12 1
  19   10   11 2
  20   12   13 1
  21   12   14 2
  22   13   33 1
  23   15   16 1
  24   15   34 1
  25   15   35 1
  26   16   17 ar
  27   16   21 ar
  28   17   18 ar
  29   17   36 1
  30   18   19 ar
  31   18   37 1
  32   19   20 ar
  33   19   22 1
  34   20   21 ar
  35   20   38 1
  36   21   39 1
  37   22   23 ar
  38   22   27 ar
  39   23   24 ar
  40   23   40 1
  41   24   25 ar
  42   24   41 1
  43   25   26 ar
  44   26   27 ar
  45   26   42 1
  46   27   43 1

#	End of record

