#	Name: ASD03331026
#	Creating user name:	WinNT
#	Creation time:	15. 06. 2019 20:38

#	Modifying user name:	WinNT
#	Modification time:	15. 06. 2019 20:38

#	Program:	/corina/corina34_cracker 3.40 0067  02.08.2006

@<TRIPOS>MOLECULE
ASD03331026
  60   63    0    0    0
SMALL
NO_CHARGES


@<TRIPOS>ATOM
   1 C1            -0.5144     1.0557     0.6095 C.2     
   2 O2            -0.2566    -0.0933     0.3055 O.2     
   3 N3             2.4827     2.6905     1.8196 N.pl3   
   4 C4             1.8520     1.5964     1.3150 C.2     
   5 C5             2.5000     0.2699     1.0159 C.3     
   6 N6             3.3269    -0.1327     2.1642 N.3     
   7 C7             4.6885     0.3925     2.0474 C.3     
   8 C8             4.6909     1.7553     1.3607 C.3     
   9 C9             3.8965     2.7600     2.1997 C.3     
  10 C10            1.5573     3.6890     1.9129 C.2     
  11 N11            0.3998     3.2271     1.5008 N.2     
  12 C12            0.5471     1.9367     1.1273 C.2     
  13 C13            3.3376    -1.5936     2.3188 C.3     
  14 C14            1.8152     5.0619     2.3976 C.ar    
  15 C15            1.3382     6.1611     1.6780 C.ar    
  16 C16            1.5825     7.4415     2.1361 C.ar    
  17 C17            2.2989     7.6361     3.3055 C.ar    
  18 C18            2.7743     6.5484     4.0229 C.ar    
  19 C19            2.5308     5.2648     3.5780 C.ar    
  20 F20            2.5359     8.8902     3.7487 F       
  21 F21            0.6401     5.9719     0.5369 F       
  22 Cl22           3.6712     6.8020     5.4874 Cl      
  23 N23           -1.7699     1.5249     0.4675 N.am    
  24 C24           -2.8903     0.8011    -0.1508 C.3     
  25 C25           -4.1300     1.7161    -0.0650 C.3     
  26 C26           -3.7743     2.6747     1.1020 C.3     
  27 C27           -2.2487     2.8464     0.9122 C.3     
  28 C28           -2.5685     0.4969    -1.6153 C.3     
  29 C29           -1.4185    -0.5098    -1.6863 C.3     
  30 C30           -3.8048    -0.0921    -2.2975 C.3     
  31 C31           -2.1602     1.7885    -2.3266 C.3     
  32 H32            1.7294    -0.4809     0.8407 H       
  33 H33            3.1278     0.3627     0.1296 H       
  34 H34            5.1205     0.4925     3.0431 H       
  35 H35            5.2920    -0.3033     1.4644 H       
  36 H36            5.7177     2.1049     1.2529 H       
  37 H37            4.2344     1.6652     0.3750 H       
  38 H38            4.2739     3.7661     2.0172 H       
  39 H39            4.0022     2.5161     3.2568 H       
  40 H40            3.7449    -2.0513     1.4174 H       
  41 H41            3.9560    -1.8638     3.1748 H       
  42 H42            2.3199    -1.9494     2.4791 H       
  43 H43            1.2146     8.2919     1.5813 H       
  44 H44            2.8978     4.4188     4.1402 H       
  45 H45           -3.0761    -0.1266     0.3905 H       
  46 H46           -4.2643     2.2716    -0.9931 H       
  47 H47           -5.0221     1.1358     0.1709 H       
  48 H48           -4.2926     3.6278     0.9966 H       
  49 H49           -3.9955     2.2160     2.0657 H       
  50 H50           -1.7774     3.1230     1.8553 H       
  51 H51           -2.0459     3.5994     0.1506 H       
  52 H52           -1.5505    -1.2672    -0.9136 H       
  53 H53           -1.4137    -0.9874    -2.6661 H       
  54 H54           -0.4722     0.0079    -1.5298 H       
  55 H55           -4.6240     0.6251    -2.2469 H       
  56 H56           -3.5755    -0.3088    -3.3408 H       
  57 H57           -4.0957    -1.0123    -1.7907 H       
  58 H58           -1.2794     2.2081    -1.8406 H       
  59 H59           -1.9309     1.5718    -3.3699 H       
  60 H60           -2.9794     2.5057    -2.2760 H       
@<TRIPOS>BOND
   1    1    2 2
   2    1   12 1
   3    1   23 am
   4    3    4 1
   5    3    9 1
   6    3   10 1
   7    4    5 1
   8    4   12 2
   9    5    6 1
  10    5   32 1
  11    5   33 1
  12    6    7 1
  13    6   13 1
  14    7    8 1
  15    7   34 1
  16    7   35 1
  17    8    9 1
  18    8   36 1
  19    8   37 1
  20    9   38 1
  21    9   39 1
  22   10   11 2
  23   10   14 1
  24   11   12 1
  25   13   40 1
  26   13   41 1
  27   13   42 1
  28   14   15 ar
  29   14   19 ar
  30   15   16 ar
  31   15   21 1
  32   16   17 ar
  33   16   43 1
  34   17   18 ar
  35   17   20 1
  36   18   19 ar
  37   18   22 1
  38   19   44 1
  39   23   24 1
  40   23   27 1
  41   24   25 1
  42   24   28 1
  43   24   45 1
  44   25   26 1
  45   25   46 1
  46   25   47 1
  47   26   27 1
  48   26   48 1
  49   26   49 1
  50   27   50 1
  51   27   51 1
  52   28   29 1
  53   28   31 1
  54   28   30 1
  55   29   52 1
  56   29   53 1
  57   29   54 1
  58   30   55 1
  59   30   56 1
  60   30   57 1
  61   31   58 1
  62   31   59 1
  63   31   60 1

#	End of record

