#	Name: ASD04910406
#	Creating user name:	WinNT
#	Creation time:	15. 06. 2019 20:55

#	Modifying user name:	WinNT
#	Modification time:	15. 06. 2019 20:55

#	Program:	/corina/corina34_cracker 3.40 0067  02.08.2006

@<TRIPOS>MOLECULE
ASD04910406
  26   27    0    0    0
SMALL
NO_CHARGES


@<TRIPOS>ATOM
   1 C1            -0.0179     1.3684    -0.1420 C.ar    
   2 C2             0.0043     0.0261     0.2120 C.ar    
   3 C3             1.2314    -0.6208     0.3441 C.ar    
   4 C4             2.3868     0.1057     0.1156 C.ar    
   5 C5             2.2860     1.4459    -0.2354 C.ar    
   6 N6             1.1039     2.0284    -0.3519 N.ar    
   7 N7            -1.1895    -0.6677     0.4336 N.pl3   
   8 N8             3.4490     2.1890    -0.4680 N.pl3   
   9 N9             4.6810     1.6805    -0.8996 N.2     
  10 C10            5.5224     2.6773    -1.0023 C.2     
  11 C11            4.8578     3.8542    -0.6406 C.2     
  12 C12            3.5829     3.5324    -0.3214 C.2     
  13 C13            5.4552     5.2376    -0.6165 C.3     
  14 F14            6.7944     5.1742    -1.0159 F       
  15 F15            4.7462     6.0670    -1.4921 F       
  16 F16            5.3794     5.7557     0.6808 F       
  17 C17            3.7378    -0.5491     0.2463 C.3     
  18 H18           -0.9647     1.8764    -0.2509 H       
  19 H19            1.2797    -1.6642     0.6186 H       
  20 H20           -2.0402    -0.2113     0.3402 H       
  21 H21           -1.1667    -1.6055     0.6806 H       
  22 H22            6.5541     2.6040    -1.3131 H       
  23 H23            2.8120     4.2193    -0.0045 H       
  24 H24            4.0780    -0.8794    -0.7351 H       
  25 H25            4.4504     0.1669     0.6558 H       
  26 H26            3.6622    -1.4082     0.9128 H       
@<TRIPOS>BOND
   1    1    2 ar
   2    1    6 ar
   3    1   18 1
   4    2    3 ar
   5    2    7 1
   6    3    4 ar
   7    3   19 1
   8    4    5 ar
   9    4   17 1
  10    5    6 ar
  11    5    8 1
  12    7   20 1
  13    7   21 1
  14    8    9 1
  15    8   12 1
  16    9   10 2
  17   10   11 1
  18   10   22 1
  19   11   12 2
  20   11   13 1
  21   12   23 1
  22   13   14 1
  23   13   15 1
  24   13   16 1
  25   17   24 1
  26   17   25 1
  27   17   26 1

#	End of record

