#	Name: ASD00061032
#	Creating user name:	WinNT
#	Creation time:	15. 06. 2019 18:29

#	Modifying user name:	WinNT
#	Modification time:	15. 06. 2019 18:29

#	Program:	/corina/corina34_cracker 3.40 0067  02.08.2006

@<TRIPOS>MOLECULE
ASD00061032
  42   43    0    0    0
SMALL
NO_CHARGES


@<TRIPOS>ATOM
   1 C1            -0.4421     3.9420    -0.2858 C.ar    
   2 C2            -0.9581     2.6618    -0.3880 C.ar    
   3 C3            -0.1117     1.5672    -0.4198 C.ar    
   4 C4             1.2539     1.7448    -0.3493 C.ar    
   5 C5             1.7830     3.0352    -0.2459 C.ar    
   6 C6             0.9211     4.1362    -0.2148 C.ar    
   7 C7             3.2393     3.2336    -0.1701 C.2     
   8 C8             3.8053     4.6258    -0.0588 C.3     
   9 O9             3.9837     2.2769    -0.1973 O.2     
  10 C10            5.3186     4.5458     0.1524 C.3     
  11 C11            5.9030     5.9347     0.1308 C.ar    
  12 C12            6.8566     6.2694    -0.8137 C.ar    
  13 C13            7.3923     7.5450    -0.8332 C.ar    
  14 C14            6.9745     8.4838     0.0908 C.ar    
  15 C15            6.0214     8.1487     1.0346 C.ar    
  16 C16            5.4820     6.8762     1.0513 C.ar    
  17 Cl17           7.3813     5.0893    -1.9738 Cl      
  18 C18            5.6110     3.8904     1.5036 C.3     
  19 C19            7.0961     3.9071     1.7592 C.2     
  20 O20            7.5318     4.4342     2.7552 O.2     
  21 O21            7.9348     3.3364     0.8802 O.3     
  22 C22            4.9049     4.6528     2.5950 C.2     
  23 O23            5.5073     5.4736     3.2456 O.2     
  24 O24            3.6067     4.4200     2.8444 O.3     
  25 C25           -2.4494     2.4586    -0.4645 C.3     
  26 F26           -2.8545     2.4780    -1.8035 F       
  27 F27           -2.7818     1.2249     0.1054 F       
  28 F28           -3.0962     3.4842     0.2333 F       
  29 H29           -1.1089     4.7914    -0.2661 H       
  30 H30           -0.5218     0.5713    -0.4996 H       
  31 H31            1.9131     0.8897    -0.3735 H       
  32 H32            1.3223     5.1358    -0.1355 H       
  33 H33            3.5950     5.1779    -0.9748 H       
  34 H34            3.3470     5.1378     0.7874 H       
  35 H35            5.7656     3.9511    -0.6442 H       
  36 H36            8.1372     7.8068    -1.5702 H       
  37 H37            7.3929     9.4794     0.0759 H       
  38 H38            5.6954     8.8827     1.7568 H       
  39 H39            4.7372     6.6151     1.7885 H       
  40 H40            5.2559     2.8599     1.4921 H       
  41 H41            8.8818     3.4369     1.0481 H       
  42 H42            3.1970     4.9335     3.5541 H       
@<TRIPOS>BOND
   1    1    2 ar
   2    1    6 ar
   3    1   29 1
   4    2    3 ar
   5    2   25 1
   6    3    4 ar
   7    3   30 1
   8    4    5 ar
   9    4   31 1
  10    5    6 ar
  11    5    7 1
  12    6   32 1
  13    7    8 1
  14    7    9 2
  15    8   10 1
  16    8   33 1
  17    8   34 1
  18   10   11 1
  19   10   18 1
  20   10   35 1
  21   11   12 ar
  22   11   16 ar
  23   12   13 ar
  24   12   17 1
  25   13   14 ar
  26   13   36 1
  27   14   15 ar
  28   14   37 1
  29   15   16 ar
  30   15   38 1
  31   16   39 1
  32   18   19 1
  33   18   22 1
  34   18   40 1
  35   19   20 2
  36   19   21 1
  37   21   41 1
  38   22   23 2
  39   22   24 1
  40   24   42 1
  41   25   26 1
  42   25   27 1
  43   25   28 1

#	End of record

