#	Name: ASD01916140
#	Creating user name:	WinNT
#	Creation time:	15. 06. 2019 20:06

#	Modifying user name:	WinNT
#	Modification time:	15. 06. 2019 20:06

#	Program:	/corina/corina34_cracker 3.40 0067  02.08.2006

@<TRIPOS>MOLECULE
ASD01916140
  43   46    0    0    0
SMALL
NO_CHARGES


@<TRIPOS>ATOM
   1 C1            -0.3378     1.4189     0.4370 C.ar    
   2 C2            -0.2758     0.0382     0.3767 C.ar    
   3 C3            -1.4457    -0.7058     0.3336 C.ar    
   4 C4            -2.6751    -0.0634     0.3512 C.ar    
   5 C5            -2.7330     1.3159     0.4115 C.ar    
   6 C6            -1.5672     2.0566     0.4602 C.ar    
   7 O7            -1.3876    -2.0622     0.2738 O.3     
   8 C8            -2.6319    -2.7636     0.2320 C.3     
   9 C9            -2.3708    -4.2465     0.1684 C.2     
  10 C10           -1.1108    -4.8581     0.1520 C.2     
  11 N11           -3.2834    -5.1855     0.1246 N.2     
  12 N12           -2.6344    -6.4222     0.0774 N.pl3   
  13 C13           -1.3015    -6.1895     0.0905 C.2     
  14 C14           -3.2538    -7.7496     0.0319 C.3     
  15 C15           -2.2257    -8.7699    -0.4689 C.3     
  16 N16           -0.9514    -8.5589     0.2346 N.am    
  17 C17           -0.2533    -7.2756     0.0368 C.3     
  18 C18           -0.4373    -9.5094     1.0400 C.2     
  19 C19            0.9139    -9.3387     1.6163 C.ar    
  20 O20           -1.0842   -10.5069     1.2928 O.2     
  21 C21            1.3856   -10.2552     2.5582 C.ar    
  22 C22            2.6564   -10.0814     3.0896 C.ar    
  23 C23            3.4096    -8.9984     2.6606 C.ar    
  24 C24            2.8745    -8.1265     1.7195 C.ar    
  25 N25            1.6707    -8.3178     1.2294 N.ar    
  26 F26            0.8007     2.1450     0.4791 F       
  27 F27            0.6165   -11.2955     2.9472 F       
  28 F28            4.6508    -8.7928     3.1529 F       
  29 H29            0.6825    -0.4599     0.3628 H       
  30 H30           -3.5869    -0.6412     0.3173 H       
  31 H31           -3.6904     1.8154     0.4251 H       
  32 H32           -1.6148     3.1345     0.5076 H       
  33 H33           -3.2085    -2.5344     1.1282 H       
  34 H34           -3.1933    -2.4554    -0.6500 H       
  35 H35           -0.1571    -4.3522     0.1831 H       
  36 H36           -3.5878    -8.0298     1.0309 H       
  37 H37           -4.1072    -7.7301    -0.6459 H       
  38 H38           -2.5880    -9.7788    -0.2713 H       
  39 H39           -2.0758    -8.6396    -1.5407 H       
  40 H40            0.2388    -7.2660    -0.9357 H       
  41 H41            0.4814    -7.1262     0.8279 H       
  42 H42            3.0493   -10.7730     3.8201 H       
  43 H43            3.4582    -7.2824     1.3833 H       
@<TRIPOS>BOND
   1    1    2 ar
   2    1   26 1
   3    1    6 ar
   4    2    3 ar
   5    2   29 1
   6    3    4 ar
   7    3    7 1
   8    4    5 ar
   9    4   30 1
  10    5    6 ar
  11    5   31 1
  12    6   32 1
  13    7    8 1
  14    8    9 1
  15    8   33 1
  16    8   34 1
  17    9   10 1
  18    9   11 2
  19   10   13 2
  20   10   35 1
  21   11   12 1
  22   12   13 1
  23   12   14 1
  24   13   17 1
  25   14   15 1
  26   14   36 1
  27   14   37 1
  28   15   16 1
  29   15   38 1
  30   15   39 1
  31   16   17 1
  32   16   18 am
  33   17   40 1
  34   17   41 1
  35   18   19 1
  36   18   20 2
  37   19   21 ar
  38   19   25 ar
  39   21   22 ar
  40   21   27 1
  41   22   23 ar
  42   22   42 1
  43   23   24 ar
  44   23   28 1
  45   24   25 ar
  46   24   43 1

#	End of record

