#	Name: ASD08170203
#	Creating user name:	WinNT
#	Creation time:	15. 06. 2019 21:17

#	Modifying user name:	WinNT
#	Modification time:	15. 06. 2019 21:17

#	Program:	/corina/corina34_cracker 3.40 0067  02.08.2006

@<TRIPOS>MOLECULE
ASD08170203
  63   68    0    0    0
SMALL
NO_CHARGES


@<TRIPOS>ATOM
   1 N1            -0.0150     1.2583     0.0090 N.2     
   2 N2             0.0021    -0.0041     0.0020 N.2     
   3 C3             1.1271     1.8769     0.0014 C.2     
   4 S4             2.3826     0.7116    -0.0169 S.3     
   5 C5             1.1681    -0.5677    -0.0121 C.2     
   6 C6             1.4387    -2.0502    -0.0227 C.3     
   7 C7             1.5165    -2.5442    -1.4687 C.3     
   8 C8             1.8986    -4.7206    -3.2516 C.3     
   9 C9             2.1699    -6.2152    -3.4347 C.3     
  10 C10            2.2167    -6.5408    -4.9053 C.2     
  11 N11            3.2694    -6.5184    -5.6596 N.2     
  12 S12            0.8491    -7.0282    -5.9071 S.3     
  13 C13            1.9000    -7.1354    -7.2557 C.2     
  14 N14            3.1017    -6.8250    -6.8728 N.2     
  15 N15            1.5289    -7.4992    -8.5457 N.am    
  16 C16            2.4537    -7.5464    -9.5250 C.2     
  17 O17            3.6096    -7.2716    -9.2812 O.2     
  18 C18            2.0516    -7.9407   -10.9228 C.3     
  19 N19            1.3017     3.2566     0.0067 N.am    
  20 C20            0.2284     4.0717     0.0214 C.2     
  21 O21           -0.8897     3.6019     0.0299 O.2     
  22 C22            0.4176     5.5667     0.0272 C.3     
  23 C23            1.0801     6.0404    -1.2882 C.3     
  24 S24            1.8422    -4.3286    -1.4814 S.3     
  25 C25            1.0881    -6.8944   -11.5315 C.3     
  26 O26            3.1806    -7.8887   -11.8113 O.3     
  27 C27            2.7632    -7.4963   -13.0462 C.ar    
  28 C28            1.5204    -6.8794   -12.9850 C.ar    
  29 C29            3.3887    -7.6274   -14.2838 C.ar    
  30 C30            2.7809    -7.1449   -15.4240 C.ar    
  31 C31            1.5461    -6.5268   -15.3495 C.ar    
  32 C32            0.9165    -6.3956   -14.1245 C.ar    
  33 C33            0.3871     7.3679    -1.5273 C.ar    
  34 C34           -0.7369     7.3925    -0.7119 C.ar    
  35 O35           -0.8520     6.2409     0.0048 O.3     
  36 C36            0.6858     8.4326    -2.3485 C.ar    
  37 C37           -0.1349     9.5462    -2.3627 C.ar    
  38 C38           -1.2537     9.5850    -1.5509 C.ar    
  39 C39           -1.5567     8.5185    -0.7303 C.ar    
  40 H40            2.3843    -2.2506     0.4811 H       
  41 H41            0.6334    -2.5702     0.4961 H       
  42 H42            0.5709    -2.3438    -1.9724 H       
  43 H43            2.3218    -2.0242    -1.9874 H       
  44 H44            2.6943    -4.1461    -3.7258 H       
  45 H45            0.9434    -4.4658    -3.7108 H       
  46 H46            3.1250    -6.4700    -2.9755 H       
  47 H47            1.3741    -6.7896    -2.9605 H       
  48 H48            0.6045    -7.7190    -8.7407 H       
  49 H49            1.5983    -8.9319   -10.9275 H       
  50 H50            2.1959     3.6323    -0.0001 H       
  51 H51            1.0073     5.8765     0.8899 H       
  52 H52            2.1531     6.1794    -1.1560 H       
  53 H53            0.8763     5.3427    -2.1004 H       
  54 H54            0.0515    -7.2178   -11.4367 H       
  55 H55            1.2334    -5.9169   -11.0717 H       
  56 H56            4.3531    -8.1090   -14.3508 H       
  57 H57            3.2721    -7.2499   -16.3801 H       
  58 H58            1.0749    -6.1477   -16.2443 H       
  59 H59           -0.0480    -5.9138   -14.0618 H       
  60 H60            1.5607     8.3982    -2.9807 H       
  61 H61            0.0975    10.3825    -3.0054 H       
  62 H62           -1.8938    10.4548    -1.5596 H       
  63 H63           -2.4326     8.5567    -0.0997 H       
@<TRIPOS>BOND
   1    1    2 1
   2    1    3 2
   3    2    5 2
   4    3    4 1
   5    3   19 1
   6    4    5 1
   7    5    6 1
   8    6    7 1
   9    6   40 1
  10    6   41 1
  11    7   24 1
  12    7   42 1
  13    7   43 1
  14    8    9 1
  15    8   24 1
  16    8   44 1
  17    8   45 1
  18    9   10 1
  19    9   46 1
  20    9   47 1
  21   10   11 2
  22   10   12 1
  23   11   14 1
  24   12   13 1
  25   13   14 2
  26   13   15 1
  27   15   16 am
  28   15   48 1
  29   16   17 2
  30   16   18 1
  31   18   25 1
  32   18   26 1
  33   18   49 1
  34   19   20 am
  35   19   50 1
  36   20   21 2
  37   20   22 1
  38   22   23 1
  39   22   35 1
  40   22   51 1
  41   23   33 1
  42   23   52 1
  43   23   53 1
  44   25   28 1
  45   25   54 1
  46   25   55 1
  47   26   27 1
  48   27   28 ar
  49   27   29 ar
  50   28   32 ar
  51   29   30 ar
  52   29   56 1
  53   30   31 ar
  54   30   57 1
  55   31   32 ar
  56   31   58 1
  57   32   59 1
  58   33   34 ar
  59   33   36 ar
  60   34   35 1
  61   34   39 ar
  62   36   37 ar
  63   36   60 1
  64   37   38 ar
  65   37   61 1
  66   38   39 ar
  67   38   62 1
  68   39   63 1

#	End of record

