#	Name: ASD01884859
#	Creating user name:	WinNT
#	Creation time:	15. 06. 2019 19:49

#	Modifying user name:	WinNT
#	Modification time:	15. 06. 2019 19:49

#	Program:	/corina/corina34_cracker 3.40 0067  02.08.2006

@<TRIPOS>MOLECULE
ASD01884859
  42   46    0    0    0
SMALL
NO_CHARGES


@<TRIPOS>ATOM
   1 C1            -0.0164     1.3608     0.0095 C.ar    
   2 C2             0.0021    -0.0041     0.0020 C.ar    
   3 C3             1.2155    -0.7014    -0.0129 C.ar    
   4 C4             2.4183    -0.0059    -0.0202 C.ar    
   5 C5             2.4030     1.3880    -0.0131 C.ar    
   6 C6             1.1763     2.0776     0.0020 C.ar    
   7 C7             3.4481     2.4164    -0.0169 C.2     
   8 C8             2.8293     3.6064    -0.0050 C.2     
   9 N9             1.4695     3.4263     0.0065 N.pl3   
  10 C10            1.2174    -2.1832    -0.0204 C.2     
  11 C11            0.7036    -2.8768    -1.1010 C.2     
  12 C12            1.7505    -2.9032     1.0763 C.2     
  13 C13            1.7514    -4.2492     1.0678 C.2     
  14 N14            1.2416    -4.9428     0.0077 N.pl3   
  15 C15            0.7196    -4.2829    -1.0784 C.2     
  16 Cl16           0.0485    -2.0248    -2.4643 Cl      
  17 C17            1.1136    -6.2701    -0.2673 C.2     
  18 N18            0.5462    -6.3765    -1.4412 N.2     
  19 N19            0.3095    -5.2101    -1.9302 N.2     
  20 C20            0.5271     4.4498     0.0204 C.ar    
  21 N21            0.9397     5.7078     0.0237 N.ar    
  22 C22            0.0704     6.7047     0.0368 C.ar    
  23 C23           -1.2859     6.4186     0.0472 C.ar    
  24 C24           -1.6825     5.0904     0.0434 C.ar    
  25 N25           -0.7606     4.1421     0.0247 N.ar    
  26 C26            1.5470    -7.4092     0.6190 C.3     
  27 C27            0.3953    -7.7997     1.5475 C.3     
  28 F28           -0.7063    -8.1973     0.7823 F       
  29 F29            0.7977    -8.8572     2.3703 F       
  30 F30            0.0416    -6.7016     2.3389 F       
  31 H31           -0.9600     1.8862     0.0168 H       
  32 H32           -0.9290    -0.5513     0.0080 H       
  33 H33            3.3567    -0.5405    -0.0310 H       
  34 H34            4.5147     2.2476    -0.0272 H       
  35 H35            3.3279     4.5645    -0.0043 H       
  36 H36            2.1583    -2.3703     1.9226 H       
  37 H37            2.1607    -4.7874     1.9099 H       
  38 H38            0.4132     7.7288     0.0398 H       
  39 H39           -2.0174     7.2131     0.0584 H       
  40 H40           -2.7314     4.8331     0.0512 H       
  41 H41            1.8226    -8.2648     0.0024 H       
  42 H42            2.4053    -7.0995     1.2152 H       
@<TRIPOS>BOND
   1    1    2 ar
   2    1    6 ar
   3    1   31 1
   4    2    3 ar
   5    2   32 1
   6    3    4 ar
   7    3   10 1
   8    4    5 ar
   9    4   33 1
  10    5    6 ar
  11    5    7 1
  12    6    9 1
  13    7    8 2
  14    7   34 1
  15    8    9 1
  16    8   35 1
  17    9   20 1
  18   10   11 2
  19   10   12 1
  20   11   16 1
  21   11   15 1
  22   12   13 2
  23   12   36 1
  24   13   14 1
  25   13   37 1
  26   14   15 1
  27   14   17 1
  28   15   19 2
  29   17   18 2
  30   17   26 1
  31   18   19 1
  32   20   21 ar
  33   20   25 ar
  34   21   22 ar
  35   22   23 ar
  36   22   38 1
  37   23   24 ar
  38   23   39 1
  39   24   25 ar
  40   24   40 1
  41   26   27 1
  42   26   41 1
  43   26   42 1
  44   27   28 1
  45   27   29 1
  46   27   30 1

#	End of record

