#	Name: ASD01881653
#	Creating user name:	WinNT
#	Creation time:	15. 06. 2019 19:43

#	Modifying user name:	WinNT
#	Modification time:	15. 06. 2019 19:43

#	Program:	/corina/corina34_cracker 3.40 0067  02.08.2006

@<TRIPOS>MOLECULE
ASD01881653
  29   29    0    0    0
SMALL
NO_CHARGES


@<TRIPOS>ATOM
   1 C1            -0.0184     1.5028     0.0103 C.2     
   2 C2             0.0021    -0.0041     0.0020 C.3     
   3 O3             1.0197     2.1211     0.0037 O.2     
   4 O4            -1.1898     2.1580     0.0194 O.3     
   5 N5             1.3935    -0.4748    -0.0138 N.3     
   6 C6             1.4526    -1.9426    -0.0222 C.3     
   7 C7             1.3612    -2.4650     1.4129 C.3     
   8 C8             2.7537    -2.3894    -0.6376 C.ar    
   9 C9             2.7778    -3.4796    -1.4873 C.ar    
  10 C10            3.9708    -3.8895    -2.0523 C.ar    
  11 C11            5.1407    -3.2087    -1.7673 C.ar    
  12 C12            5.1161    -2.1180    -0.9169 C.ar    
  13 C13            3.9218    -1.7056    -0.3566 C.ar    
  14 Br14           6.7733    -3.7694    -2.5394 Br      
  15 C15           -1.1335     3.6089     0.0270 C.3     
  16 H16           -0.4983    -0.3791     0.8948 H       
  17 H17           -0.5153    -0.3696    -0.8850 H       
  18 H18            1.8972    -0.0881    -0.7979 H       
  19 H19            0.6205    -2.3364    -0.6059 H       
  20 H20            1.4051    -3.5541     1.4067 H       
  21 H21            2.1933    -2.0712     1.9966 H       
  22 H22            0.4202    -2.1418     1.8580 H       
  23 H23            1.8644    -4.0112    -1.7095 H       
  24 H24            3.9896    -4.7413    -2.7159 H       
  25 H25            6.0294    -1.5864    -0.6938 H       
  26 H26            3.9018    -0.8515     0.3041 H       
  27 H27           -0.6017     3.9472     0.9164 H       
  28 H28           -0.6102     3.9569    -0.8636 H       
  29 H29           -2.1463     4.0118     0.0340 H       
@<TRIPOS>BOND
   1    1    2 1
   2    1    3 2
   3    1    4 1
   4    2    5 1
   5    2   16 1
   6    2   17 1
   7    4   15 1
   8    5    6 1
   9    5   18 1
  10    6    7 1
  11    6    8 1
  12    6   19 1
  13    7   20 1
  14    7   21 1
  15    7   22 1
  16    8    9 ar
  17    8   13 ar
  18    9   10 ar
  19    9   23 1
  20   10   11 ar
  21   10   24 1
  22   11   12 ar
  23   11   14 1
  24   12   13 ar
  25   12   25 1
  26   13   26 1
  27   15   27 1
  28   15   28 1
  29   15   29 1

#	End of record

