#	Name: ASD09116359
#	Creating user name:	WinNT
#	Creation time:	15. 06. 2019 21:21

#	Modifying user name:	WinNT
#	Modification time:	15. 06. 2019 21:21

#	Program:	/corina/corina34_cracker 3.40 0067  02.08.2006

@<TRIPOS>MOLECULE
ASD09116359
  82   87    0    0    0
SMALL
NO_CHARGES


@<TRIPOS>ATOM
   1 N1            -0.2094     1.8801     1.9011 N.2     
   2 N2            -0.3854     0.6051     1.3397 N.pl3   
   3 C3             1.0377     2.2244     1.6857 C.2     
   4 N4             1.6537     1.2391     1.0218 N.2     
   5 C5             0.8081     0.2545     0.8055 C.2     
   6 N6             1.0889    -0.9289     0.1494 N.pl3   
   7 C7            -1.5588    -0.1513     1.3338 C.ar    
   8 N8             1.6270     3.4241     2.0843 N.pl3   
   9 C9             2.9983     3.6294     1.8890 C.ar    
  10 C10            3.4871     4.9150     1.6934 C.ar    
  11 C11            3.8698     2.5488     1.8966 C.ar    
  12 C12            5.2232     2.7505     1.7044 C.ar    
  13 C13            5.7122     4.0333     1.5033 C.ar    
  14 C14            4.8406     5.1172     1.5007 C.ar    
  15 N15            7.0850     4.2374     1.3089 N.3     
  16 F16            5.3161     6.3664     1.3044 F       
  17 N17           -1.7531    -1.0649     0.3945 N.ar    
  18 N18           -2.8192    -1.7809     0.3383 N.ar    
  19 C19           -3.7939    -1.6446     1.2230 C.ar    
  20 C20           -3.6674    -0.7195     2.2632 C.ar    
  21 C21           -2.5256     0.0514     2.3218 C.ar    
  22 C22           -5.0465    -2.4298     1.1292 C.ar    
  23 C23           -6.2692    -1.7621     1.2141 C.ar    
  24 C24           -6.2841    -0.2634     1.3416 C.3     
  25 C25           -5.9393     0.1780     2.7614 C.3     
  26 C26           -4.7484    -0.6110     3.2990 C.3     
  27 C27           -5.0176    -3.8101     0.9636 C.ar    
  28 C28           -6.2033    -4.5164     0.9028 C.ar    
  29 C29           -7.4126    -3.8533     1.0081 C.ar    
  30 C30           -7.4457    -2.4784     1.1646 C.ar    
  31 C31            7.8560     3.7677     2.4670 C.3     
  32 C32            9.3299     4.1371     2.2840 C.3     
  33 C33            9.8573     3.4910     1.0000 C.3     
  34 C34            9.0069     3.9590    -0.1842 C.3     
  35 C35            7.5424     3.5948     0.0703 C.3     
  36 N36           11.2553     3.8896     0.7883 N.3     
  37 C37           11.8312     3.1944    -0.3706 C.3     
  38 C38           11.3705     5.3464     0.6389 C.3     
  39 C39           12.8313     5.7637     0.8198 C.3     
  40 C40           12.9562     7.2772     0.6332 C.3     
  41 C41           12.1156     1.7371    -0.0016 C.3     
  42 C42           12.8303     1.0466    -1.1649 C.3     
  43 H43            1.9791    -1.0900    -0.2005 H       
  44 H44            0.3958    -1.5984     0.0387 H       
  45 H45            1.0868     4.1162     2.4968 H       
  46 H46            2.8096     5.7560     1.6915 H       
  47 H47            3.4899     1.5501     2.0531 H       
  48 H48            5.9006     1.9094     1.7112 H       
  49 H49           -2.3872     0.7895     3.0980 H       
  50 H50           -5.5563     0.1606     0.6498 H       
  51 H51           -7.2766     0.1065     1.0843 H       
  52 H52           -5.6937     1.2400     2.7574 H       
  53 H53           -6.8009     0.0121     3.4080 H       
  54 H54           -5.0782    -1.6115     3.5789 H       
  55 H55           -4.3517    -0.1057     4.1795 H       
  56 H56           -4.0730    -4.3275     0.8833 H       
  57 H57           -6.1861    -5.5883     0.7723 H       
  58 H58           -8.3362    -4.4116     0.9681 H       
  59 H59           -8.3934    -1.9670     1.2475 H       
  60 H60            7.4735     4.2379     3.3729 H       
  61 H61            7.7608     2.6852     2.5518 H       
  62 H62            9.4274     5.2204     2.2130 H       
  63 H63            9.9044     3.7745     3.1364 H       
  64 H64            9.7960     2.4061     1.0862 H       
  65 H65            9.0993     5.0395    -0.2941 H       
  66 H66            9.3507     3.4692    -1.0952 H       
  67 H67            7.4486     2.5131     0.1664 H       
  68 H68            6.9321     3.9394    -0.7645 H       
  69 H69           11.1265     3.2280    -1.2015 H       
  70 H70           12.7607     3.6833    -0.6625 H       
  71 H71           11.0297     5.6379    -0.3545 H       
  72 H72           10.7560     5.8386     1.3928 H       
  73 H73           13.1654     5.4923     1.8213 H       
  74 H74           13.4490     5.2542     0.0802 H       
  75 H75           13.9970     7.5744     0.7621 H       
  76 H76           12.6222     7.5485    -0.3682 H       
  77 H77           12.3386     7.7867     1.3728 H       
  78 H78           12.7487     1.7037     0.8851 H       
  79 H79           11.1759     1.2242     0.2034 H       
  80 H80           12.1972     1.0799    -2.0515 H       
  81 H81           13.7700     1.5595    -1.3699 H       
  82 H82           13.0329     0.0083    -0.9020 H       
@<TRIPOS>BOND
   1    1    2 1
   2    1    3 2
   3    2    7 1
   4    2    5 1
   5    3    4 1
   6    3    8 1
   7    4    5 2
   8    5    6 1
   9    6   43 1
  10    6   44 1
  11    7   17 ar
  12    7   21 ar
  13    8    9 1
  14    8   45 1
  15    9   10 ar
  16    9   11 ar
  17   10   14 ar
  18   10   46 1
  19   11   12 ar
  20   11   47 1
  21   12   13 ar
  22   12   48 1
  23   13   14 ar
  24   13   15 1
  25   14   16 1
  26   15   31 1
  27   15   35 1
  28   17   18 ar
  29   18   19 ar
  30   19   20 ar
  31   19   22 1
  32   20   21 ar
  33   20   26 1
  34   21   49 1
  35   22   23 ar
  36   22   27 ar
  37   23   24 1
  38   23   30 ar
  39   24   25 1
  40   24   50 1
  41   24   51 1
  42   25   26 1
  43   25   52 1
  44   25   53 1
  45   26   54 1
  46   26   55 1
  47   27   28 ar
  48   27   56 1
  49   28   29 ar
  50   28   57 1
  51   29   30 ar
  52   29   58 1
  53   30   59 1
  54   31   32 1
  55   31   60 1
  56   31   61 1
  57   32   33 1
  58   32   62 1
  59   32   63 1
  60   33   34 1
  61   33   36 1
  62   33   64 1
  63   34   35 1
  64   34   65 1
  65   34   66 1
  66   35   67 1
  67   35   68 1
  68   36   37 1
  69   36   38 1
  70   37   41 1
  71   37   69 1
  72   37   70 1
  73   38   39 1
  74   38   71 1
  75   38   72 1
  76   39   40 1
  77   39   73 1
  78   39   74 1
  79   40   75 1
  80   40   76 1
  81   40   77 1
  82   41   42 1
  83   41   78 1
  84   41   79 1
  85   42   80 1
  86   42   81 1
  87   42   82 1

#	End of record

