#	Name: ASD01208008
#	Creating user name:	WinNT
#	Creation time:	15. 06. 2019 19:09

#	Modifying user name:	WinNT
#	Modification time:	15. 06. 2019 19:09

#	Program:	/corina/corina34_cracker 3.40 0067  02.08.2006

@<TRIPOS>MOLECULE
ASD01208008
  67   70    0    0    0
SMALL
NO_CHARGES


@<TRIPOS>ATOM
   1 C1            -7.3568     5.3240    -3.0540 C.ar    
   2 C2            -7.5679     4.0140    -3.4589 C.ar    
   3 C3            -8.6063     3.2730    -2.9120 C.ar    
   4 C4            -9.4369     3.8394    -1.9594 C.ar    
   5 C5            -9.2280     5.1572    -1.5492 C.ar    
   6 C6            -8.1789     5.8963    -2.0973 C.ar    
   7 C7           -10.1119     5.7659    -0.5335 C.2     
   8 C8           -10.0148     7.0492    -0.0451 C.2     
   9 N9           -11.1710     5.1525     0.0788 N.pl3   
  10 C10          -11.7423     6.0409     0.9584 C.2     
  11 C11          -11.0347     7.2229     0.8921 C.2     
  12 C12          -12.9053     5.7789     1.8151 C.2     
  13 S13          -13.6232     6.9317     2.9367 S.3     
  14 N14          -13.5738     4.6537     1.8601 N.2     
  15 C15          -14.5849     4.5909     2.6802 C.2     
  16 C16          -14.8251     5.7290     3.4010 C.2     
  17 O17           -6.3386     6.0450    -3.5928 O.3     
  18 C18           -6.2730     7.4309    -3.2506 C.3     
  19 C19           -5.5981     8.2048    -4.3848 C.3     
  20 O20           -4.2390     7.7811    -4.5078 O.3     
  21 C21           -5.4622     7.6008    -1.9643 C.3     
  22 O22           -8.8087     1.9903    -3.3121 O.3     
  23 C23           -9.8924     1.7276    -4.0887 C.ar    
  24 C24          -10.6798     2.7692    -4.5582 C.ar    
  25 C25          -10.2102     0.4178    -4.4182 C.ar    
  26 C26          -11.3122     0.1535    -5.2082 C.ar    
  27 C27          -12.0979     1.1930    -5.6709 C.ar    
  28 C28          -11.7806     2.4995    -5.3479 C.ar    
  29 S29          -13.5021     0.8525    -6.6793 S.o2    
  30 C30          -14.8661     0.6463    -5.5013 C.3     
  31 O31          -13.6791     2.0365    -7.4449 O.2     
  32 O32          -13.1923    -0.3851    -7.3051 O.2     
  33 C33           -3.5144     8.4460    -5.5446 C.3     
  34 C34          -15.8938     5.9155     4.3840 C.2     
  35 N35          -15.6923     6.7062     5.4567 N.am    
  36 O36          -16.9645     5.3563     4.2326 O.2     
  37 C37          -16.8010     7.0015     6.3676 C.3     
  38 C38          -14.3646     7.2704     5.7117 C.3     
  39 H39           -6.9225     3.5695    -4.2021 H       
  40 H40          -10.2451     3.2625    -1.5348 H       
  41 H41           -8.0138     6.9162    -1.7828 H       
  42 H42           -9.2822     7.7880    -0.3346 H       
  43 H43          -11.4688     4.2434    -0.0813 H       
  44 H44          -11.2333     8.1191     1.4612 H       
  45 H45          -15.1918     3.7035     2.7822 H       
  46 H46           -7.2814     7.8156    -3.0980 H       
  47 H47           -6.1247     8.0124    -5.3196 H       
  48 H48           -5.6275     9.2719    -4.1643 H       
  49 H49           -4.4538     7.2161    -2.1169 H       
  50 H50           -5.4122     8.6579    -1.7033 H       
  51 H51           -5.9430     7.0494    -1.1562 H       
  52 H52          -10.4324     3.7898    -4.3062 H       
  53 H53           -9.5964    -0.3944    -4.0577 H       
  54 H54          -11.5600    -0.8658    -5.4650 H       
  55 H55          -12.3962     3.3095    -5.7102 H       
  56 H56          -14.9911     1.5636    -4.9260 H       
  57 H57          -15.7859     0.4301    -6.0447 H       
  58 H58          -14.6408    -0.1786    -4.8254 H       
  59 H59           -2.4922     8.0686    -5.5731 H       
  60 H60           -3.9977     8.2586    -6.5034 H       
  61 H61           -3.5005     9.5181    -5.3481 H       
  62 H62          -16.8335     6.2497     7.1562 H       
  63 H63          -16.6548     7.9866     6.8106 H       
  64 H64          -17.7398     6.9880     5.8138 H       
  65 H65          -13.6013     6.5786     5.3553 H       
  66 H66          -14.2669     8.2209     5.1873 H       
  67 H67          -14.2377     7.4313     6.7823 H       
@<TRIPOS>BOND
   1    1    2 ar
   2    1   17 1
   3    1    6 ar
   4    2    3 ar
   5    2   39 1
   6    3    4 ar
   7    3   22 1
   8    4    5 ar
   9    4   40 1
  10    5    6 ar
  11    5    7 1
  12    6   41 1
  13    7    8 2
  14    7    9 1
  15    8   11 1
  16    8   42 1
  17    9   10 1
  18    9   43 1
  19   10   11 2
  20   10   12 1
  21   11   44 1
  22   12   13 1
  23   12   14 2
  24   13   16 1
  25   14   15 1
  26   15   16 2
  27   15   45 1
  28   16   34 1
  29   17   18 1
  30   18   19 1
  31   18   21 1
  32   18   46 1
  33   19   20 1
  34   19   47 1
  35   19   48 1
  36   20   33 1
  37   21   49 1
  38   21   50 1
  39   21   51 1
  40   22   23 1
  41   23   24 ar
  42   23   25 ar
  43   24   28 ar
  44   24   52 1
  45   25   26 ar
  46   25   53 1
  47   26   27 ar
  48   26   54 1
  49   27   28 ar
  50   27   29 1
  51   28   55 1
  52   29   30 1
  53   29   31 2
  54   29   32 2
  55   30   56 1
  56   30   57 1
  57   30   58 1
  58   33   59 1
  59   33   60 1
  60   33   61 1
  61   34   36 2
  62   34   35 am
  63   35   37 1
  64   35   38 1
  65   37   62 1
  66   37   63 1
  67   37   64 1
  68   38   65 1
  69   38   66 1
  70   38   67 1

#	End of record

