#	Name: ASD01903009
#	Creating user name:	WinNT
#	Creation time:	15. 06. 2019 19:54

#	Modifying user name:	WinNT
#	Modification time:	15. 06. 2019 19:54

#	Program:	/corina/corina34_cracker 3.40 0067  02.08.2006

@<TRIPOS>MOLECULE
ASD01903009
  29   30    0    0    0
SMALL
NO_CHARGES


@<TRIPOS>ATOM
   1 C1            -0.0024     1.3866    -0.2244 C.ar    
   2 C2             0.0133     0.0010    -0.2377 C.ar    
   3 C3             1.2046    -0.6808    -0.0311 C.ar    
   4 C4             2.3749     0.0202     0.1882 C.ar    
   5 C5             2.3635     1.4017     0.2021 C.ar    
   6 C6             1.1743     2.0893    -0.0044 C.ar    
   7 N7             1.1626     3.4877     0.0097 N.am    
   8 C8             0.1022     4.1477     0.5163 C.2     
   9 O9            -0.8797     3.5305     0.8831 O.2     
  10 C10            0.1324     5.6157     0.6256 C.2     
  11 O11           -1.1371    -0.6899    -0.4523 O.3     
  12 N12            1.1763     6.3552     0.2420 N.2     
  13 C13            1.0505     7.6256     0.4015 C.2     
  14 S14           -0.4714     7.9969     1.0814 S.3     
  15 C15           -0.8965     6.3416     1.1185 C.2     
  16 C16            2.1003     8.6443     0.0391 C.3     
  17 C17           -1.0469    -2.1161    -0.4527 C.3     
  18 H18           -0.9276     1.9188    -0.3894 H       
  19 H19            1.2167    -1.7607    -0.0415 H       
  20 H20            3.3003    -0.5127     0.3493 H       
  21 H21            3.2796     1.9473     0.3738 H       
  22 H22            1.9176     3.9827    -0.3451 H       
  23 H23           -1.8314     5.9408     1.4816 H       
  24 H24            1.9518     8.9684    -0.9909 H       
  25 H25            2.0187     9.5029     0.7056 H       
  26 H26            3.0897     8.1983     0.1406 H       
  27 H27           -0.3619    -2.4366    -1.2376 H       
  28 H28           -0.6766    -2.4570     0.5142 H       
  29 H29           -2.0333    -2.5425    -0.6348 H       
@<TRIPOS>BOND
   1    1    2 ar
   2    1    6 ar
   3    1   18 1
   4    2    3 ar
   5    2   11 1
   6    3    4 ar
   7    3   19 1
   8    4    5 ar
   9    4   20 1
  10    5    6 ar
  11    5   21 1
  12    6    7 1
  13    7    8 am
  14    7   22 1
  15    8    9 2
  16    8   10 1
  17   10   12 1
  18   10   15 2
  19   11   17 1
  20   12   13 2
  21   13   14 1
  22   13   16 1
  23   14   15 1
  24   15   23 1
  25   16   24 1
  26   16   25 1
  27   16   26 1
  28   17   27 1
  29   17   28 1
  30   17   29 1

#	End of record

