#	Name: ASD07030035
#	Creating user name:	WinNT
#	Creation time:	15. 06. 2019 21:08

#	Modifying user name:	WinNT
#	Modification time:	15. 06. 2019 21:08

#	Program:	/corina/corina34_cracker 3.40 0067  02.08.2006

@<TRIPOS>MOLECULE
ASD07030035
  35   37    0    0    0
SMALL
NO_CHARGES


@<TRIPOS>ATOM
   1 C1            -0.0167     1.3831     0.0096 C.ar    
   2 C2             0.0021    -0.0041     0.0020 C.ar    
   3 C3             1.2083    -0.6773    -0.0131 C.ar    
   4 C4             2.3962     0.0303    -0.0207 C.ar    
   5 C5             2.3801     1.4128    -0.0131 C.ar    
   6 C6             1.1765     2.0907     0.0021 C.ar    
   7 C7             3.7106    -0.7066    -0.0367 C.3     
   8 C8             4.6476    -0.4543    -1.2195 C.3     
   9 C9             4.9849     0.1173     0.1590 C.3     
  10 N10            5.4504    -1.5820    -1.6991 N.pl3   
  11 O11            5.3294    -1.9712    -2.8469 O.2     
  12 O12            6.2390    -2.1303    -0.9501 O.2     
  13 O13           -1.2021     2.0477     0.0189 O.3     
  14 C14           -1.1453     3.4755     0.0264 C.3     
  15 C15           -2.5450     4.0339     0.0360 C.ar    
  16 C16           -3.1813     4.2835     1.2376 C.ar    
  17 C17           -4.4653     4.7957     1.2464 C.ar    
  18 C18           -5.1127     5.0586     0.0537 C.ar    
  19 C19           -4.4761     4.8099    -1.1478 C.ar    
  20 C20           -3.1905     4.3018    -1.1567 C.ar    
  21 H21           -0.9255    -0.5572     0.0083 H       
  22 H22            1.2235    -1.7571    -0.0187 H       
  23 H23            3.3093     1.9633    -0.0186 H       
  24 H24            1.1645     3.1706     0.0076 H       
  25 H25            3.6915    -1.7117     0.3847 H       
  26 H26            4.3134     0.2448    -1.9862 H       
  27 H27            4.8725     1.1924     0.2994 H       
  28 H28            5.8040    -0.3457     0.7092 H       
  29 H29           -0.6132     3.8133     0.9157 H       
  30 H30           -0.6217     3.8230    -0.8642 H       
  31 H31           -2.6755     4.0780     2.1694 H       
  32 H32           -4.9627     4.9900     2.1851 H       
  33 H33           -6.1161     5.4581     0.0606 H       
  34 H34           -4.9821     5.0150    -2.0797 H       
  35 H35           -2.6917     4.1109    -2.0954 H       
@<TRIPOS>BOND
   1    1    2 ar
   2    1    6 ar
   3    1   13 1
   4    2    3 ar
   5    2   21 1
   6    3    4 ar
   7    3   22 1
   8    4    5 ar
   9    4    7 1
  10    5    6 ar
  11    5   23 1
  12    6   24 1
  13    7    8 1
  14    7    9 1
  15    7   25 1
  16    8    9 1
  17    8   10 1
  18    8   26 1
  19    9   27 1
  20    9   28 1
  21   10   11 2
  22   10   12 2
  23   13   14 1
  24   14   15 1
  25   14   29 1
  26   14   30 1
  27   15   16 ar
  28   15   20 ar
  29   16   17 ar
  30   16   31 1
  31   17   18 ar
  32   17   32 1
  33   18   19 ar
  34   18   33 1
  35   19   20 ar
  36   19   34 1
  37   20   35 1

#	End of record

