#	Name: ASD01917036
#	Creating user name:	WinNT
#	Creation time:	15. 06. 2019 20:08

#	Modifying user name:	WinNT
#	Modification time:	15. 06. 2019 20:08

#	Program:	/corina/corina34_cracker 3.40 0067  02.08.2006

@<TRIPOS>MOLECULE
ASD01917036
  59   63    0    0    0
SMALL
NO_CHARGES


@<TRIPOS>ATOM
   1 C1            -0.0174     1.3090     0.0939 C.2     
   2 N2             0.0007     0.0200    -0.1690 N.2     
   3 N3            -1.3350    -0.4133    -0.1803 N.pl3   
   4 C4            -2.0929     0.6763     0.0846 C.2     
   5 N5            -1.2858     1.7022     0.2527 N.2     
   6 C6             1.1767     2.1837     0.2031 C.ar    
   7 C7             2.4519     1.6514     0.0216 C.ar    
   8 C8             1.0258     3.5395     0.4813 C.ar    
   9 C9             2.1443     4.3509     0.5820 C.ar    
  10 C10            3.4109     3.8119     0.4052 C.ar    
  11 C11           -1.8134    -1.7752    -0.4300 C.3     
  12 C12           -1.8501    -2.5406     0.8677 C.2     
  13 N13           -2.2608    -3.8242     0.8816 N.am    
  14 O14           -1.5101    -2.0014     1.8995 O.2     
  15 C15           -2.3043    -4.5893     2.1370 C.3     
  16 C16           -3.6911    -5.2272     2.2705 C.3     
  17 N17           -3.9882    -6.0035     1.0593 N.3     
  18 C18           -4.0496    -5.1385    -0.1264 C.3     
  19 C19           -2.6832    -4.4951    -0.3572 C.3     
  20 C20           -5.1597    -6.7255     1.2078 C.ar    
  21 N21           -5.5818    -7.4859     0.2083 N.ar    
  22 C22           -6.6972    -8.1885     0.3177 C.ar    
  23 C23           -7.4256    -8.1219     1.4951 C.ar    
  24 C24           -6.9553    -7.3166     2.5205 C.ar    
  25 N25           -5.8295    -6.6439     2.3481 N.ar    
  26 C26           -3.5696     0.7073     0.1757 C.ar    
  27 C27            3.5609     2.4667     0.1236 C.ar    
  28 C28           -4.2547     1.9146     0.0376 C.ar    
  29 C29           -5.6316     1.9368     0.1231 C.ar    
  30 C30           -6.3328     0.7651     0.3452 C.ar    
  31 C31           -5.6592    -0.4354     0.4831 C.ar    
  32 C32           -4.2827    -0.4716     0.3943 C.ar    
  33 O33            2.0010     5.6748     0.8535 O.3     
  34 C34            3.1970     6.4518     0.9431 C.3     
  35 H35            2.5723     0.6009    -0.1984 H       
  36 H36            0.0394     3.9577     0.6180 H       
  37 H37            4.2817     4.4461     0.4833 H       
  38 H38           -2.8156    -1.7357    -0.8570 H       
  39 H39           -1.1408    -2.2745    -1.1274 H       
  40 H40           -1.5429    -5.3691     2.1170 H       
  41 H41           -2.1259    -3.9210     2.9794 H       
  42 H42           -3.7061    -5.8868     3.1381 H       
  43 H43           -4.4406    -4.4455     2.3944 H       
  44 H44           -4.3245    -5.7338    -0.9971 H       
  45 H45           -4.7941    -4.3581     0.0309 H       
  46 H46           -2.7534    -3.7662    -1.1646 H       
  47 H47           -1.9555    -5.2641    -0.6165 H       
  48 H48           -7.0365    -8.8063    -0.5006 H       
  49 H49           -8.3399    -8.6849     1.6108 H       
  50 H50           -7.4994    -7.2424     3.4504 H       
  51 H51            4.5487     2.0519    -0.0128 H       
  52 H52           -3.7084     2.8300    -0.1355 H       
  53 H53           -6.1631     2.8709     0.0166 H       
  54 H54           -7.4105     0.7877     0.4117 H       
  55 H55           -6.2122    -1.3468     0.6564 H       
  56 H56           -3.7580    -1.4094     0.5017 H       
  57 H57            3.8285     6.0563     1.7387 H       
  58 H58            3.7335     6.4035    -0.0045 H       
  59 H59            2.9413     7.4882     1.1635 H       
@<TRIPOS>BOND
   1    1    2 2
   2    1    6 1
   3    1    5 1
   4    2    3 1
   5    3    4 1
   6    3   11 1
   7    4    5 2
   8    4   26 1
   9    6    7 ar
  10    6    8 ar
  11    7   27 ar
  12    7   35 1
  13    8    9 ar
  14    8   36 1
  15    9   10 ar
  16    9   33 1
  17   10   27 ar
  18   10   37 1
  19   11   12 1
  20   11   38 1
  21   11   39 1
  22   12   13 am
  23   12   14 2
  24   13   15 1
  25   13   19 1
  26   15   16 1
  27   15   40 1
  28   15   41 1
  29   16   17 1
  30   16   42 1
  31   16   43 1
  32   17   18 1
  33   17   20 1
  34   18   19 1
  35   18   44 1
  36   18   45 1
  37   19   46 1
  38   19   47 1
  39   20   21 ar
  40   20   25 ar
  41   21   22 ar
  42   22   23 ar
  43   22   48 1
  44   23   24 ar
  45   23   49 1
  46   24   25 ar
  47   24   50 1
  48   26   28 ar
  49   26   32 ar
  50   27   51 1
  51   28   29 ar
  52   28   52 1
  53   29   30 ar
  54   29   53 1
  55   30   31 ar
  56   30   54 1
  57   31   32 ar
  58   31   55 1
  59   32   56 1
  60   33   34 1
  61   34   57 1
  62   34   58 1
  63   34   59 1

#	End of record

