#	Name: ASD03331905
#	Creating user name:	WinNT
#	Creation time:	15. 06. 2019 20:40

#	Modifying user name:	WinNT
#	Modification time:	15. 06. 2019 20:40

#	Program:	/corina/corina34_cracker 3.40 0067  02.08.2006

@<TRIPOS>MOLECULE
ASD03331905
  60   62    0    0    0
SMALL
NO_CHARGES


@<TRIPOS>ATOM
   1 C1            -0.0615     2.0063     1.7853 C.2     
   2 N2            -0.1509     0.7152     2.2014 N.pl3   
   3 C3             1.0658     0.1334     1.9951 C.2     
   4 N4             1.8792     1.0316     1.4910 N.2     
   5 C5             1.2149     2.1999     1.3519 C.2     
   6 C6             1.7718     3.4582     0.8247 C.2     
   7 O7             1.0700     4.4486     0.7474 O.2     
   8 N8             3.0588     3.5117     0.4282 N.am    
   9 C9             3.6124     4.7627    -0.0960 C.3     
  10 C10            3.3006     4.8721    -1.5899 C.3     
  11 C11            4.0054     3.7414    -2.3420 C.3     
  12 C12            5.1055     4.7756     0.1078 C.2     
  13 C13            1.7897     4.7633    -1.8048 C.3     
  14 C14            3.7950     6.2208    -2.1167 C.3     
  15 O15            5.6882     3.7495     0.3880 O.2     
  16 N16            5.7933     5.9275    -0.0212 N.am    
  17 C17            7.2530     5.9269     0.1037 C.3     
  18 C18           -1.3427     0.0888     2.7798 C.3     
  19 C19           -2.5598     0.4317     1.9150 C.3     
  20 C20           -3.1670     1.7517     2.3792 C.3     
  21 N21           -2.1314     2.6671     2.8624 N.3     
  22 C22           -1.1824     3.0132     1.7938 C.3     
  23 C23           -2.7281     3.8749     3.4482 C.3     
  24 C24            1.4106    -1.2743     2.2905 C.ar    
  25 C25            2.0963    -2.0416     1.3457 C.ar    
  26 C26            1.0576    -1.8396     3.5161 C.ar    
  27 C27            1.3830    -3.1548     3.7861 C.ar    
  28 C28            2.0591    -3.9123     2.8427 C.ar    
  29 C29            2.4160    -3.3567     1.6282 C.ar    
  30 F30            2.4458    -1.5000     0.1583 F       
  31 F31            1.0418    -3.7037     4.9725 F       
  32 H32            3.6185     2.7219     0.4898 H       
  33 H33            3.1665     5.6063     0.4309 H       
  34 H34            3.6532     2.7805    -1.9667 H       
  35 H35            3.7833     3.8193    -3.4063 H       
  36 H36            5.0818     3.8188    -2.1889 H       
  37 H37            1.2876     5.5689    -1.2690 H       
  38 H38            1.5676     4.8412    -2.8691 H       
  39 H39            1.4375     3.8025    -1.4295 H       
  40 H40            4.8396     6.3589    -1.8379 H       
  41 H41            3.7028     6.2426    -3.2026 H       
  42 H42            3.1947     7.0216    -1.6849 H       
  43 H43            5.3219     6.7568    -0.1968 H       
  44 H44            7.5329     5.5624     1.0920 H       
  45 H45            7.6826     5.2768    -0.6585 H       
  46 H46            7.6294     6.9411    -0.0296 H       
  47 H47           -1.2088    -0.9926     2.8079 H       
  48 H48           -1.4972     0.4643     3.7914 H       
  49 H49           -2.2507     0.5213     0.8736 H       
  50 H50           -3.3030    -0.3606     2.0047 H       
  51 H51           -3.6939     2.2158     1.5454 H       
  52 H52           -3.8753     1.5560     3.1842 H       
  53 H53           -0.7769     4.0086     1.9748 H       
  54 H54           -1.6948     2.9965     0.8318 H       
  55 H55           -3.3660     3.5951     4.2865 H       
  56 H56           -1.9369     4.5375     3.7990 H       
  57 H57           -3.3240     4.3884     2.6936 H       
  58 H58            0.5313    -1.2502     4.2524 H       
  59 H59            2.3118    -4.9398     3.0589 H       
  60 H60            2.9428    -3.9522     0.8972 H       
@<TRIPOS>BOND
   1    1    2 1
   2    1    5 2
   3    1   22 1
   4    2    3 1
   5    2   18 1
   6    3    4 2
   7    3   24 1
   8    4    5 1
   9    5    6 1
  10    6    7 2
  11    6    8 am
  12    8    9 1
  13    8   32 1
  14    9   10 1
  15    9   12 1
  16    9   33 1
  17   10   11 1
  18   10   13 1
  19   10   14 1
  20   11   34 1
  21   11   35 1
  22   11   36 1
  23   12   15 2
  24   12   16 am
  25   13   37 1
  26   13   38 1
  27   13   39 1
  28   14   40 1
  29   14   41 1
  30   14   42 1
  31   16   17 1
  32   16   43 1
  33   17   44 1
  34   17   45 1
  35   17   46 1
  36   18   19 1
  37   18   47 1
  38   18   48 1
  39   19   20 1
  40   19   49 1
  41   19   50 1
  42   20   21 1
  43   20   51 1
  44   20   52 1
  45   21   22 1
  46   21   23 1
  47   22   53 1
  48   22   54 1
  49   23   55 1
  50   23   56 1
  51   23   57 1
  52   24   25 ar
  53   24   26 ar
  54   25   30 1
  55   25   29 ar
  56   26   27 ar
  57   26   58 1
  58   27   28 ar
  59   27   31 1
  60   28   29 ar
  61   28   59 1
  62   29   60 1

#	End of record

