#	Name: ASD03430107
#	Creating user name:	WinNT
#	Creation time:	15. 06. 2019 20:40

#	Modifying user name:	WinNT
#	Modification time:	15. 06. 2019 20:40

#	Program:	/corina/corina34_cracker 3.40 0067  02.08.2006

@<TRIPOS>MOLECULE
ASD03430107
  49   53    0    0    0
SMALL
NO_CHARGES


@<TRIPOS>ATOM
   1 C1             0.0485     1.3745    -0.0593 C.ar    
   2 C2             0.0455    -0.0118    -0.0428 C.ar    
   3 C3             1.2356    -0.7086    -0.0392 C.ar    
   4 C4             2.4521    -0.0326    -0.0421 C.ar    
   5 C5             2.4513     1.3585    -0.0637 C.ar    
   6 C6             1.2578     2.0602    -0.0709 C.ar    
   7 O7             3.5013    -0.9033    -0.0082 O.3     
   8 C8             1.5612    -2.1780    -0.0447 C.3     
   9 C9             3.0498    -2.2080    -0.4189 C.3     
  10 C10            0.4056    -3.8575     1.0332 C.ar    
  11 C11            1.3044    -2.8251     1.2836 C.ar    
  12 C12            0.7244    -2.9440    -1.0287 C.2     
  13 N13            0.0868    -3.9015    -0.3262 N.am    
  14 O14            0.6388    -2.7407    -2.2213 O.2     
  15 C15            1.7628    -2.5879     2.5667 C.ar    
  16 C16            1.3256    -3.3862     3.6177 C.ar    
  17 C17            0.4343    -4.4132     3.3743 C.ar    
  18 C18           -0.0248    -4.6505     2.0946 C.ar    
  19 N19            2.6657    -1.5463     2.8068 N.am    
  20 O20           -1.1354     2.0469    -0.0697 O.3     
  21 C21           -1.0913     3.4331     0.2860 C.3     
  22 C22            0.0755     4.0849    -0.4684 C.3     
  23 O23            1.2846     3.4216    -0.0855 O.3     
  24 C24           -0.8331    -4.8753    -0.9193 C.3     
  25 C25            3.4959    -1.6050     3.8668 C.2     
  26 O26            3.4115    -2.5247     4.6530 O.2     
  27 C27            4.5293    -0.5281     4.0752 C.3     
  28 O28            5.2809    -0.8113     5.2570 O.3     
  29 C29            6.2933     0.1545     5.5475 C.3     
  30 H30           -0.8920    -0.5478    -0.0323 H       
  31 H31            3.3886     1.8949    -0.0746 H       
  32 H32            3.1762    -2.3408    -1.4933 H       
  33 H33            3.5719    -2.9896     0.1330 H       
  34 H34            1.6817    -3.2042     4.6209 H       
  35 H35            0.0946    -5.0339     4.1903 H       
  36 H36           -0.7218    -5.4557     1.9149 H       
  37 H37            2.6940    -0.7819     2.2103 H       
  38 H38           -2.0271     3.9152     0.0032 H       
  39 H39           -0.9358     3.5323     1.3603 H       
  40 H40           -0.0762     3.9787    -1.5426 H       
  41 H41            0.1371     5.1415    -0.2081 H       
  42 H42           -1.8466    -4.4744    -0.9030 H       
  43 H43           -0.5374    -5.0738    -1.9495 H       
  44 H44           -0.7998    -5.8022    -0.3467 H       
  45 H45            5.2001    -0.4972     3.2166 H       
  46 H46            4.0325     0.4362     4.1829 H       
  47 H47            7.0007     0.1995     4.7195 H       
  48 H48            5.8331     1.1328     5.6858 H       
  49 H49            6.8182    -0.1322     6.4587 H       
@<TRIPOS>BOND
   1    1    2 ar
   2    1    6 ar
   3    1   20 1
   4    2    3 ar
   5    2   30 1
   6    3    4 ar
   7    3    8 1
   8    4    5 ar
   9    4    7 1
  10    5    6 ar
  11    5   31 1
  12    6   23 1
  13    7    9 1
  14    8    9 1
  15    8   11 1
  16    8   12 1
  17    9   32 1
  18    9   33 1
  19   10   11 ar
  20   10   13 1
  21   10   18 ar
  22   11   15 ar
  23   12   13 am
  24   12   14 2
  25   13   24 1
  26   15   16 ar
  27   15   19 1
  28   16   17 ar
  29   16   34 1
  30   17   18 ar
  31   17   35 1
  32   18   36 1
  33   19   25 am
  34   19   37 1
  35   20   21 1
  36   21   22 1
  37   21   38 1
  38   21   39 1
  39   22   23 1
  40   22   40 1
  41   22   41 1
  42   24   42 1
  43   24   43 1
  44   24   44 1
  45   25   26 2
  46   25   27 1
  47   27   28 1
  48   27   45 1
  49   27   46 1
  50   28   29 1
  51   29   47 1
  52   29   48 1
  53   29   49 1

#	End of record

