#	Name: ASD07300992
#	Creating user name:	WinNT
#	Creation time:	15. 06. 2019 21:10

#	Modifying user name:	WinNT
#	Modification time:	15. 06. 2019 21:10

#	Program:	/corina/corina34_cracker 3.40 0067  02.08.2006

@<TRIPOS>MOLECULE
ASD07300992
  35   36    0    0    0
SMALL
NO_CHARGES


@<TRIPOS>ATOM
   1 C1            -0.0169     1.4661     0.0585 C.2     
   2 C2             0.0021    -0.0040     0.0010 C.2     
   3 C3             1.2715    -0.6339    -0.0634 C.2     
   4 C4             2.3706     0.1578    -0.0673 C.2     
   5 N5             2.2550     1.5070    -0.0114 N.pl3   
   6 N6             1.1280     2.1149     0.0477 N.2     
   7 O7            -1.0314    -0.6546     0.0087 O.2     
   8 C8             3.4243     2.2747    -0.0184 C.ar    
   9 C9             4.6641     1.6550     0.0712 C.ar    
  10 C10            5.8180     2.4173     0.0640 C.ar    
  11 C11            5.7368     3.7969    -0.0325 C.ar    
  12 C12            4.5034     4.4148    -0.1213 C.ar    
  13 C13            3.3479     3.6580    -0.1208 C.ar    
  14 F14            7.0249     1.8163     0.1515 F       
  15 C15           -1.2981     2.2008     0.1212 C.2     
  16 C16           -1.3010     3.6123     0.1761 C.2     
  17 C17           -2.4729     4.2842     0.2335 C.2     
  18 O18           -2.3517     1.5888     0.1256 O.2     
  19 N19           -2.4757     5.6484     0.2865 N.pl3   
  20 C20           -1.2089     6.3843     0.2813 C.3     
  21 C21           -3.7454     6.3765     0.3486 C.3     
  22 H22            1.3588    -1.7094    -0.1075 H       
  23 H23            3.3514    -0.2918    -0.1153 H       
  24 H24            4.7269     0.5794     0.1468 H       
  25 H25            6.6388     4.3909    -0.0380 H       
  26 H26            4.4434     5.4905    -0.1960 H       
  27 H27            2.3852     4.1418    -0.1954 H       
  28 H28           -0.3671     4.1547     0.1723 H       
  29 H29           -3.4068     3.7418     0.2373 H       
  30 H30           -0.9221     6.6066    -0.7465 H       
  31 H31           -1.3274     7.3156     0.8350 H       
  32 H32           -0.4346     5.7780     0.7515 H       
  33 H33           -4.5722     5.6662     0.3431 H       
  34 H34           -3.7807     6.9680     1.2635 H       
  35 H35           -3.8281     7.0370    -0.5145 H       
@<TRIPOS>BOND
   1    1    2 1
   2    1    6 2
   3    1   15 1
   4    2    3 1
   5    2    7 2
   6    3    4 2
   7    3   22 1
   8    4    5 1
   9    4   23 1
  10    5    6 1
  11    5    8 1
  12    8    9 ar
  13    8   13 ar
  14    9   10 ar
  15    9   24 1
  16   10   11 ar
  17   10   14 1
  18   11   12 ar
  19   11   25 1
  20   12   13 ar
  21   12   26 1
  22   13   27 1
  23   15   16 1
  24   15   18 2
  25   16   17 2
  26   16   28 1
  27   17   19 1
  28   17   29 1
  29   19   20 1
  30   19   21 1
  31   20   30 1
  32   20   31 1
  33   20   32 1
  34   21   33 1
  35   21   34 1
  36   21   35 1

#	End of record

