#	Name: ASD01870380
#	Creating user name:	WinNT
#	Creation time:	15. 06. 2019 19:39

#	Modifying user name:	WinNT
#	Modification time:	15. 06. 2019 19:39

#	Program:	/corina/corina34_cracker 3.40 0067  02.08.2006

@<TRIPOS>MOLECULE
ASD01870380
  54   56    0    0    0
SMALL
NO_CHARGES


@<TRIPOS>ATOM
   1 N1             1.2797     2.1256     1.4284 N.am    
   2 C2             1.5086     0.7161     1.7808 C.3     
   3 C3             2.3112     2.9409     1.1320 C.2     
   4 C4             2.0539     4.3818     0.7736 C.3     
   5 O5             3.4465     2.5148     1.1537 O.2     
   6 C6             3.3323     5.1808     0.4618 C.3     
   7 N7             2.5703     5.7714    -0.6556 N.am    
   8 C8             1.6798     4.5956    -0.7043 C.3     
   9 S9             2.6732     7.1856    -1.5111 S.o2    
  10 C10            3.7506     6.7878    -2.9152 C.3     
  11 O11            1.3444     7.4247    -1.9541 O.2     
  12 O12            3.3226     8.0856    -0.6236 O.2     
  13 C13            0.7743     0.4168     3.0921 C.3     
  14 N14           -0.6369     0.8024     2.9584 N.3     
  15 C15           -0.7755     2.2475     2.7340 C.3     
  16 C16           -0.1052     2.6203     1.4021 C.3     
  17 C17            5.0855     6.2489    -2.3972 C.3     
  18 C18           -1.3720     0.3972     4.0685 C.ar    
  19 C19           -2.7391     0.6593     4.1559 C.ar    
  20 C20           -0.7619    -0.2865     5.1200 C.ar    
  21 C21           -1.5255    -0.6705     6.2020 C.ar    
  22 N22           -2.8163    -0.3988     6.2499 N.ar    
  23 C23           -3.4313     0.2411     5.2728 C.ar    
  24 C24            3.0778     5.7281    -3.7901 C.3     
  25 C25            1.8259     6.3222    -4.4389 C.3     
  26 C26            5.8156     7.3505    -1.6263 C.3     
  27 H27            1.1221     0.0735     0.9898 H       
  28 H28            2.5764     0.5399     1.9107 H       
  29 H29            1.3843     4.8809     1.4741 H       
  30 H30            3.6022     5.8979     1.2370 H       
  31 H31            4.1706     4.5614     0.1430 H       
  32 H32            2.0327     3.8043    -1.3658 H       
  33 H33            0.6303     4.8455    -0.8602 H       
  34 H34            3.9262     7.6876    -3.5048 H       
  35 H35            0.8410    -0.6489     3.3112 H       
  36 H36            1.2312     0.9845     3.9027 H       
  37 H37           -1.8328     2.5095     2.6935 H       
  38 H38           -0.2970     2.7897     3.5496 H       
  39 H39           -0.1031     3.7039     1.2839 H       
  40 H40           -0.6490     2.1602     0.5771 H       
  41 H41            4.9033     5.4020    -1.7356 H       
  42 H42            5.6987     5.9270    -3.2390 H       
  43 H43           -3.2483     1.1827     3.3602 H       
  44 H44            0.2938    -0.5123     5.0870 H       
  45 H45           -1.0616    -1.2007     7.0206 H       
  46 H46           -4.4892     0.4438     5.3512 H       
  47 H47            3.7708     5.4046    -4.5667 H       
  48 H48            2.7972     4.8735    -3.1745 H       
  49 H49            1.4263     5.6184    -5.1690 H       
  50 H50            1.0759     6.5150    -3.6719 H       
  51 H51            2.0838     7.2563    -4.9379 H       
  52 H52            5.2024     7.6724    -0.7845 H       
  53 H53            6.7666     6.9666    -1.2572 H       
  54 H54            5.9978     8.1974    -2.2879 H       
@<TRIPOS>BOND
   1    1    2 1
   2    1    3 am
   3    1   16 1
   4    2   13 1
   5    2   27 1
   6    2   28 1
   7    3    4 1
   8    3    5 2
   9    4    6 1
  10    4    8 1
  11    4   29 1
  12    6    7 1
  13    6   30 1
  14    6   31 1
  15    7    8 1
  16    7    9 am
  17    8   32 1
  18    8   33 1
  19    9   10 1
  20    9   11 2
  21    9   12 2
  22   10   24 1
  23   10   17 1
  24   10   34 1
  25   13   14 1
  26   13   35 1
  27   13   36 1
  28   14   15 1
  29   14   18 1
  30   15   16 1
  31   15   37 1
  32   15   38 1
  33   16   39 1
  34   16   40 1
  35   17   26 1
  36   17   41 1
  37   17   42 1
  38   18   19 ar
  39   18   20 ar
  40   19   23 ar
  41   19   43 1
  42   20   21 ar
  43   20   44 1
  44   21   22 ar
  45   21   45 1
  46   22   23 ar
  47   23   46 1
  48   24   25 1
  49   24   47 1
  50   24   48 1
  51   25   49 1
  52   25   50 1
  53   25   51 1
  54   26   52 1
  55   26   53 1
  56   26   54 1

#	End of record

