#	Name: ASD07480029
#	Creating user name:	WinNT
#	Creation time:	15. 06. 2019 21:11

#	Modifying user name:	WinNT
#	Modification time:	15. 06. 2019 21:11

#	Program:	/corina/corina34_cracker 3.40 0067  02.08.2006

@<TRIPOS>MOLECULE
ASD07480029
  46   48    0    0    0
SMALL
NO_CHARGES


@<TRIPOS>ATOM
   1 N1            -0.2480     1.0449     0.3598 N.am    
   2 C2            -0.8824    -0.2582     0.1455 C.3     
   3 C3            -1.1032    -0.9459     1.4942 C.3     
   4 C4            -2.2293    -0.0609    -0.5530 C.3     
   5 C5             1.0126     1.2588    -0.0662 C.2     
   6 N6             1.7218     0.2484    -0.6071 N.am    
   7 O7             1.5102     2.3634     0.0375 O.2     
   8 C8             3.0741     0.4337    -0.9269 C.ar    
   9 C9             3.9554    -0.6374    -0.8637 C.ar    
  10 C10            3.5307     1.6871    -1.3124 C.ar    
  11 C11            4.8620     1.8699    -1.6284 C.ar    
  12 C12            5.7453     0.7996    -1.5601 C.ar    
  13 C13            5.2872    -0.4553    -1.1785 C.ar    
  14 C14           -0.9861     2.1172     1.0317 C.3     
  15 C15           -1.7559     2.9139     0.0099 C.2     
  16 N16           -2.8584     2.5476    -0.5788 N.2     
  17 C17           -1.4041     4.2369    -0.4933 C.ar    
  18 C18           -2.4016     4.5881    -1.4245 C.ar    
  19 N19           -3.2836     3.5428    -1.4643 N.pl3   
  20 C20           -0.3570     5.1314    -0.2415 C.ar    
  21 C21           -0.3473     6.3225    -0.9186 C.ar    
  22 C22           -1.3612     6.6064    -1.8231 C.ar    
  23 N23           -2.3388     5.7569    -2.0510 N.ar    
  24 S24            7.4446     1.0322    -1.9639 S.3     
  25 C25            8.1512    -0.6211    -1.7231 C.3     
  26 F26            7.5151    -1.5289    -2.5767 F       
  27 F27            9.5197    -0.5899    -2.0118 F       
  28 F28            7.9637    -1.0196    -0.3953 F       
  29 H29           -0.2376    -0.8782    -0.4773 H       
  30 H30           -1.8222    -0.3737     2.0804 H       
  31 H31           -1.4874    -1.9527     1.3301 H       
  32 H32           -0.1573    -1.0013     2.0330 H       
  33 H33           -2.0721     0.4290    -1.5139 H       
  34 H34           -2.7013    -1.0304    -0.7124 H       
  35 H35           -2.8742     0.5591     0.0698 H       
  36 H36            1.2965    -0.6071    -0.7750 H       
  37 H37            3.5991    -1.6130    -0.5677 H       
  38 H38            2.8440     2.5190    -1.3655 H       
  39 H39            5.2169     2.8447    -1.9289 H       
  40 H40            5.9735    -1.2875    -1.1250 H       
  41 H41           -1.6797     1.6845     1.7527 H       
  42 H42           -0.2850     2.7717     1.5496 H       
  43 H43           -4.0780     3.4989    -2.0193 H       
  44 H44            0.4213     4.8894     0.4671 H       
  45 H45            0.4448     7.0368    -0.7492 H       
  46 H46           -1.3465     7.5474    -2.3529 H       
@<TRIPOS>BOND
   1    1    2 1
   2    1    5 am
   3    1   14 1
   4    2    3 1
   5    2    4 1
   6    2   29 1
   7    3   30 1
   8    3   31 1
   9    3   32 1
  10    4   33 1
  11    4   34 1
  12    4   35 1
  13    5    6 am
  14    5    7 2
  15    6    8 1
  16    6   36 1
  17    8    9 ar
  18    8   10 ar
  19    9   13 ar
  20    9   37 1
  21   10   11 ar
  22   10   38 1
  23   11   12 ar
  24   11   39 1
  25   12   13 ar
  26   12   24 1
  27   13   40 1
  28   14   15 1
  29   14   41 1
  30   14   42 1
  31   15   16 2
  32   15   17 1
  33   16   19 1
  34   17   18 ar
  35   17   20 ar
  36   18   19 1
  37   18   23 ar
  38   19   43 1
  39   20   21 ar
  40   20   44 1
  41   21   22 ar
  42   21   45 1
  43   22   23 ar
  44   22   46 1
  45   24   25 1
  46   25   26 1
  47   25   27 1
  48   25   28 1

#	End of record

