#	Name: ASD07300511
#	Creating user name:	WinNT
#	Creation time:	15. 06. 2019 21:09

#	Modifying user name:	WinNT
#	Modification time:	15. 06. 2019 21:09

#	Program:	/corina/corina34_cracker 3.40 0067  02.08.2006

@<TRIPOS>MOLECULE
ASD07300511
  43   48    0    0    0
SMALL
NO_CHARGES


@<TRIPOS>ATOM
   1 C1            -0.0158     1.3127     0.0093 C.2     
   2 N2             0.0021    -0.0041     0.0020 N.2     
   3 C3             1.2853    -0.4491    -0.0126 C.ar    
   4 C4             2.1167     0.6808    -0.0145 C.ar    
   5 N5             1.2676     1.7868    -0.0004 N.am    
   6 C6             1.8585    -1.7229    -0.0249 C.ar    
   7 C7             3.2299    -1.8555    -0.0387 C.ar    
   8 C8             4.0453    -0.7347    -0.0405 C.ar    
   9 C9             3.4928     0.5312    -0.0284 C.ar    
  10 N10           -0.9267     2.3546     0.0285 N.pl3   
  11 C11           -0.1447     3.5993     0.0240 C.3     
  12 C12            1.2948     3.1366     0.0069 C.2     
  13 O13            2.2814     3.8407     0.0021 O.2     
  14 C14           -2.3218     2.2445     0.0481 C.ar    
  15 C15           -3.1088     3.3889     0.0662 C.ar    
  16 C16           -4.4848     3.2800     0.0850 C.ar    
  17 C17           -5.0822     2.0267     0.0858 C.ar    
  18 C18           -4.2958     0.8825     0.0677 C.ar    
  19 C19           -2.9198     0.9909     0.0436 C.ar    
  20 C20           -7.2013     0.7275     0.1084 C.ar    
  21 C21           -8.5542     1.0802     0.1310 C.ar    
  22 C22           -9.5169     0.0820     0.1436 C.ar    
  23 C23           -9.0927    -1.2389     0.1331 C.ar    
  24 C24           -7.7386    -1.5152     0.1107 C.ar    
  25 N25           -6.8439    -0.5461     0.0995 N.ar    
  26 C26           -7.3501     2.9436     0.1252 C.2     
  27 N27           -6.4806     1.9163     0.1054 N.am    
  28 N28           -8.6110     2.4707     0.1359 N.am    
  29 O29           -7.0434     4.1211     0.1283 O.2     
  30 H30            1.2291    -2.6006    -0.0233 H       
  31 H31            3.6729    -2.8404    -0.0479 H       
  32 H32            5.1189    -0.8518    -0.0510 H       
  33 H33            4.1324     1.4015    -0.0302 H       
  34 H34           -0.3705     4.1879    -0.8652 H       
  35 H35           -0.3441     4.1779     0.9259 H       
  36 H36           -2.6441     4.3639     0.0659 H       
  37 H37           -5.0967     4.1698     0.0994 H       
  38 H38           -4.7608    -0.0923     0.0688 H       
  39 H39           -2.3082     0.1009     0.0254 H       
  40 H40          -10.5688     0.3263     0.1615 H       
  41 H41           -9.8133    -2.0433     0.1428 H       
  42 H42           -7.4071    -2.5430     0.1029 H       
  43 H43           -9.4193     3.0068     0.1498 H       
@<TRIPOS>BOND
   1    1    2 2
   2    1    5 1
   3    1   10 1
   4    2    3 1
   5    3    4 ar
   6    3    6 ar
   7    4    5 1
   8    4    9 ar
   9    5   12 am
  10    6    7 ar
  11    6   30 1
  12    7    8 ar
  13    7   31 1
  14    8    9 ar
  15    8   32 1
  16    9   33 1
  17   10   11 1
  18   10   14 1
  19   11   12 1
  20   11   34 1
  21   11   35 1
  22   12   13 2
  23   14   15 ar
  24   14   19 ar
  25   15   16 ar
  26   15   36 1
  27   16   17 ar
  28   16   37 1
  29   17   18 ar
  30   17   27 1
  31   18   19 ar
  32   18   38 1
  33   19   39 1
  34   20   21 ar
  35   20   25 ar
  36   20   27 1
  37   21   22 ar
  38   21   28 1
  39   22   23 ar
  40   22   40 1
  41   23   24 ar
  42   23   41 1
  43   24   25 ar
  44   24   42 1
  45   26   27 am
  46   26   28 am
  47   26   29 2
  48   28   43 1

#	End of record

