#	Name: ASD01150061
#	Creating user name:	WinNT
#	Creation time:	15. 06. 2019 19:03

#	Modifying user name:	WinNT
#	Modification time:	15. 06. 2019 19:03

#	Program:	/corina/corina34_cracker 3.40 0067  02.08.2006

@<TRIPOS>MOLECULE
ASD01150061
  26   26    0    0    0
SMALL
NO_CHARGES


@<TRIPOS>ATOM
   1 C1            -0.0168     1.3845     0.0097 C.2     
   2 C2             0.0021    -0.0041     0.0020 C.2     
   3 N3            -1.2696    -0.4207     0.0119 N.2     
   4 C4            -2.0752     0.6089     0.0251 C.2     
   5 N5            -1.3581     1.7463     0.0305 N.pl3   
   6 C6            -1.8911     3.1108     0.0454 C.3     
   7 C7             1.0996     2.2517     0.0037 C.2     
   8 O8             2.2269     1.7926    -0.0100 O.2     
   9 O9             0.9155     3.5890     0.0131 O.3     
  10 C10            2.0883     4.4054     0.0062 C.3     
  11 N11            1.1306    -0.8103    -0.0135 N.pl3   
  12 C12           -3.5802     0.5324     0.0383 C.3     
  13 C13           -4.0765     0.4988     1.4851 C.3     
  14 H14           -2.0171     3.4405     1.0767 H       
  15 H15           -1.1974     3.7774    -0.4670 H       
  16 H16           -2.8554     3.1298    -0.4625 H       
  17 H17            1.7994     5.4564     0.0151 H       
  18 H18            2.6887     4.1862     0.8891 H       
  19 H19            2.6713     4.1963    -0.8907 H       
  20 H20            2.0135    -0.4087    -0.0201 H       
  21 H21            1.0369    -1.7757    -0.0177 H       
  22 H22           -3.9928     1.4055    -0.4672 H       
  23 H23           -3.9025    -0.3722    -0.4775 H       
  24 H24           -3.6639    -0.3744     1.9906 H       
  25 H25           -3.7542     1.4033     2.0009 H       
  26 H26           -5.1651     0.4434     1.4946 H       
@<TRIPOS>BOND
   1    1    2 2
   2    1    7 1
   3    1    5 1
   4    2    3 1
   5    2   11 1
   6    3    4 2
   7    4    5 1
   8    4   12 1
   9    5    6 1
  10    6   14 1
  11    6   15 1
  12    6   16 1
  13    7    8 2
  14    7    9 1
  15    9   10 1
  16   10   17 1
  17   10   18 1
  18   10   19 1
  19   11   20 1
  20   11   21 1
  21   12   13 1
  22   12   22 1
  23   12   23 1
  24   13   24 1
  25   13   25 1
  26   13   26 1

#	End of record

