#	Name: ASD02198124
#	Creating user name:	WinNT
#	Creation time:	15. 06. 2019 20:18

#	Modifying user name:	WinNT
#	Modification time:	15. 06. 2019 20:18

#	Program:	/corina/corina34_cracker 3.40 0067  02.08.2006

@<TRIPOS>MOLECULE
ASD02198124
  39   41    0    0    0
SMALL
NO_CHARGES


@<TRIPOS>ATOM
   1 C1            -0.0182     1.3432    -0.2948 C.2     
   2 C2             0.0099    -0.0351    -0.2555 C.2     
   3 C3            -1.1721    -0.8417    -0.3078 C.1     
   4 S4             1.5587     1.9863    -0.2139 S.3     
   5 C5             2.2777     0.3863    -0.1255 C.2     
   6 C6             1.2919    -0.5719    -0.1609 C.2     
   7 C7             3.6574     0.1239    -0.0326 C.2     
   8 C8             4.6310     1.2328    -0.1476 C.ar    
   9 O9             4.0506    -1.0169     0.1426 O.2     
  10 N10            1.5478    -1.9330    -0.1074 N.pl3   
  11 N11           -1.1638     2.0973    -0.3921 N.pl3   
  12 N12           -2.1098    -1.4816    -0.3493 N.1     
  13 C13            5.8542     1.1629     0.5197 C.ar    
  14 C14           -1.0776     3.5594    -0.4260 C.3     
  15 C15           -2.3108     4.1437    -1.1372 C.3     
  16 C16            6.7581     2.1997     0.4089 C.ar    
  17 C17            6.4538     3.3074    -0.3614 C.ar    
  18 C18            5.2412     3.3837    -1.0262 C.ar    
  19 C19            4.3315     2.3498    -0.9285 C.ar    
  20 Cl20           4.8676     4.7785    -1.9899 Cl      
  21 C21           -3.0283     5.0418    -0.1085 C.3     
  22 C22           -1.9175     5.4268     0.8999 C.3     
  23 C23           -1.0889     4.1228     1.0100 C.3     
  24 H24            2.4613    -2.2525    -0.0414 H       
  25 H25            0.8134    -2.5660    -0.1361 H       
  26 H26           -2.0290     1.6612    -0.4384 H       
  27 H27            6.0931     0.2990     1.1222 H       
  28 H28           -0.1682     3.8677    -0.9418 H       
  29 H29           -1.9997     4.7363    -1.9975 H       
  30 H30           -2.9733     3.3394    -1.4571 H       
  31 H31            7.7052     2.1462     0.9252 H       
  32 H32            7.1645     4.1163    -0.4446 H       
  33 H33            3.3860     2.4099    -1.4472 H       
  34 H34           -3.4289     5.9322    -0.5931 H       
  35 H35           -3.8230     4.4887     0.3922 H       
  36 H36           -1.3066     6.2408     0.5096 H       
  37 H37           -2.3476     5.6938     1.8652 H       
  38 H38           -1.5704     3.4213     1.6913 H       
  39 H39           -0.0741     4.3425     1.3416 H       
@<TRIPOS>BOND
   1    1    2 2
   2    1    4 1
   3    1   11 1
   4    2    3 1
   5    2    6 1
   6    3   12 3
   7    4    5 1
   8    5    6 2
   9    5    7 1
  10    6   10 1
  11    7    8 1
  12    7    9 2
  13    8   13 ar
  14    8   19 ar
  15   10   24 1
  16   10   25 1
  17   11   14 1
  18   11   26 1
  19   13   16 ar
  20   13   27 1
  21   14   15 1
  22   14   23 1
  23   14   28 1
  24   15   21 1
  25   15   29 1
  26   15   30 1
  27   16   17 ar
  28   16   31 1
  29   17   18 ar
  30   17   32 1
  31   18   19 ar
  32   18   20 1
  33   19   33 1
  34   21   22 1
  35   21   34 1
  36   21   35 1
  37   22   23 1
  38   22   36 1
  39   22   37 1
  40   23   38 1
  41   23   39 1

#	End of record

