#	Name: ASD01912480
#	Creating user name:	WinNT
#	Creation time:	15. 06. 2019 19:59

#	Modifying user name:	WinNT
#	Modification time:	15. 06. 2019 19:59

#	Program:	/corina/corina34_cracker 3.40 0067  02.08.2006

@<TRIPOS>MOLECULE
ASD01912480
  69   72    0    0    0
SMALL
NO_CHARGES


@<TRIPOS>ATOM
   1 C1            -0.0166     1.3762     0.0096 C.ar    
   2 C2             0.0021    -0.0041     0.0020 C.ar    
   3 C3            -1.1962    -0.7144     0.0096 C.ar    
   4 C4            -2.4080    -0.0265     0.0249 C.ar    
   5 C5            -2.4151     1.3534     0.0324 C.ar    
   6 C6            -1.2221     2.0538     0.0305 C.ar    
   7 C7            -1.1823    -2.1985     0.0010 C.2     
   8 N8            -0.1108    -2.9628    -0.0133 N.2     
   9 C9            -2.3133    -3.0378     0.0129 C.2     
  10 C10           -1.8797    -4.3171    -0.0007 C.2     
  11 N11           -0.5295    -4.2995    -0.0170 N.pl3   
  12 C12           -2.7497    -5.5476     0.0059 C.3     
  13 C13            0.3454    -5.4743    -0.0350 C.3     
  14 C14            0.6281    -5.8683    -1.4619 C.2     
  15 N15            1.4165    -6.9294    -1.7244 N.am    
  16 O16            0.1462    -5.2305    -2.3739 O.2     
  17 C17            1.7052    -7.3311    -3.1095 C.3     
  18 C18            2.0159    -7.7128    -0.6334 C.3     
  19 C19            3.5205    -7.8399    -0.8951 C.3     
  20 N20            3.7356    -8.3850    -2.2421 N.3     
  21 C21            3.2226    -7.4740    -3.2687 C.3     
  22 C22            5.0763    -8.6666    -2.4558 C.ar    
  23 N23            5.4523    -9.1672    -3.6228 N.ar    
  24 N24            5.9486    -8.4231    -1.4897 N.ar    
  25 C25            7.2355    -8.6794    -1.6586 C.ar    
  26 C26            7.6666    -9.2107    -2.8688 C.ar    
  27 C27            6.7229    -9.4479    -3.8616 C.ar    
  28 C28           -1.2362     3.5607     0.0392 C.3     
  29 C29           -3.1682    -5.8840    -1.4268 C.3     
  30 C30           -4.0514    -7.1333    -1.4202 C.3     
  31 O31           -4.4423    -7.4474    -2.7583 O.3     
  32 C32           -5.2744    -8.6043    -2.8643 C.3     
  33 C33            1.2789     2.1461     0.0014 C.3     
  34 O34            8.9819    -9.4870    -3.0784 O.3     
  35 C35            9.3356   -10.0311    -4.3516 C.3     
  36 H36            0.9440    -0.5323    -0.0102 H       
  37 H37           -3.3399    -0.5724     0.0305 H       
  38 H38           -3.3537     1.8876     0.0439 H       
  39 H39           -3.3441    -2.7158     0.0304 H       
  40 H40           -2.1926    -6.3842     0.4276 H       
  41 H41           -3.6379    -5.3614     0.6096 H       
  42 H42            1.2824    -5.2373     0.4689 H       
  43 H43           -0.1451    -6.3005     0.4797 H       
  44 H44            1.2233    -8.2854    -3.3221 H       
  45 H45            1.3351    -6.5698    -3.7962 H       
  46 H46            1.8511    -7.2038     0.3162 H       
  47 H47            1.5644    -8.7045    -0.6037 H       
  48 H48            3.9867    -6.8574    -0.8215 H       
  49 H49            3.9628    -8.5090    -0.1570 H       
  50 H50            3.4441    -7.8775    -4.2567 H       
  51 H51            3.6966    -6.4986    -3.1592 H       
  52 H52            7.9420    -8.4782    -0.8669 H       
  53 H53            7.0225    -9.8598    -4.8139 H       
  54 H54           -1.2345     3.9182     1.0689 H       
  55 H55           -0.3522     3.9353    -0.4769 H       
  56 H56           -2.1320     3.9186    -0.4682 H       
  57 H57           -3.7253    -5.0474    -1.8485 H       
  58 H58           -2.2800    -6.0702    -2.0306 H       
  59 H59           -3.4943    -7.9699    -0.9985 H       
  60 H60           -4.9396    -6.9471    -0.8164 H       
  61 H61           -5.5272    -8.7754    -3.9107 H       
  62 H62           -4.7426    -9.4715    -2.4726 H       
  63 H63           -6.1880    -8.4486    -2.2905 H       
  64 H64            1.5814     2.3372    -1.0282 H       
  65 H65            1.1415     3.0940     0.5216 H       
  66 H66            2.0507     1.5638     0.5047 H       
  67 H67            8.8106   -10.9744    -4.5021 H       
  68 H68            9.0548    -9.3296    -5.1372 H       
  69 H69           10.4112   -10.2043    -4.3866 H       
@<TRIPOS>BOND
   1    1    2 ar
   2    1   33 1
   3    1    6 ar
   4    2    3 ar
   5    2   36 1
   6    3    4 ar
   7    3    7 1
   8    4    5 ar
   9    4   37 1
  10    5    6 ar
  11    5   38 1
  12    6   28 1
  13    7    8 2
  14    7    9 1
  15    8   11 1
  16    9   10 2
  17    9   39 1
  18   10   11 1
  19   10   12 1
  20   11   13 1
  21   12   29 1
  22   12   40 1
  23   12   41 1
  24   13   14 1
  25   13   42 1
  26   13   43 1
  27   14   15 am
  28   14   16 2
  29   15   17 1
  30   15   18 1
  31   17   21 1
  32   17   44 1
  33   17   45 1
  34   18   19 1
  35   18   46 1
  36   18   47 1
  37   19   20 1
  38   19   48 1
  39   19   49 1
  40   20   21 1
  41   20   22 1
  42   21   50 1
  43   21   51 1
  44   22   23 ar
  45   22   24 ar
  46   23   27 ar
  47   24   25 ar
  48   25   26 ar
  49   25   52 1
  50   26   27 ar
  51   26   34 1
  52   27   53 1
  53   28   54 1
  54   28   55 1
  55   28   56 1
  56   29   30 1
  57   29   57 1
  58   29   58 1
  59   30   31 1
  60   30   59 1
  61   30   60 1
  62   31   32 1
  63   32   61 1
  64   32   62 1
  65   32   63 1
  66   33   64 1
  67   33   65 1
  68   33   66 1
  69   34   35 1
  70   35   67 1
  71   35   68 1
  72   35   69 1

#	End of record

