#	Name: ASD00170301
#	Creating user name:	WinNT
#	Creation time:	15. 06. 2019 18:31

#	Modifying user name:	WinNT
#	Modification time:	15. 06. 2019 18:31

#	Program:	/corina/corina34_cracker 3.40 0067  02.08.2006

@<TRIPOS>MOLECULE
ASD00170301
  32   34    0    0    0
SMALL
NO_CHARGES


@<TRIPOS>ATOM
   1 S1             0.1570     1.6246     0.6732 S.3     
   2 N2            -0.1177     0.3147    -0.3760 N.pl3   
   3 C3             1.1099    -0.1392    -0.7261 C.2     
   4 N4             2.1486     0.4590    -0.2377 N.2     
   5 C5             1.9242     1.4949     0.5876 C.2     
   6 N6             2.8179     2.2474     1.1978 N.2     
   7 C7            -1.3525    -0.1886    -0.7907 C.ar    
   8 C8             1.2593    -1.2895    -1.6430 C.ar    
   9 C9             4.2470     1.9887     1.0057 C.3     
  10 C10           -2.2252     0.6158    -1.5126 C.ar    
  11 C11           -3.4466     0.1140    -1.9214 C.ar    
  12 C12           -3.7997    -1.1879    -1.6119 C.ar    
  13 C13           -2.9328    -1.9905    -0.8929 C.ar    
  14 C14           -1.7086    -1.4974    -0.4870 C.ar    
  15 C15            0.2908    -1.5405    -2.6158 C.ar    
  16 C16            0.4356    -2.6156    -3.4686 C.ar    
  17 C17            1.5378    -3.4443    -3.3613 C.ar    
  18 C18            2.5027    -3.2015    -2.3979 C.ar    
  19 C19            2.3725    -2.1254    -1.5428 C.ar    
  20 Cl20          -4.5388     1.1179    -2.8231 Cl      
  21 Cl21           3.8821    -4.2478    -2.2702 Cl      
  22 H22            4.4815     0.9780     1.3398 H       
  23 H23            4.4957     2.0890    -0.0508 H       
  24 H24            4.8273     2.7068     1.5852 H       
  25 H25           -1.9499     1.6319    -1.7539 H       
  26 H26           -4.7546    -1.5778    -1.9323 H       
  27 H27           -3.2118    -3.0057    -0.6526 H       
  28 H28           -1.0323    -2.1252     0.0741 H       
  29 H29           -0.5706    -0.8948    -2.7007 H       
  30 H30           -0.3138    -2.8107    -4.2215 H       
  31 H31            1.6463    -4.2843    -4.0313 H       
  32 H32            3.1255    -1.9364    -0.7920 H       
@<TRIPOS>BOND
   1    1    2 1
   2    1    5 1
   3    2    3 1
   4    2    7 1
   5    3    4 2
   6    3    8 1
   7    4    5 1
   8    5    6 2
   9    6    9 1
  10    7   10 ar
  11    7   14 ar
  12    8   15 ar
  13    8   19 ar
  14    9   22 1
  15    9   23 1
  16    9   24 1
  17   10   11 ar
  18   10   25 1
  19   11   12 ar
  20   11   20 1
  21   12   13 ar
  22   12   26 1
  23   13   14 ar
  24   13   27 1
  25   14   28 1
  26   15   16 ar
  27   15   29 1
  28   16   17 ar
  29   16   30 1
  30   17   18 ar
  31   17   31 1
  32   18   19 ar
  33   18   21 1
  34   19   32 1

#	End of record

