#	Name: ASD01122001
#	Creating user name:	WinNT
#	Creation time:	15. 06. 2019 18:59

#	Modifying user name:	WinNT
#	Modification time:	15. 06. 2019 18:59

#	Program:	/corina/corina34_cracker 3.40 0067  02.08.2006

@<TRIPOS>MOLECULE
ASD01122001
  22   23    0    0    0
SMALL
NO_CHARGES


@<TRIPOS>ATOM
   1 C1            -0.0218     1.7565     0.0117 C.2     
   2 S2             0.0021    -0.0041     0.0020 S.3     
   3 C3            -1.7595    -0.0320     0.0187 C.2     
   4 C4            -2.2023     1.2393     0.0297 C.2     
   5 N5            -1.2498     2.1727     0.0313 N.2     
   6 N6             1.0985     2.5713     0.0054 N.pl3   
   7 C7            -3.6411     1.5764     0.0453 C.2     
   8 C8            -4.1668     2.8303     0.0570 C.2     
   9 C9            -5.5692     2.6827     0.0696 C.2     
  10 C10           -5.8268     1.3609     0.0650 C.2     
  11 O11           -4.6593     0.6950     0.0444 O.3     
  12 P12           -7.4756     0.6048     0.0767 P.3     
  13 O13           -8.1819     0.9419    -1.1795 O.2     
  14 O14           -7.3319    -0.9941     0.1990 O.3     
  15 O15           -8.3144     1.1658     1.3312 O.3     
  16 H16           -2.3781    -0.9173     0.0193 H       
  17 H17            1.9848     2.1772    -0.0056 H       
  18 H18            0.9967     3.5359     0.0119 H       
  19 H19           -3.6166     3.7596     0.0571 H       
  20 H20           -6.2986     3.4790     0.0811 H       
  21 H21           -8.1764    -1.4651     0.2112 H       
  22 H22           -7.9095     0.9805     2.1896 H       
@<TRIPOS>BOND
   1    1    2 1
   2    1    6 1
   3    1    5 2
   4    2    3 1
   5    3    4 2
   6    3   16 1
   7    4    5 1
   8    4    7 1
   9    6   17 1
  10    6   18 1
  11    7    8 2
  12    7   11 1
  13    8    9 1
  14    8   19 1
  15    9   10 2
  16    9   20 1
  17   10   11 1
  18   10   12 1
  19   12   13 2
  20   12   14 1
  21   12   15 1
  22   14   21 1
  23   15   22 1

#	End of record

