#	Name: ASD02690068
#	Creating user name:	WinNT
#	Creation time:	15. 06. 2019 20:26

#	Modifying user name:	WinNT
#	Modification time:	15. 06. 2019 20:26

#	Program:	/corina/corina34_cracker 3.40 0067  02.08.2006

@<TRIPOS>MOLECULE
ASD02690068
  53   56    0    0    0
SMALL
NO_CHARGES


@<TRIPOS>ATOM
   1 C1            -0.0321     1.1787    -0.0402 C.2     
   2 O2            -0.0088    -0.0338     0.0236 O.2     
   3 N3             2.4496     1.3744    -0.1360 N.pl3   
   4 C4             1.1775     1.9056    -0.1205 C.2     
   5 C5             1.3029     3.2820    -0.1985 C.2     
   6 C6             2.6688     3.5630    -0.2608 C.2     
   7 C7             3.3392     2.3846    -0.2209 C.2     
   8 C8             2.7805    -0.0510    -0.0656 C.3     
   9 N9            -4.0827     2.0928     0.8777 N.3     
  10 C10           -3.7948     1.7059    -0.5093 C.3     
  11 C11           -2.4485     0.9807    -0.5691 C.3     
  12 C12           -1.3509     1.9079    -0.0398 C.3     
  13 C13           -1.6993     2.3348     1.3888 C.3     
  14 C14           -3.0673     3.0207     1.3918 C.3     
  15 C15           -6.4479     1.7284     0.3532 C.3     
  16 C16           -5.4292     2.6681     0.9951 C.3     
  17 C17           -5.7921     2.8355     2.4755 C.3     
  18 C18           -7.0815     3.6492     2.5658 C.3     
  19 C19           -8.1427     3.0611     1.6732 C.ar    
  20 C20           -9.4672     3.4361     1.9039 C.ar    
  21 C21          -10.4870     2.9314     1.1123 C.ar    
  22 C22          -10.1879     2.0525     0.0894 C.ar    
  23 C23           -8.8783     1.6813    -0.1362 C.ar    
  24 C24           -7.8521     2.1826     0.6558 C.ar    
  25 O25           -5.9903     1.5516     3.0707 O.3     
  26 N26           -9.7669     4.3250     2.9388 N.pl3   
  27 H27            0.4974     4.0014    -0.2095 H       
  28 H28            3.1132     4.5450    -0.3291 H       
  29 H29            4.4130     2.2731    -0.2515 H       
  30 H30            2.8253    -0.4638    -1.0734 H       
  31 H31            3.7476    -0.1759     0.4215 H       
  32 H32            2.0149    -0.5739     0.5075 H       
  33 H33           -4.5806     1.0434    -0.8721 H       
  34 H34           -3.7549     2.5980    -1.1343 H       
  35 H35           -2.4922     0.0811     0.0447 H       
  36 H36           -2.2278     0.7076    -1.6010 H       
  37 H37           -1.2799     2.7893    -0.6772 H       
  38 H38           -1.7312     1.4564     2.0335 H       
  39 H39           -0.9433     3.0290     1.7558 H       
  40 H40           -3.0308     3.9067     0.7579 H       
  41 H41           -3.3247     3.3131     2.4098 H       
  42 H42           -6.2979     1.7191    -0.7264 H       
  43 H43           -6.3040     0.7212     0.7442 H       
  44 H44           -5.4591     3.6373     0.4973 H       
  45 H45           -4.9894     3.3608     2.9931 H       
  46 H46           -7.4367     3.6466     3.5963 H       
  47 H47           -6.8812     4.6754     2.2579 H       
  48 H48          -11.5106     3.2236     1.2945 H       
  49 H49          -10.9774     1.6564    -0.5320 H       
  50 H50           -8.6482     0.9935    -0.9364 H       
  51 H51           -6.2231     1.5847     4.0087 H       
  52 H52           -9.0556     4.6797     3.4947 H       
  53 H53          -10.6864     4.5876     3.1016 H       
@<TRIPOS>BOND
   1    1    2 2
   2    1    4 1
   3    1   12 1
   4    3    4 1
   5    3    7 1
   6    3    8 1
   7    4    5 2
   8    5    6 1
   9    5   27 1
  10    6    7 2
  11    6   28 1
  12    7   29 1
  13    8   30 1
  14    8   31 1
  15    8   32 1
  16    9   10 1
  17    9   14 1
  18    9   16 1
  19   10   11 1
  20   10   33 1
  21   10   34 1
  22   11   12 1
  23   11   35 1
  24   11   36 1
  25   12   13 1
  26   12   37 1
  27   13   14 1
  28   13   38 1
  29   13   39 1
  30   14   40 1
  31   14   41 1
  32   15   16 1
  33   15   24 1
  34   15   42 1
  35   15   43 1
  36   16   17 1
  37   16   44 1
  38   17   18 1
  39   17   25 1
  40   17   45 1
  41   18   19 1
  42   18   46 1
  43   18   47 1
  44   19   20 ar
  45   19   24 ar
  46   20   21 ar
  47   20   26 1
  48   21   22 ar
  49   21   48 1
  50   22   23 ar
  51   22   49 1
  52   23   24 ar
  53   23   50 1
  54   25   51 1
  55   26   52 1
  56   26   53 1

#	End of record

