#	Name: ASD02508418
#	Creating user name:	WinNT
#	Creation time:	15. 06. 2019 20:24

#	Modifying user name:	WinNT
#	Modification time:	15. 06. 2019 20:24

#	Program:	/corina/corina34_cracker 3.40 0067  02.08.2006

@<TRIPOS>MOLECULE
ASD02508418
  43   45    0    0    0
SMALL
NO_CHARGES


@<TRIPOS>ATOM
   1 N1            -0.2076     1.6927     0.3019 N.2     
   2 C2            -0.1694     0.3589     0.4404 C.2     
   3 C3             1.1190    -0.0304     0.4127 C.2     
   4 N4             1.8733     1.1041     0.2529 N.pl3   
   5 C5             1.0089     2.1510     0.1887 C.2     
   6 C6             3.2680     1.1709     0.1718 C.ar    
   7 C7             3.9620     2.0728     0.9709 C.ar    
   8 N8             3.9150     0.3718    -0.6603 N.ar    
   9 C9             5.2295     0.4018    -0.7676 C.ar    
  10 C10            5.9826     1.2759    -0.0087 C.ar    
  11 C11            5.3430     2.1281     0.8807 C.ar    
  12 S12            1.7208    -1.6803     0.5544 S.o2    
  13 O13            1.6688    -2.2400    -0.7507 O.2     
  14 O14            2.9146    -1.6075     1.3218 O.2     
  15 N15            0.6279    -2.5239     1.4689 N.am    
  16 C16            0.3797    -2.1420     2.7892 C.ar    
  17 C17           -0.9254    -2.0780     3.2612 C.ar    
  18 C18           -1.1707    -1.7006     4.5674 C.ar    
  19 C19           -0.1197    -1.3856     5.4073 C.ar    
  20 C20            1.1864    -1.4474     4.9411 C.ar    
  21 C21            1.4371    -1.8313     3.6334 C.ar    
  22 Cl22           3.1092     3.1156     2.0660 Cl      
  23 C23           -2.5872    -1.6319     5.0770 C.3     
  24 F24           -2.9506    -2.8720     5.6132 F       
  25 F25           -2.6787    -0.6500     6.0693 F       
  26 F26           -3.4474    -1.3101     4.0217 F       
  27 O27            2.2189    -1.1364     5.7682 O.3     
  28 C28            1.8871    -0.7543     7.1046 C.3     
  29 C29            7.4837     1.2999    -0.1404 C.3     
  30 F30            7.8838     0.3523    -1.0886 F       
  31 F31            7.8955     2.5725    -0.5504 F       
  32 F32            8.0652     0.9973     1.0955 F       
  33 H33           -1.0247    -0.2905     0.5548 H       
  34 H34            1.2830     3.1882     0.0642 H       
  35 H35            5.7231    -0.2663    -1.4578 H       
  36 H36            5.9088     2.8210     1.4858 H       
  37 H37            0.1601    -3.2833     1.0875 H       
  38 H38           -1.7487    -2.3230     2.6065 H       
  39 H39           -0.3146    -1.0907     6.4277 H       
  40 H40            2.4526    -1.8799     3.2691 H       
  41 H41            2.8006    -0.5332     7.6567 H       
  42 H42            1.2527     0.1318     7.0823 H       
  43 H43            1.3550    -1.5699     7.5943 H       
@<TRIPOS>BOND
   1    1    2 1
   2    1    5 2
   3    2    3 2
   4    2   33 1
   5    3    4 1
   6    3   12 1
   7    4    5 1
   8    4    6 1
   9    5   34 1
  10    6    7 ar
  11    6    8 ar
  12    7   22 1
  13    7   11 ar
  14    8    9 ar
  15    9   10 ar
  16    9   35 1
  17   10   11 ar
  18   10   29 1
  19   11   36 1
  20   12   13 2
  21   12   14 2
  22   12   15 am
  23   15   16 1
  24   15   37 1
  25   16   17 ar
  26   16   21 ar
  27   17   18 ar
  28   17   38 1
  29   18   19 ar
  30   18   23 1
  31   19   20 ar
  32   19   39 1
  33   20   21 ar
  34   20   27 1
  35   21   40 1
  36   23   24 1
  37   23   25 1
  38   23   26 1
  39   27   28 1
  40   28   41 1
  41   28   42 1
  42   28   43 1
  43   29   30 1
  44   29   31 1
  45   29   32 1

#	End of record

