#	Name: ASD01810404
#	Creating user name:	WinNT
#	Creation time:	15. 06. 2019 19:24

#	Modifying user name:	WinNT
#	Modification time:	15. 06. 2019 19:24

#	Program:	/corina/corina34_cracker 3.40 0067  02.08.2006

@<TRIPOS>MOLECULE
ASD01810404
  28   28    0    0    0
SMALL
NO_CHARGES


@<TRIPOS>ATOM
   1 C1            -0.1122     1.4706     0.0103 C.2     
   2 C2            -0.0435    -0.0052     0.0023 C.ar    
   3 C3             1.1928    -0.6476     0.0563 C.ar    
   4 C4             1.2485    -2.0381     0.0489 C.ar    
   5 C5             0.0683    -2.7810    -0.0125 C.ar    
   6 C6            -1.1535    -2.1397    -0.0663 C.ar    
   7 C7            -1.2172    -0.7606    -0.0535 C.ar    
   8 O8             0.9092     2.1259     0.0639 O.2     
   9 O9            -1.3073     2.0895    -0.0475 O.3     
  10 C10            0.1277    -4.2868    -0.0207 C.3     
  11 C11            2.5575    -2.7283     0.1055 C.2     
  12 S12            4.0498    -1.7950     0.0259 S.3     
  13 C13            5.2637    -3.1330     0.1368 C.3     
  14 N14            2.6056    -4.0265     0.2142 N.2     
  15 C15           -1.2989     3.5415    -0.0357 C.3     
  16 H16            2.1032    -0.0686     0.1034 H       
  17 H17           -2.0634    -2.7195    -0.1141 H       
  18 H18           -2.1760    -0.2648    -0.0909 H       
  19 H19            0.2189    -4.6524     1.0022 H       
  20 H20           -0.7831    -4.6840    -0.4686 H       
  21 H21            0.9905    -4.6133    -0.6014 H       
  22 H22            5.1254    -3.8192    -0.6986 H       
  23 H23            6.2697    -2.7148     0.1008 H       
  24 H24            5.1271    -3.6706     1.0751 H       
  25 H25            3.4630    -4.4786     0.2513 H       
  26 H26           -0.8303     3.8946     0.8829 H       
  27 H27           -0.7371     3.9086    -0.8946 H       
  28 H28           -2.3231     3.9111    -0.0865 H       
@<TRIPOS>BOND
   1    1    2 1
   2    1    8 2
   3    1    9 1
   4    2    3 ar
   5    2    7 ar
   6    3    4 ar
   7    3   16 1
   8    4    5 ar
   9    4   11 1
  10    5    6 ar
  11    5   10 1
  12    6    7 ar
  13    6   17 1
  14    7   18 1
  15    9   15 1
  16   10   19 1
  17   10   20 1
  18   10   21 1
  19   11   12 1
  20   11   14 2
  21   12   13 1
  22   13   22 1
  23   13   23 1
  24   13   24 1
  25   14   25 1
  26   15   26 1
  27   15   27 1
  28   15   28 1

#	End of record

