#	Name: ASD09080143
#	Creating user name:	WinNT
#	Creation time:	15. 06. 2019 21:20

#	Modifying user name:	WinNT
#	Modification time:	15. 06. 2019 21:20

#	Program:	/corina/corina34_cracker 3.40 0067  02.08.2006

@<TRIPOS>MOLECULE
ASD09080143
  50   51    0    0    0
SMALL
NO_CHARGES


@<TRIPOS>ATOM
   1 C1            -0.0167     1.3799     0.0096 C.ar    
   2 C2             0.0021    -0.0041     0.0020 C.ar    
   3 C3            -1.1844    -0.7169     0.0091 C.ar    
   4 C4            -2.3938    -0.0494     0.0242 C.ar    
   5 C5            -2.4179     1.3436     0.0324 C.ar    
   6 C6            -1.2209     2.0565     0.0305 C.ar    
   7 Cl7            1.4756     2.2669     0.0001 Cl      
   8 Cl8           -1.1526    -2.4526    -0.0017 Cl      
   9 C9            -3.7143     2.0655     0.0481 C.ar    
  10 C10           -3.7388     3.4586     0.0563 C.ar    
  11 C11           -4.9474     4.1250     0.0704 C.ar    
  12 C12           -6.1329     3.4124     0.0765 C.ar    
  13 C13           -6.1145     2.0293     0.0689 C.ar    
  14 C14           -4.9116     1.3528     0.0489 C.ar    
  15 C15           -7.4494     4.1455     0.0919 C.3     
  16 C16           -7.9073     4.4019    -1.3453 C.3     
  17 N17           -8.1834     3.1234    -2.0053 N.am    
  18 C18           -9.1783     5.2536    -1.3314 C.3     
  19 O19           -8.9090     6.5006    -0.6876 O.3     
  20 C20           -9.6362     5.5099    -2.7686 C.3     
  21 O21           -8.5658     6.0958    -3.5122 O.3     
  22 C22           -8.1073     3.0276    -3.3475 C.2     
  23 C23           -8.3913     1.7125    -4.0263 C.3     
  24 O24           -7.8103     3.9999    -4.0089 O.2     
  25 O25           -8.2466     1.8651    -5.4398 O.3     
  26 C26           -8.4954     0.6696    -6.1819 C.3     
  27 C27          -10.8150     6.4488    -2.7603 C.2     
  28 O28          -10.7160     7.5470    -3.2542 O.2     
  29 O29          -11.9748     6.0649    -2.2044 O.3     
  30 H30            0.9456    -0.5295    -0.0098 H       
  31 H31           -3.3190    -0.6065     0.0293 H       
  32 H32           -1.2346     3.1364     0.0372 H       
  33 H33           -2.8137     4.0160     0.0519 H       
  34 H34           -4.9675     5.2048     0.0771 H       
  35 H35           -7.0430     1.4778     0.0744 H       
  36 H36           -4.8983     0.2729     0.0430 H       
  37 H37           -8.1955     3.5418     0.6087 H       
  38 H38           -7.3295     5.0969     0.6102 H       
  39 H39           -7.1227     4.9290    -1.8880 H       
  40 H40           -8.4209     2.3459    -1.4762 H       
  41 H41           -9.9629     4.7265    -0.7886 H       
  42 H42           -8.6133     6.4143     0.2290 H       
  43 H43           -9.9262     4.5666    -3.2312 H       
  44 H44           -8.2557     6.9400    -3.1566 H       
  45 H45           -7.6889     0.9598    -3.6684 H       
  46 H46           -9.4093     1.3977    -3.7972 H       
  47 H47           -7.7952    -0.1049    -5.8687 H       
  48 H48           -9.5157     0.3331    -5.9975 H       
  49 H49           -8.3651     0.8685    -7.2457 H       
  50 H50          -12.7025     6.7014    -2.2231 H       
@<TRIPOS>BOND
   1    1    2 ar
   2    1    7 1
   3    1    6 ar
   4    2    3 ar
   5    2   30 1
   6    3    4 ar
   7    3    8 1
   8    4    5 ar
   9    4   31 1
  10    5    6 ar
  11    5    9 1
  12    6   32 1
  13    9   10 ar
  14    9   14 ar
  15   10   11 ar
  16   10   33 1
  17   11   12 ar
  18   11   34 1
  19   12   13 ar
  20   12   15 1
  21   13   14 ar
  22   13   35 1
  23   14   36 1
  24   15   16 1
  25   15   37 1
  26   15   38 1
  27   16   17 1
  28   16   18 1
  29   16   39 1
  30   17   22 am
  31   17   40 1
  32   18   19 1
  33   18   20 1
  34   18   41 1
  35   19   42 1
  36   20   21 1
  37   20   27 1
  38   20   43 1
  39   21   44 1
  40   22   23 1
  41   22   24 2
  42   23   25 1
  43   23   45 1
  44   23   46 1
  45   25   26 1
  46   26   47 1
  47   26   48 1
  48   26   49 1
  49   27   28 2
  50   27   29 1
  51   29   50 1

#	End of record

