#	Name: ASD08390046
#	Creating user name:	WinNT
#	Creation time:	15. 06. 2019 21:19

#	Modifying user name:	WinNT
#	Modification time:	15. 06. 2019 21:19

#	Program:	/corina/corina34_cracker 3.40 0067  02.08.2006

@<TRIPOS>MOLECULE
ASD08390046
  47   49    0    0    0
SMALL
NO_CHARGES


@<TRIPOS>ATOM
   1 C1            -0.1649     1.5261     0.0964 C.3     
   2 C2             0.0021    -0.0041     0.0020 C.3     
   3 N3             1.2234     2.0159     0.0486 N.pl3   
   4 C4             2.0540     0.9405    -0.0564 C.2     
   5 N5             1.4567    -0.1941    -0.0874 N.2     
   6 C6            -0.9549     2.0491    -1.0755 C.ar    
   7 C7             1.6402     3.4192     0.1043 C.3     
   8 C8             1.8598     3.8214     1.5399 C.ar    
   9 C9            -2.2996     2.3353    -0.9288 C.ar    
  10 C10           -3.0260     2.8148    -2.0015 C.ar    
  11 C11           -2.4052     3.0091    -3.2269 C.ar    
  12 C12           -1.0558     2.7211    -3.3715 C.ar    
  13 C13           -0.3325     2.2472    -2.2942 C.ar    
  14 C14            3.1064     3.6687     2.1175 C.ar    
  15 C15            0.8162     4.3482     2.2775 C.ar    
  16 C16            1.0176     4.7171     3.5944 C.ar    
  17 C17            2.2626     4.5588     4.1738 C.ar    
  18 C18            3.3079     4.0376     3.4344 C.ar    
  19 C19            3.5532     1.0737    -0.1302 C.3     
  20 C20           -0.5523    -0.6833     1.2559 C.3     
  21 C21           -0.6808    -0.5357    -1.2317 C.2     
  22 O22           -1.8198    -0.9338    -1.1677 O.2     
  23 O23           -0.0237    -0.5670    -2.4018 O.3     
  24 O24           -3.1177     3.4802    -4.2838 O.3     
  25 C25           -2.4132     3.6557    -5.5147 C.3     
  26 H26           -0.6394     1.8046     1.0374 H       
  27 H27            2.5677     3.5452    -0.4543 H       
  28 H28            0.8640     4.0465    -0.3341 H       
  29 H29           -2.7826     2.1836     0.0252 H       
  30 H30           -4.0765     3.0379    -1.8865 H       
  31 H31           -0.5702     2.8716    -4.3244 H       
  32 H32            0.7180     2.0229    -2.4062 H       
  33 H33            3.9229     3.2609     1.5400 H       
  34 H34           -0.1566     4.4719     1.8249 H       
  35 H35            0.2024     5.1294     4.1705 H       
  36 H36            2.4201     4.8473     5.2026 H       
  37 H37            4.2806     3.9139     3.8871 H       
  38 H38            3.9702     1.0487     0.8766 H       
  39 H39            3.9630     0.2493    -0.7137 H       
  40 H40            3.8109     2.0195    -0.6068 H       
  41 H41           -1.6119    -0.4489     1.3577 H       
  42 H42           -0.4255    -1.7625     1.1707 H       
  43 H43           -0.0145    -0.3224     2.1326 H       
  44 H44           -0.5031    -0.9166    -3.1653 H       
  45 H45           -3.0969     4.0359    -6.2736 H       
  46 H46           -1.5998     4.3666    -5.3695 H       
  47 H47           -2.0055     2.6985    -5.8396 H       
@<TRIPOS>BOND
   1    1    2 1
   2    1    3 1
   3    1    6 1
   4    1   26 1
   5    2   20 1
   6    2   21 1
   7    2    5 1
   8    3    4 1
   9    3    7 1
  10    4    5 2
  11    4   19 1
  12    6    9 ar
  13    6   13 ar
  14    7    8 1
  15    7   27 1
  16    7   28 1
  17    8   14 ar
  18    8   15 ar
  19    9   10 ar
  20    9   29 1
  21   10   11 ar
  22   10   30 1
  23   11   12 ar
  24   11   24 1
  25   12   13 ar
  26   12   31 1
  27   13   32 1
  28   14   18 ar
  29   14   33 1
  30   15   16 ar
  31   15   34 1
  32   16   17 ar
  33   16   35 1
  34   17   18 ar
  35   17   36 1
  36   18   37 1
  37   19   38 1
  38   19   39 1
  39   19   40 1
  40   20   41 1
  41   20   42 1
  42   20   43 1
  43   21   22 2
  44   21   23 1
  45   23   44 1
  46   24   25 1
  47   25   45 1
  48   25   46 1
  49   25   47 1

#	End of record

