#	Name: ASD01911115
#	Creating user name:	WinNT
#	Creation time:	15. 06. 2019 19:57

#	Modifying user name:	WinNT
#	Modification time:	15. 06. 2019 19:57

#	Program:	/corina/corina34_cracker 3.40 0067  02.08.2006

@<TRIPOS>MOLECULE
ASD01911115
  35   36    0    0    0
SMALL
NO_CHARGES


@<TRIPOS>ATOM
   1 C1            -0.0158     1.3153     0.0093 C.ar    
   2 N2             0.0021    -0.0041     0.0020 N.ar    
   3 C3             1.1292    -0.6901    -0.0124 C.ar    
   4 C4             2.3495    -0.0481    -0.0206 C.ar    
   5 C5             2.3794     1.3534    -0.0133 C.ar    
   6 C6             1.1573     2.0400     0.0020 C.ar    
   7 C7             3.6229     2.0634    -0.0209 C.1     
   8 C8             4.6424     2.6455    -0.0271 C.1     
   9 C9             5.8859     3.3556    -0.0347 C.ar    
  10 C10            5.9045     4.7570    -0.0273 C.ar    
  11 C11            7.1022     2.6592    -0.0437 C.ar    
  12 C12            8.2760     3.3886    -0.0509 C.ar    
  13 C13            8.2121     4.7820    -0.0488 C.ar    
  14 N14            7.0419     5.4115    -0.0347 N.ar    
  15 C15            9.4645     5.5700    -0.0564 C.2     
  16 N16            9.4134     6.9167    -0.0545 N.am    
  17 O17           10.5394     5.0026    -0.0644 O.2     
  18 C18           10.6534     7.6969    -0.0620 C.3     
  19 C19           11.1423     7.8637    -1.5022 C.3     
  20 C20           10.3931     9.0743     0.5509 C.3     
  21 H21           -0.9626     1.8349     0.0165 H       
  22 H22            1.0954    -1.7696    -0.0175 H       
  23 H23            3.2679    -0.6162    -0.0320 H       
  24 H24            1.1350     3.1197     0.0076 H       
  25 H25            4.9732     5.3038    -0.0159 H       
  26 H26            7.1216     1.5794    -0.0448 H       
  27 H27            9.2317     2.8855    -0.0576 H       
  28 H28            8.5556     7.3695    -0.0482 H       
  29 H29           11.4132     7.1771     0.5217 H       
  30 H30           10.3825     8.3834    -2.0859 H       
  31 H31           12.0649     8.4441    -1.5078 H       
  32 H32           11.3277     6.8824    -1.9389 H       
  33 H33           10.0448     8.9555     1.5769 H       
  34 H34           11.3157     9.6547     0.5454 H       
  35 H35            9.6333     9.5940    -0.0328 H       
@<TRIPOS>BOND
   1    1    2 ar
   2    1    6 ar
   3    1   21 1
   4    2    3 ar
   5    3    4 ar
   6    3   22 1
   7    4    5 ar
   8    4   23 1
   9    5    6 ar
  10    5    7 1
  11    6   24 1
  12    7    8 3
  13    8    9 1
  14    9   10 ar
  15    9   11 ar
  16   10   14 ar
  17   10   25 1
  18   11   12 ar
  19   11   26 1
  20   12   13 ar
  21   12   27 1
  22   13   14 ar
  23   13   15 1
  24   15   16 am
  25   15   17 2
  26   16   18 1
  27   16   28 1
  28   18   19 1
  29   18   20 1
  30   18   29 1
  31   19   30 1
  32   19   31 1
  33   19   32 1
  34   20   33 1
  35   20   34 1
  36   20   35 1

#	End of record

