#	Name: ASD02030569
#	Creating user name:	WinNT
#	Creation time:	15. 06. 2019 20:15

#	Modifying user name:	WinNT
#	Modification time:	15. 06. 2019 20:15

#	Program:	/corina/corina34_cracker 3.40 0067  02.08.2006

@<TRIPOS>MOLECULE
ASD02030569
  37   40    0    0    0
SMALL
NO_CHARGES


@<TRIPOS>ATOM
   1 C1            -0.0168     1.3866     0.0097 C.ar    
   2 C2             0.0021    -0.0041     0.0020 C.ar    
   3 C3             1.2072    -0.6720    -0.0131 C.ar    
   4 C4             2.4050     0.0290    -0.0208 C.ar    
   5 C5             2.4096     1.3956    -0.0135 C.ar    
   6 C6             0.8440     3.5134     0.0129 C.2     
   7 C7            -0.4966     3.5818     0.0236 C.2     
   8 N8            -1.0281     2.3210     0.0188 N.pl3   
   9 C9             1.2003     2.0926     0.0018 C.ar    
  10 C10            3.7109    -0.7229    -0.0368 C.3     
  11 N11            4.1223    -0.9602    -1.4269 N.3     
  12 C12            5.3945    -1.6926    -1.4817 C.3     
  13 C13            5.7834    -1.9170    -2.9203 C.ar    
  14 C14            5.7131    -3.2653    -4.8999 C.ar    
  15 C15            5.3590    -3.0550    -3.5799 C.ar    
  16 C16            6.5593    -0.9811    -3.5792 C.ar    
  17 C17            6.4941    -2.3346    -5.5648 C.ar    
  18 O18            6.9724    -2.3018    -6.8428 O.3     
  19 C19            6.9175    -1.1850    -4.9015 C.ar    
  20 O20            7.6611    -0.4326    -5.7642 O.3     
  21 C21            7.3478    -0.9318    -7.0779 C.3     
  22 H22           -0.9247    -0.5585     0.0083 H       
  23 H23            1.2197    -1.7519    -0.0186 H       
  24 H24            3.3456     1.9343    -0.0192 H       
  25 H25            1.5298     4.3478     0.0131 H       
  26 H26           -1.0706     4.4966     0.0338 H       
  27 H27           -1.9762     2.1159     0.0213 H       
  28 H28            4.4746    -0.1354     0.4729 H       
  29 H29            3.5866    -1.6780     0.4734 H       
  30 H30            3.4022    -1.4474    -1.9389 H       
  31 H31            6.1699    -1.1119    -0.9821 H       
  32 H32            5.2818    -2.6545    -0.9815 H       
  33 H33            5.3803    -4.1556    -5.4127 H       
  34 H34            4.7496    -3.7817    -3.0631 H       
  35 H35            6.8859    -0.0907    -3.0627 H       
  36 H36            8.2227    -0.8802    -7.7260 H       
  37 H37            6.5161    -0.3757    -7.5106 H       
@<TRIPOS>BOND
   1    1    2 ar
   2    1    9 ar
   3    1    8 1
   4    2    3 ar
   5    2   22 1
   6    3    4 ar
   7    3   23 1
   8    4    5 ar
   9    4   10 1
  10    5    9 ar
  11    5   24 1
  12    6    7 2
  13    6    9 1
  14    6   25 1
  15    7    8 1
  16    7   26 1
  17    8   27 1
  18   10   11 1
  19   10   28 1
  20   10   29 1
  21   11   12 1
  22   11   30 1
  23   12   13 1
  24   12   31 1
  25   12   32 1
  26   13   16 ar
  27   13   15 ar
  28   14   15 ar
  29   14   17 ar
  30   14   33 1
  31   15   34 1
  32   16   19 ar
  33   16   35 1
  34   17   19 ar
  35   17   18 1
  36   18   21 1
  37   19   20 1
  38   20   21 1
  39   21   36 1
  40   21   37 1

#	End of record

