#	Name: ASD04550013
#	Creating user name:	WinNT
#	Creation time:	15. 06. 2019 20:49

#	Modifying user name:	WinNT
#	Modification time:	15. 06. 2019 20:49

#	Program:	/corina/corina34_cracker 3.40 0067  02.08.2006

@<TRIPOS>MOLECULE
ASD04550013
  34   35    0    0    0
SMALL
NO_CHARGES


@<TRIPOS>ATOM
   1 C1            -0.0167     1.3781     0.0096 C.ar    
   2 C2             0.0021    -0.0041     0.0020 C.ar    
   3 C3             1.2084    -0.6789    -0.0132 C.ar    
   4 C4             2.3960     0.0285    -0.0212 C.ar    
   5 C5             2.3773     1.4107    -0.0145 C.ar    
   6 C6             1.1710     2.0855     0.0021 C.ar    
   7 C7            -1.2926    -0.7753     0.0108 C.3     
   8 C8             3.6720     2.1819    -0.0228 C.3     
   9 C9             3.7296     3.0684    -1.2685 C.3     
  10 C10           -1.7384    -1.0247    -1.4070 C.ar    
  11 C11           -1.3302    -2.1676    -2.0689 C.ar    
  12 C12           -1.7391    -2.3964    -3.3694 C.ar    
  13 C13           -2.5564    -1.4825    -4.0079 C.ar    
  14 C14           -2.9652    -0.3400    -3.3457 C.ar    
  15 C15           -2.5599    -0.1134    -2.0437 C.ar    
  16 C16            3.7514     3.0435     1.2111 C.2     
  17 O17            2.8492     3.0325     2.0147 O.2     
  18 O18            4.8244     3.8232     1.4173 O.3     
  19 H19           -0.9592     1.9054     0.0170 H       
  20 H20            1.2231    -1.7588    -0.0184 H       
  21 H21            3.3386    -0.4987    -0.0324 H       
  22 H22            1.1563     3.1654     0.0069 H       
  23 H23           -1.1443    -1.7285     0.5181 H       
  24 H24           -2.0550    -0.1993     0.5353 H       
  25 H25            4.5100     1.4850    -0.0338 H       
  26 H26            2.8916     3.7654    -1.2575 H       
  27 H27            4.6661     3.6262    -1.2744 H       
  28 H28            3.6722     2.4453    -2.1609 H       
  29 H29           -0.6917    -2.8816    -1.5701 H       
  30 H30           -1.4196    -3.2890    -3.8868 H       
  31 H31           -2.8752    -1.6609    -5.0243 H       
  32 H32           -3.6035     0.3741    -3.8447 H       
  33 H33           -2.8794     0.7792    -1.5263 H       
  34 H34            4.8300     4.3581     2.2229 H       
@<TRIPOS>BOND
   1    1    2 ar
   2    1    6 ar
   3    1   19 1
   4    2    3 ar
   5    2    7 1
   6    3    4 ar
   7    3   20 1
   8    4    5 ar
   9    4   21 1
  10    5    6 ar
  11    5    8 1
  12    6   22 1
  13    7   10 1
  14    7   23 1
  15    7   24 1
  16    8    9 1
  17    8   16 1
  18    8   25 1
  19    9   26 1
  20    9   27 1
  21    9   28 1
  22   10   11 ar
  23   10   15 ar
  24   11   12 ar
  25   11   29 1
  26   12   13 ar
  27   12   30 1
  28   13   14 ar
  29   13   31 1
  30   14   15 ar
  31   14   32 1
  32   15   33 1
  33   16   17 2
  34   16   18 1
  35   18   34 1

#	End of record

