#	Name: ASD01811989
#	Creating user name:	WinNT
#	Creation time:	15. 06. 2019 19:27

#	Modifying user name:	WinNT
#	Modification time:	15. 06. 2019 19:27

#	Program:	/corina/corina34_cracker 3.40 0067  02.08.2006

@<TRIPOS>MOLECULE
ASD01811989
  53   57    0    0    0
SMALL
NO_CHARGES


@<TRIPOS>ATOM
   1 C1            -0.0168     1.3869     0.0097 C.ar    
   2 C2             0.0021    -0.0041     0.0020 C.ar    
   3 C3             1.1801    -0.6897    -0.0129 C.ar    
   4 C4             2.3948     0.0129    -0.0207 C.ar    
   5 C5             2.3717     1.4290    -0.0129 C.ar    
   6 C6             1.1455     2.1015     0.0024 C.ar    
   7 C7             3.6293    -0.6694    -0.0365 C.ar    
   8 C8             4.8031     0.0063    -0.0446 C.ar    
   9 C9             4.8359     1.4095    -0.0374 C.ar    
  10 C10            3.6406     2.1511    -0.0211 C.ar    
  11 C11            6.1026     2.1526    -0.0470 C.2     
  12 N12            6.0328     3.5041    -0.0399 N.am    
  13 C13            4.8302     4.1313    -0.0241 C.2     
  14 N14            3.6961     3.4935    -0.0158 N.2     
  15 O15            7.1745     1.5748    -0.0604 O.2     
  16 C16            3.6424    -2.1763    -0.0442 C.3     
  17 C17            3.5087    -2.6726    -1.4608 C.ar    
  18 C18            4.6367    -2.8928    -2.2367 C.ar    
  19 C19            4.4664    -3.3494    -3.5343 C.ar    
  20 C20            3.1855    -3.5688    -4.0089 C.ar    
  21 N21            2.1348    -3.3481    -3.2413 N.ar    
  22 C22            2.2607    -2.9192    -2.0006 C.ar    
  23 C23            7.2655     4.2957    -0.0490 C.3     
  24 C24            7.2933     5.1852    -1.2950 C.3     
  25 C25            8.5531     6.0535    -1.2679 C.3     
  26 N26            8.5533     6.8803    -0.0543 N.3     
  27 C27            8.5745     6.0478     1.1553 C.3     
  28 C28            7.3153     5.1793     1.2005 C.3     
  29 Cl29           2.9576    -4.1401    -5.6323 Cl      
  30 C30            9.6771     7.8264    -0.0620 C.3     
  31 H31           -0.9630     1.9076     0.0169 H       
  32 H32           -0.9305    -0.5488     0.0083 H       
  33 H33            1.1786    -1.7697    -0.0183 H       
  34 H34            1.1188     3.1811     0.0081 H       
  35 H35            5.7317    -0.5451    -0.0563 H       
  36 H36            4.8132     5.2111    -0.0182 H       
  37 H37            4.5813    -2.5336     0.3789 H       
  38 H38            2.8098    -2.5499     0.5518 H       
  39 H39            5.6246    -2.7124    -1.8395 H       
  40 H40            5.3226    -3.5313    -4.1669 H       
  41 H41            1.3776    -2.7501    -1.4022 H       
  42 H42            8.1271     3.6281    -0.0587 H       
  43 H43            7.3011     4.5603    -2.1881 H       
  44 H44            6.4107     5.8247    -1.3053 H       
  45 H45            9.4355     5.4135    -1.2715 H       
  46 H46            8.5688     6.6983    -2.1466 H       
  47 H47            9.4568     5.4079     1.1403 H       
  48 H48            8.6057     6.6885     2.0366 H       
  49 H49            6.4331     5.8187     1.2295 H       
  50 H50            7.3389     4.5502     2.0904 H       
  51 H51            9.5956     8.4802    -0.9302 H       
  52 H52            9.6534     8.4260     0.8480 H       
  53 H53           10.6161     7.2749    -0.1093 H       
@<TRIPOS>BOND
   1    1    2 ar
   2    1    6 ar
   3    1   31 1
   4    2    3 ar
   5    2   32 1
   6    3    4 ar
   7    3   33 1
   8    4    5 ar
   9    4    7 ar
  10    5    6 ar
  11    5   10 ar
  12    6   34 1
  13    7    8 ar
  14    7   16 1
  15    8    9 ar
  16    8   35 1
  17    9   10 ar
  18    9   11 1
  19   10   14 1
  20   11   12 am
  21   11   15 2
  22   12   13 1
  23   12   23 1
  24   13   14 2
  25   13   36 1
  26   16   17 1
  27   16   37 1
  28   16   38 1
  29   17   18 ar
  30   17   22 ar
  31   18   19 ar
  32   18   39 1
  33   19   20 ar
  34   19   40 1
  35   20   21 ar
  36   20   29 1
  37   21   22 ar
  38   22   41 1
  39   23   24 1
  40   23   28 1
  41   23   42 1
  42   24   25 1
  43   24   43 1
  44   24   44 1
  45   25   26 1
  46   25   45 1
  47   25   46 1
  48   26   27 1
  49   26   30 1
  50   27   28 1
  51   27   47 1
  52   27   48 1
  53   28   49 1
  54   28   50 1
  55   30   51 1
  56   30   52 1
  57   30   53 1

#	End of record

