#	Name: ASD01920041
#	Creating user name:	WinNT
#	Creation time:	15. 06. 2019 20:11

#	Modifying user name:	WinNT
#	Modification time:	15. 06. 2019 20:11

#	Program:	/corina/corina34_cracker 3.40 0067  02.08.2006

@<TRIPOS>MOLECULE
ASD01920041
  49   51    0    0    0
SMALL
NO_CHARGES


@<TRIPOS>ATOM
   1 N1            -0.1170     1.4243    -0.8659 N.pl3   
   2 C2            -0.1059     0.0626    -0.9869 C.2     
   3 C3            -1.3510    -0.4066    -0.8016 C.2     
   4 C4            -2.2016     0.7636    -0.5447 C.2     
   5 C5            -1.3624     1.8610    -0.5959 C.2     
   6 C6             1.1096    -0.7783    -1.2813 C.3     
   7 C7            -1.7715     3.2973    -0.3940 C.3     
   8 C8             1.0088     2.2486    -0.9981 C.ar    
   9 C9            -3.6423     0.7664    -0.2831 C.2     
  10 O10           -4.2212     1.8147    -0.0867 O.2     
  11 C11           -4.4060    -0.5324    -0.2578 C.3     
  12 S12           -6.1551    -0.1988     0.0887 S.3     
  13 C13           -6.8748    -1.8070     0.0791 C.ar    
  14 C14           -8.2359    -1.9607     0.3126 C.ar    
  15 C15           -8.7994    -3.2208     0.3051 C.ar    
  16 C16           -8.0061    -4.3349     0.0646 C.ar    
  17 C17           -6.6458    -4.1818    -0.1689 C.ar    
  18 C18           -6.0826    -2.9215    -0.1676 C.ar    
  19 N19           -8.5784    -5.6142     0.0579 N.am    
  20 C20           -9.8244    -5.7925    -0.4239 C.2     
  21 O21          -10.4823    -4.8352    -0.7732 O.2     
  22 C22          -10.4002    -7.1812    -0.5286 C.3     
  23 C23            1.6621     2.3427    -2.2195 C.ar    
  24 C24            2.7714     3.1560    -2.3483 C.ar    
  25 C25            3.2322     3.8766    -1.2625 C.ar    
  26 C26            2.5833     3.7855    -0.0420 C.ar    
  27 C27            1.4691     2.9766     0.0906 C.ar    
  28 F28            3.0360     4.4904     1.0179 F       
  29 H29           -1.6647    -1.4394    -0.8353 H       
  30 H30            1.5857    -1.0690    -0.3449 H       
  31 H31            0.8094    -1.6716    -1.8289 H       
  32 H32            1.8128    -0.2024    -1.8829 H       
  33 H33           -1.6908     3.5530     0.6626 H       
  34 H34           -1.1175     3.9466    -0.9759 H       
  35 H35           -2.8022     3.4311    -0.7224 H       
  36 H36           -4.3150    -1.0264    -1.2251 H       
  37 H37           -3.9984    -1.1785     0.5198 H       
  38 H38           -8.8528    -1.0943     0.5004 H       
  39 H39           -9.8573    -3.3403     0.4866 H       
  40 H40           -6.0291    -5.0486    -0.3555 H       
  41 H41           -5.0247    -2.8025    -0.3496 H       
  42 H42           -8.0777    -6.3713     0.4001 H       
  43 H43          -10.4330    -7.6366     0.4612 H       
  44 H44          -11.4094    -7.1262    -0.9368 H       
  45 H45           -9.7748    -7.7852    -1.1859 H       
  46 H46            1.3034     1.7800    -3.0687 H       
  47 H47            3.2794     3.2286    -3.2985 H       
  48 H48            4.0998     4.5114    -1.3657 H       
  49 H49            0.9626     2.9055     1.0418 H       
@<TRIPOS>BOND
   1    1    2 1
   2    1    8 1
   3    1    5 1
   4    2    3 2
   5    2    6 1
   6    3    4 1
   7    3   29 1
   8    4    5 2
   9    4    9 1
  10    5    7 1
  11    6   30 1
  12    6   31 1
  13    6   32 1
  14    7   33 1
  15    7   34 1
  16    7   35 1
  17    8   23 ar
  18    8   27 ar
  19    9   10 2
  20    9   11 1
  21   11   12 1
  22   11   36 1
  23   11   37 1
  24   12   13 1
  25   13   14 ar
  26   13   18 ar
  27   14   15 ar
  28   14   38 1
  29   15   16 ar
  30   15   39 1
  31   16   17 ar
  32   16   19 1
  33   17   18 ar
  34   17   40 1
  35   18   41 1
  36   19   20 am
  37   19   42 1
  38   20   21 2
  39   20   22 1
  40   22   43 1
  41   22   44 1
  42   22   45 1
  43   23   24 ar
  44   23   46 1
  45   24   25 ar
  46   24   47 1
  47   25   26 ar
  48   25   48 1
  49   26   27 ar
  50   26   28 1
  51   27   49 1

#	End of record

