#	Name: ASD03091214
#	Creating user name:	WinNT
#	Creation time:	15. 06. 2019 20:30

#	Modifying user name:	WinNT
#	Modification time:	15. 06. 2019 20:30

#	Program:	/corina/corina34_cracker 3.40 0067  02.08.2006

@<TRIPOS>MOLECULE
ASD03091214
  53   56    0    0    0
SMALL
NO_CHARGES


@<TRIPOS>ATOM
   1 N1            -0.0156     1.2938     0.0083 N.2     
   2 C2             0.0020    -0.0037     0.0377 C.2     
   3 N3             1.1473    -0.7357     0.0631 N.am    
   4 C4             2.3551    -0.1250     0.0587 C.2     
   5 C5             2.3702     1.3451     0.0257 C.ar    
   6 C6             3.5599     2.0695     0.0191 C.ar    
   7 C7             3.5112     3.4529    -0.0120 C.ar    
   8 C8             2.2840     4.1153    -0.0365 C.ar    
   9 C9             1.1102     3.4175    -0.0299 C.ar    
  10 C10            1.1302     2.0213     0.0008 C.ar    
  11 O11            3.3888    -0.7676     0.0816 O.2     
  12 C12            1.0735    -2.1985     0.0959 C.3     
  13 C13            1.0587    -2.7407    -1.3347 C.3     
  14 C14            0.9816    -4.2683    -1.3004 C.3     
  15 C15           -1.3148    -0.7364     0.0445 C.3     
  16 C16           -2.4618     0.2757     0.0132 C.3     
  17 N17            7.4300     4.9438    -0.8797 N.3     
  18 C18            7.1618     4.0794     0.2797 C.3     
  19 C19            5.8665     3.3067     0.0855 C.3     
  20 N20            4.6987     4.1899    -0.0184 N.3     
  21 C21            4.7904     5.0305    -1.2204 C.3     
  22 C22            5.4175     6.3745    -0.8817 C.3     
  23 C23            6.9097     6.2957    -0.6296 C.3     
  24 C24            7.0416     4.4208    -2.1720 C.3     
  25 C25            5.5348     4.2710    -2.3033 C.3     
  26 H26            4.5106     1.5574     0.0384 H       
  27 H27            2.2618     5.1948    -0.0607 H       
  28 H28            0.1676     3.9444    -0.0484 H       
  29 H29            1.9401    -2.5942     0.6255 H       
  30 H30            0.1625    -2.5049     0.6100 H       
  31 H31            0.1921    -2.3449    -1.8643 H       
  32 H32            1.9697    -2.4343    -1.8488 H       
  33 H33            1.8482    -4.6641    -0.7709 H       
  34 H34            0.0706    -4.5747    -0.7864 H       
  35 H35            0.9711    -4.6546    -2.3197 H       
  36 H36           -1.3760    -1.3820    -0.8317 H       
  37 H37           -1.3891    -1.3419     0.9478 H       
  38 H38           -3.4143    -0.2542     0.0181 H       
  39 H39           -2.4006     0.9213     0.8894 H       
  40 H40           -2.3875     0.8812    -0.8901 H       
  41 H41            7.9851     3.3754     0.4008 H       
  42 H42            7.0819     4.6949     1.1757 H       
  43 H43            5.9426     2.7133    -0.8256 H       
  44 H44            5.7263     2.6342     0.9319 H       
  45 H45            3.7786     5.2109    -1.5835 H       
  46 H46            5.2386     7.0620    -1.7084 H       
  47 H47            4.9329     6.7714     0.0104 H       
  48 H48            7.1105     6.5683     0.4065 H       
  49 H49            7.4193     7.0003    -1.2868 H       
  50 H50            7.3987     5.0968    -2.9488 H       
  51 H51            7.5074     3.4455    -2.3131 H       
  52 H52            5.2767     3.2142    -2.2362 H       
  53 H53            5.2249     4.6486    -3.2777 H       
@<TRIPOS>BOND
   1    1    2 2
   2    1   10 1
   3    2    3 1
   4    2   15 1
   5    3    4 am
   6    3   12 1
   7    4    5 1
   8    4   11 2
   9    5    6 ar
  10    5   10 ar
  11    6    7 ar
  12    6   26 1
  13    7    8 ar
  14    7   20 1
  15    8    9 ar
  16    8   27 1
  17    9   10 ar
  18    9   28 1
  19   12   13 1
  20   12   29 1
  21   12   30 1
  22   13   14 1
  23   13   31 1
  24   13   32 1
  25   14   33 1
  26   14   34 1
  27   14   35 1
  28   15   16 1
  29   15   36 1
  30   15   37 1
  31   16   38 1
  32   16   39 1
  33   16   40 1
  34   17   18 1
  35   17   23 1
  36   17   24 1
  37   18   19 1
  38   18   41 1
  39   18   42 1
  40   19   20 1
  41   19   43 1
  42   19   44 1
  43   20   21 1
  44   21   22 1
  45   21   25 1
  46   21   45 1
  47   22   23 1
  48   22   46 1
  49   22   47 1
  50   23   48 1
  51   23   49 1
  52   24   25 1
  53   24   50 1
  54   24   51 1
  55   25   52 1
  56   25   53 1

#	End of record

