#	Name: ASD01150809
#	Creating user name:	WinNT
#	Creation time:	15. 06. 2019 19:05

#	Modifying user name:	WinNT
#	Modification time:	15. 06. 2019 19:05

#	Program:	/corina/corina34_cracker 3.40 0067  02.08.2006

@<TRIPOS>MOLECULE
ASD01150809
  55   56    0    0    0
SMALL
NO_CHARGES


@<TRIPOS>ATOM
   1 N1            -0.0065     1.2438     0.0175 N.3     
   2 C2             0.2422    -0.1246    -0.1437 C.3     
   3 C3             0.7494    -0.7789     1.1573 C.3     
   4 N4             2.1527    -0.4710     1.3187 N.3     
   5 C5             2.4116     0.7207     2.1584 C.3     
   6 C6             1.4385     1.8723     1.8598 C.3     
   7 C7             1.1888     2.0353     0.3816 C.3     
   8 C8             2.8937    -1.6374     1.8172 C.3     
   9 C9            -0.6661     1.8025    -1.1702 C.3     
  10 C10           -4.0873     0.6274    -0.4961 C.ar    
  11 N11           -2.9013     1.1847    -0.3545 N.ar    
  12 C12           -2.0196     1.1622    -1.3410 C.ar    
  13 C13           -2.3580     0.5422    -2.5337 C.ar    
  14 C14           -3.6141    -0.0324    -2.6446 C.ar    
  15 N15           -4.4435     0.0293    -1.6151 N.ar    
  16 C16           -4.0303    -0.7180    -3.9205 C.3     
  17 S17           -0.8661     3.5936    -0.9645 S.3     
  18 C18           -0.2454     3.9749    -3.6010 C.3     
  19 C19            0.2784     4.2761    -2.1953 C.3     
  20 C20            0.3880     5.7903    -2.0055 C.3     
  21 C21            1.0279     6.0891    -0.6483 C.3     
  22 C22            1.1375     7.6033    -0.4584 C.3     
  23 C23            1.7775     7.9022     0.8988 C.3     
  24 H24           -0.6794    -0.6181    -0.4523 H       
  25 H25            0.9921    -0.2589    -0.9233 H       
  26 H26            0.1894    -0.3862     2.0059 H       
  27 H27            0.6170    -1.8592     1.0984 H       
  28 H28            2.3154     0.4406     3.2074 H       
  29 H29            3.4304     1.0641     1.9790 H       
  30 H30            0.4904     1.6733     2.3593 H       
  31 H31            1.8560     2.7994     2.2527 H       
  32 H32            2.0517     1.6737    -0.1776 H       
  33 H33            1.0152     3.0868     0.1532 H       
  34 H34            2.7956    -2.4600     1.1089 H       
  35 H35            3.9464    -1.3782     1.9296 H       
  36 H36            2.4888    -1.9393     2.7831 H       
  37 H37           -0.0564     1.6038    -2.0516 H       
  38 H38           -4.7842     0.6578     0.3284 H       
  39 H39           -1.6596     0.5081    -3.3568 H       
  40 H40           -3.7555    -1.7717    -3.8731 H       
  41 H41           -5.1094    -0.6292    -4.0454 H       
  42 H42           -3.5268    -0.2490    -4.7659 H       
  43 H43            0.4838     4.3080    -4.3395 H       
  44 H44           -0.4057     2.9019    -3.7068 H       
  45 H45           -1.1875     4.5002    -3.7580 H       
  46 H46            1.2612     3.8219    -2.0688 H       
  47 H47            1.0049     6.2122    -2.7989 H       
  48 H48           -0.6068     6.2342    -2.0438 H       
  49 H49            0.4110     5.6672     0.1451 H       
  50 H50            2.0227     5.6452    -0.6100 H       
  51 H51            1.7545     8.0253    -1.2518 H       
  52 H52            0.1428     8.0473    -0.4967 H       
  53 H53            2.7722     7.4583     0.9371 H       
  54 H54            1.8556     8.9809     1.0340 H       
  55 H55            1.1605     7.4803     1.6922 H       
@<TRIPOS>BOND
   1    1    2 1
   2    1    7 1
   3    1    9 1
   4    2    3 1
   5    2   24 1
   6    2   25 1
   7    3    4 1
   8    3   26 1
   9    3   27 1
  10    4    5 1
  11    4    8 1
  12    5    6 1
  13    5   28 1
  14    5   29 1
  15    6    7 1
  16    6   30 1
  17    6   31 1
  18    7   32 1
  19    7   33 1
  20    8   34 1
  21    8   35 1
  22    8   36 1
  23    9   12 1
  24    9   17 1
  25    9   37 1
  26   10   11 ar
  27   10   15 ar
  28   10   38 1
  29   11   12 ar
  30   12   13 ar
  31   13   14 ar
  32   13   39 1
  33   14   15 ar
  34   14   16 1
  35   16   40 1
  36   16   41 1
  37   16   42 1
  38   17   19 1
  39   18   19 1
  40   18   43 1
  41   18   44 1
  42   18   45 1
  43   19   20 1
  44   19   46 1
  45   20   21 1
  46   20   47 1
  47   20   48 1
  48   21   22 1
  49   21   49 1
  50   21   50 1
  51   22   23 1
  52   22   51 1
  53   22   52 1
  54   23   53 1
  55   23   54 1
  56   23   55 1

#	End of record

