#	Name: ASD01948097
#	Creating user name:	WinNT
#	Creation time:	15. 06. 2019 20:13

#	Modifying user name:	WinNT
#	Modification time:	15. 06. 2019 20:13

#	Program:	/corina/corina34_cracker 3.40 0067  02.08.2006

@<TRIPOS>MOLECULE
ASD01948097
  31   33    0    0    0
SMALL
NO_CHARGES


@<TRIPOS>ATOM
   1 C1            -0.3815     1.1337     0.7392 C.2     
   2 C2            -0.1906    -0.2272     0.5744 C.2     
   3 C3             1.0520    -0.7178     0.1493 C.2     
   4 C4             2.0697     0.1983    -0.0968 C.2     
   5 C5             1.8319     1.5497     0.0819 C.2     
   6 N6             0.6188     2.0228     0.4964 N.am    
   7 S7            -1.8433     1.9898     1.2532 S.3     
   8 C8             0.3028     3.4354     0.7043 C.3     
   9 C9            -1.1340     3.6603     1.1670 C.3     
  10 O10            2.7344     2.3445    -0.1378 O.2     
  11 N11            1.2612    -2.0788    -0.0207 N.pl3   
  12 C12            0.4929    -2.7945    -0.9454 C.ar    
  13 C13            0.6032    -4.1794    -1.0201 C.ar    
  14 C14           -0.1581    -4.8828    -1.9348 C.ar    
  15 C15           -1.0280    -4.2103    -2.7749 C.ar    
  16 C16           -1.1391    -2.8338    -2.7022 C.ar    
  17 C17           -0.3853    -2.1250    -1.7863 C.ar    
  18 I18           -2.1790    -5.2799    -4.1607 I       
  19 F19            1.4532    -4.8356    -0.2003 F       
  20 N20           -1.2486    -1.1226     0.8352 N.pl3   
  21 H21            3.0401    -0.1435    -0.4253 H       
  22 H22            0.9824     3.8409     1.4538 H       
  23 H23            0.4571     3.9715    -0.2322 H       
  24 H24           -1.6745     4.2670     0.4405 H       
  25 H25           -1.1521     4.1334     2.1488 H       
  26 H26            1.9400    -2.5342     0.5015 H       
  27 H27           -0.0736    -5.9579    -1.9940 H       
  28 H28           -1.8191    -2.3123    -3.3595 H       
  29 H29           -0.4762    -1.0504    -1.7278 H       
  30 H30           -2.1087    -0.7845     1.1297 H       
  31 H31           -1.1160    -2.0766     0.7201 H       
@<TRIPOS>BOND
   1    1    2 2
   2    1    6 1
   3    1    7 1
   4    2    3 1
   5    2   20 1
   6    3    4 2
   7    3   11 1
   8    4    5 1
   9    4   21 1
  10    5    6 am
  11    5   10 2
  12    6    8 1
  13    7    9 1
  14    8    9 1
  15    8   22 1
  16    8   23 1
  17    9   24 1
  18    9   25 1
  19   11   12 1
  20   11   26 1
  21   12   13 ar
  22   12   17 ar
  23   13   14 ar
  24   13   19 1
  25   14   15 ar
  26   14   27 1
  27   15   16 ar
  28   15   18 1
  29   16   17 ar
  30   16   28 1
  31   17   29 1
  32   20   30 1
  33   20   31 1

#	End of record

