#	Name: ASD04590370
#	Creating user name:	WinNT
#	Creation time:	15. 06. 2019 20:50

#	Modifying user name:	WinNT
#	Modification time:	15. 06. 2019 20:50

#	Program:	/corina/corina34_cracker 3.40 0067  02.08.2006

@<TRIPOS>MOLECULE
ASD04590370
  44   47    0    0    0
SMALL
NO_CHARGES


@<TRIPOS>ATOM
   1 C1            -0.0169     1.3923     0.0097 C.ar    
   2 C2             0.0021    -0.0041     0.0020 C.ar    
   3 C3            -1.1778    -0.7174     0.0099 C.ar    
   4 C4            -2.4013    -0.0379     0.0257 C.ar    
   5 C5            -2.4142     1.3673     0.0334 C.ar    
   6 C6            -1.2191     2.0735     0.0306 C.ar    
   7 N7            -3.6931    -0.4512     0.0371 N.2     
   8 C8            -4.4891     0.5902     0.0510 C.2     
   9 N9            -3.7462     1.7409     0.0494 N.pl3   
  10 C10           -5.9654     0.5316     0.0657 C.2     
  11 C11           -6.7506    -0.6444     0.0677 C.2     
  12 C12           -8.0536    -0.2713     0.0829 C.2     
  13 N13           -8.0979     1.0870     0.0903 N.pl3   
  14 N14           -6.7821     1.5666     0.0851 N.2     
  15 N15           -6.2671    -1.9629     0.0553 N.am    
  16 C16           -7.1308    -2.9975     0.0588 C.2     
  17 C17           -6.6228    -4.3825     0.0458 C.ar    
  18 O18           -8.3289    -2.7894     0.0728 O.2     
  19 C19           -6.3935    -5.0363    -1.1697 C.ar    
  20 C20           -5.9171    -6.3338    -1.1727 C.ar    
  21 C21           -5.6671    -6.9856     0.0213 C.ar    
  22 C22           -5.8914    -6.3470     1.2273 C.ar    
  23 C23           -6.3622    -5.0476     1.2487 C.ar    
  24 F24           -6.5806    -4.4255     2.4279 F       
  25 F25           -6.6375    -4.4015    -2.3370 F       
  26 O26            1.1915    -0.6643    -0.0138 O.3     
  27 O27            1.1536     2.0851     0.0022 O.3     
  28 C28            1.1408    -2.0924    -0.0209 C.3     
  29 C29            1.0634     3.5113     0.0108 C.3     
  30 H30           -1.1579    -1.7972     0.0036 H       
  31 H31           -1.2289     3.1534     0.0365 H       
  32 H32           -4.0896     2.6480     0.0578 H       
  33 H33           -8.9053    -0.9354     0.0878 H       
  34 H34           -8.9015     1.6301     0.1008 H       
  35 H35           -5.3115    -2.1289     0.0441 H       
  36 H36           -5.7398    -6.8402    -2.1100 H       
  37 H37           -5.2948    -7.9994     0.0117 H       
  38 H38           -5.6938    -6.8634     2.1550 H       
  39 H39            2.1548    -2.4919    -0.0335 H       
  40 H40            0.6236    -2.4420     0.8726 H       
  41 H41            0.6052    -2.4325    -0.9073 H       
  42 H42            2.0660     3.9388     0.0035 H       
  43 H43            0.5192     3.8462    -0.8723 H       
  44 H44            0.5362     3.8366     0.9076 H       
@<TRIPOS>BOND
   1    1    2 ar
   2    1   27 1
   3    1    6 ar
   4    2    3 ar
   5    2   26 1
   6    3    4 ar
   7    3   30 1
   8    4    5 ar
   9    4    7 1
  10    5    6 ar
  11    5    9 1
  12    6   31 1
  13    7    8 2
  14    8    9 1
  15    8   10 1
  16    9   32 1
  17   10   11 1
  18   10   14 2
  19   11   12 2
  20   11   15 1
  21   12   13 1
  22   12   33 1
  23   13   14 1
  24   13   34 1
  25   15   16 am
  26   15   35 1
  27   16   17 1
  28   16   18 2
  29   17   19 ar
  30   17   23 ar
  31   19   20 ar
  32   19   25 1
  33   20   21 ar
  34   20   36 1
  35   21   22 ar
  36   21   37 1
  37   22   23 ar
  38   22   38 1
  39   23   24 1
  40   26   28 1
  41   27   29 1
  42   28   39 1
  43   28   40 1
  44   28   41 1
  45   29   42 1
  46   29   43 1
  47   29   44 1

#	End of record

