#	Name: ASD01912868
#	Creating user name:	WinNT
#	Creation time:	15. 06. 2019 20:00

#	Modifying user name:	WinNT
#	Modification time:	15. 06. 2019 20:00

#	Program:	/corina/corina34_cracker 3.40 0067  02.08.2006

@<TRIPOS>MOLECULE
ASD01912868
  46   49    0    0    0
SMALL
NO_CHARGES


@<TRIPOS>ATOM
   1 C1            -0.0175     1.3661    -0.0396 C.2     
   2 N2             0.0021    -0.0041     0.0056 N.pl3   
   3 C3            -1.2012    -0.6911     0.0638 C.2     
   4 C4            -2.3620    -0.0486     0.0759 C.2     
   5 N5            -2.4358     1.3306     0.0320 N.am    
   6 C6            -1.3028     2.0662    -0.0200 C.2     
   7 C7             1.2998     1.7823    -0.0920 C.2     
   8 C8             2.0538     0.6101    -0.0750 C.2     
   9 N9             1.2242    -0.4047    -0.0168 N.2     
  10 O10           -1.3507     3.2825    -0.0591 O.2     
  11 C11           -3.6834     1.9661     0.0464 C.ar    
  12 C12            3.5578     0.5236    -0.1166 C.3     
  13 O13            4.1092     1.8405    -0.1772 O.3     
  14 C14            5.4615     1.9407    -0.2205 C.ar    
  15 N15            6.1998     0.8427    -0.2055 N.ar    
  16 C16            7.5230     0.8963    -0.2465 C.ar    
  17 C17            8.1812     2.1189    -0.3066 C.ar    
  18 C18            7.4374     3.2871    -0.3238 C.ar    
  19 C19            6.0552     3.1934    -0.2859 C.ar    
  20 C20           -4.5431     1.8348    -1.0365 C.ar    
  21 C21           -4.0652     2.7238     1.1458 C.ar    
  22 C22           -5.2963     3.3493     1.1581 C.ar    
  23 C23           -6.1499     3.2214     0.0751 C.ar    
  24 C24           -5.7733     2.4620    -1.0200 C.ar    
  25 F25           -7.3541     3.8338     0.0893 F       
  26 N26            8.2602    -0.2819    -0.2287 N.pl3   
  27 C27            9.7228    -0.2298    -0.1631 C.3     
  28 C28            7.5747    -1.5757    -0.2756 C.3     
  29 H29           -1.1932    -1.7705     0.0996 H       
  30 H30           -3.2768    -0.6209     0.1211 H       
  31 H31            1.6659     2.7973    -0.1372 H       
  32 H32            3.9177     0.0199     0.7806 H       
  33 H33            3.8650    -0.0398    -0.9976 H       
  34 H34            9.2600     2.1576    -0.3391 H       
  35 H35            7.9239     4.2502    -0.3702 H       
  36 H36            5.4469     4.0857    -0.2981 H       
  37 H37           -4.2496     1.2430    -1.8909 H       
  38 H38           -3.4000     2.8235     1.9908 H       
  39 H39           -5.5938     3.9383     2.0131 H       
  40 H40           -6.4403     2.3639    -1.8637 H       
  41 H41           10.0275     0.2853     0.7480 H       
  42 H42           10.1227    -1.2438    -0.1582 H       
  43 H43           10.1065     0.3079    -1.0301 H       
  44 H44            7.4503    -1.8835    -1.3138 H       
  45 H45            8.1674    -2.3204     0.2556 H       
  46 H46            6.5964    -1.4859     0.1964 H       
@<TRIPOS>BOND
   1    1    2 1
   2    1    7 2
   3    1    6 1
   4    2    3 1
   5    2    9 1
   6    3    4 2
   7    3   29 1
   8    4    5 1
   9    4   30 1
  10    5    6 am
  11    5   11 1
  12    6   10 2
  13    7    8 1
  14    7   31 1
  15    8    9 2
  16    8   12 1
  17   11   20 ar
  18   11   21 ar
  19   12   13 1
  20   12   32 1
  21   12   33 1
  22   13   14 1
  23   14   15 ar
  24   14   19 ar
  25   15   16 ar
  26   16   17 ar
  27   16   26 1
  28   17   18 ar
  29   17   34 1
  30   18   19 ar
  31   18   35 1
  32   19   36 1
  33   20   24 ar
  34   20   37 1
  35   21   22 ar
  36   21   38 1
  37   22   23 ar
  38   22   39 1
  39   23   24 ar
  40   23   25 1
  41   24   40 1
  42   26   27 1
  43   26   28 1
  44   27   41 1
  45   27   42 1
  46   27   43 1
  47   28   44 1
  48   28   45 1
  49   28   46 1

#	End of record

