#	Name: ASD02198269
#	Creating user name:	WinNT
#	Creation time:	15. 06. 2019 20:19

#	Modifying user name:	WinNT
#	Modification time:	15. 06. 2019 20:19

#	Program:	/corina/corina34_cracker 3.40 0067  02.08.2006

@<TRIPOS>MOLECULE
ASD02198269
  34   35    0    0    0
SMALL
NO_CHARGES


@<TRIPOS>ATOM
   1 C1            -0.0165     1.4528    -0.0381 C.2     
   2 C2             0.0091    -0.0001    -0.0240 C.2     
   3 S3             1.6138     2.0905    -0.1491 S.3     
   4 C4             2.3111     0.5370    -0.1769 C.2     
   5 C5             1.2789    -0.5058    -0.0997 C.2     
   6 N6             1.5566    -1.8368    -0.1022 N.pl3   
   7 N7            -1.1219     2.1952     0.0195 N.pl3   
   8 C8            -1.0261     3.5727     0.1310 C.ar    
   9 C9            -1.9321     4.3938    -0.5396 C.ar    
  10 C10           -1.8325     5.7646    -0.4247 C.ar    
  11 C11           -0.8353     6.3258     0.3548 C.ar    
  12 C12            0.0672     5.5153     1.0224 C.ar    
  13 C13           -0.0269     4.1431     0.9190 C.ar    
  14 C14           -1.1965    -0.8353     0.0628 C.2     
  15 O15           -1.7631    -1.1922    -0.9518 O.2     
  16 O16           -1.6745    -1.2059     1.2677 O.3     
  17 C17           -2.8692    -2.0310     1.2776 C.3     
  18 C18           -3.2581    -2.3483     2.7229 C.3     
  19 N19            3.7679     0.2718    -0.2672 N.pl3   
  20 O20            4.6173     1.2762    -0.3318 O.2     
  21 O21            4.2117    -0.9681    -0.2826 O.2     
  22 H22            2.4763    -2.1402    -0.1573 H       
  23 H23            0.8351    -2.4828    -0.0488 H       
  24 H24           -1.9934     1.7709    -0.0168 H       
  25 H25           -2.7101     3.9570    -1.1481 H       
  26 H26           -2.5335     6.4014    -0.9439 H       
  27 H27           -0.7608     7.3997     0.4421 H       
  28 H28            0.8434     5.9582     1.6289 H       
  29 H29            0.6773     3.5118     1.4404 H       
  30 H30           -3.6846    -1.4956     0.7911 H       
  31 H31           -2.6738    -2.9599     0.7417 H       
  32 H32           -2.4427    -2.8837     3.2094 H       
  33 H33           -3.4535    -1.4194     3.2588 H       
  34 H34           -4.1549    -2.9676     2.7303 H       
@<TRIPOS>BOND
   1    1    2 2
   2    1    3 1
   3    1    7 1
   4    2   14 1
   5    2    5 1
   6    3    4 1
   7    4    5 2
   8    4   19 1
   9    5    6 1
  10    6   22 1
  11    6   23 1
  12    7    8 1
  13    7   24 1
  14    8    9 ar
  15    8   13 ar
  16    9   10 ar
  17    9   25 1
  18   10   11 ar
  19   10   26 1
  20   11   12 ar
  21   11   27 1
  22   12   13 ar
  23   12   28 1
  24   13   29 1
  25   14   15 2
  26   14   16 1
  27   16   17 1
  28   17   18 1
  29   17   30 1
  30   17   31 1
  31   18   32 1
  32   18   33 1
  33   18   34 1
  34   19   20 2
  35   19   21 2

#	End of record

