#	Name: ASD01880746
#	Creating user name:	WinNT
#	Creation time:	15. 06. 2019 19:41

#	Modifying user name:	WinNT
#	Modification time:	15. 06. 2019 19:41

#	Program:	/corina/corina34_cracker 3.40 0067  02.08.2006

@<TRIPOS>MOLECULE
ASD01880746
  54   56    0    0    0
SMALL
NO_CHARGES


@<TRIPOS>ATOM
   1 N1            -0.0158     1.3135     0.0093 N.ar    
   2 C2             0.0021    -0.0041     0.0020 C.ar    
   3 N3             1.1312    -0.6835    -0.0120 N.ar    
   4 C4             2.3010    -0.0614    -0.0198 C.ar    
   5 C5             2.3294     1.3206    -0.0131 C.ar    
   6 C6             1.1167     2.0074     0.0022 C.ar    
   7 C7             3.6391     2.0661    -0.0211 C.3     
   8 O8             4.7194     1.1309    -0.0355 O.3     
   9 C9             5.9766     1.6419    -0.0442 C.ar    
  10 C10            7.0744     0.7870    -0.0584 C.ar    
  11 C11            8.3456     1.3052    -0.0676 C.ar    
  12 C12            8.5455     2.6897    -0.0629 C.ar    
  13 C13            7.4395     3.5439    -0.0491 C.ar    
  14 C14            6.1664     3.0187    -0.0448 C.ar    
  15 C15            9.7169     0.6771    -0.0833 C.3     
  16 N16           10.6761     1.7875    -0.0868 N.am    
  17 C17            9.9961     2.9467    -0.0751 C.2     
  18 O18           10.5056     4.0506    -0.0749 O.2     
  19 C19           -1.3047    -0.7547     0.0105 C.3     
  20 C20            7.6396     5.0376    -0.0433 C.3     
  21 C21           -0.0164     5.5091     0.0309 C.3     
  22 C22           -1.3913     6.1801     0.0476 C.3     
  23 C23           -1.2169     7.7001     0.0536 C.3     
  24 O24            1.0934     3.3624     0.0092 O.3     
  25 C25           -0.1907     3.9891     0.0249 C.3     
  26 C26           12.6300     1.6145    -1.5477 C.3     
  27 C27           12.1350     1.6544    -0.1005 C.3     
  28 H28            3.2210    -0.6271    -0.0309 H       
  29 H29            3.6927     2.6969    -0.9084 H       
  30 H30            3.7086     2.6879     0.8714 H       
  31 H31            6.9266    -0.2828    -0.0617 H       
  32 H32            5.3121     3.6793    -0.0345 H       
  33 H33            9.8579     0.0630     0.8062 H       
  34 H34            9.8414     0.0715    -0.9809 H       
  35 H35           -1.6295    -0.9301    -1.0151 H       
  36 H36           -1.1716    -1.7101     0.5179 H       
  37 H37           -2.0580    -0.1667     0.5347 H       
  38 H38            7.6790     5.4029    -1.0695 H       
  39 H39            6.8102     5.5133     0.4801 H       
  40 H40            8.5743     5.2770     0.4637 H       
  41 H41            0.5269     5.8160    -0.8629 H       
  42 H42            0.5442     5.8070     0.9170 H       
  43 H43           -1.9518     5.8822    -0.8384 H       
  44 H44           -1.9345     5.8732     0.9414 H       
  45 H45           -2.1964     8.1782     0.0656 H       
  46 H46           -0.6564     7.9980     0.9397 H       
  47 H47           -0.6737     8.0070    -0.8401 H       
  48 H48           -0.7339     3.6821     0.9187 H       
  49 H49           -0.7513     3.6911    -0.8612 H       
  50 H50           13.7154     1.5155    -1.5578 H       
  51 H51           12.1827     0.7636    -2.0613 H       
  52 H52           12.3444     2.5361    -2.0548 H       
  53 H53           12.5823     2.5054     0.4132 H       
  54 H54           12.4205     0.7328     0.4067 H       
@<TRIPOS>BOND
   1    1    2 ar
   2    1    6 ar
   3    2    3 ar
   4    2   19 1
   5    3    4 ar
   6    4    5 ar
   7    4   28 1
   8    5    6 ar
   9    5    7 1
  10    6   24 1
  11    7    8 1
  12    7   29 1
  13    7   30 1
  14    8    9 1
  15    9   10 ar
  16    9   14 ar
  17   10   11 ar
  18   10   31 1
  19   11   12 ar
  20   11   15 1
  21   12   13 ar
  22   12   17 1
  23   13   14 ar
  24   13   20 1
  25   14   32 1
  26   15   16 1
  27   15   33 1
  28   15   34 1
  29   16   17 am
  30   16   27 1
  31   17   18 2
  32   19   35 1
  33   19   36 1
  34   19   37 1
  35   20   38 1
  36   20   39 1
  37   20   40 1
  38   21   22 1
  39   21   25 1
  40   21   41 1
  41   21   42 1
  42   22   23 1
  43   22   43 1
  44   22   44 1
  45   23   45 1
  46   23   46 1
  47   23   47 1
  48   24   25 1
  49   25   48 1
  50   25   49 1
  51   26   27 1
  52   26   50 1
  53   26   51 1
  54   26   52 1
  55   27   53 1
  56   27   54 1

#	End of record

