#	Name: ASD03330502
#	Creating user name:	WinNT
#	Creation time:	15. 06. 2019 20:37

#	Modifying user name:	WinNT
#	Modification time:	15. 06. 2019 20:37

#	Program:	/corina/corina34_cracker 3.40 0067  02.08.2006

@<TRIPOS>MOLECULE
ASD03330502
  61   63    0    0    0
SMALL
NO_CHARGES


@<TRIPOS>ATOM
   1 C1             0.2573     0.7130     0.0927 C.3     
   2 N2            -0.1844    -0.6183    -0.3463 N.3     
   3 C3             0.4376    -0.9878    -1.6307 C.3     
   4 C4             1.9208    -0.7493    -1.5161 C.2     
   5 N5             2.4908    -0.0083    -0.5389 N.pl3   
   6 C6             1.7289     0.6558     0.5225 C.3     
   7 C7             2.9340    -1.2025    -2.3225 C.2     
   8 N8             4.0910    -0.7332    -1.8206 N.2     
   9 C9             3.8354    -0.0157    -0.7490 C.2     
  10 C10            4.8402     0.6693     0.0871 C.2     
  11 C11            2.7827    -2.0501    -3.5205 C.2     
  12 O12            1.6768    -2.4117    -3.8737 O.2     
  13 C13            3.7201    -3.2653    -5.4130 C.3     
  14 N14            3.8703    -2.4236    -4.2234 N.am    
  15 C15           -1.6494    -0.6851    -0.4324 C.3     
  16 C16            3.4194    -2.3838    -6.6269 C.3     
  17 C17            4.9964    -4.0303    -5.6516 C.2     
  18 O18            6.0323    -3.6545    -5.1451 O.2     
  19 C19            4.5326    -1.3474    -6.7927 C.3     
  20 C20            3.3418    -3.2543    -7.8827 C.3     
  21 C21            2.0832    -1.6681    -6.4190 C.3     
  22 N22            4.9866    -5.1321    -6.4277 N.am    
  23 C23            6.2038    -5.9337    -6.5770 C.3     
  24 O24            4.4881     1.3086     1.0596 O.2     
  25 N25            6.1482     0.5863    -0.2273 N.am    
  26 C26            8.2119     1.8357    -0.1252 C.ar    
  27 C27            7.0910     1.3123     0.5066 C.ar    
  28 C28            9.1410     2.5528     0.6026 C.ar    
  29 C29            8.9568     2.7496     1.9590 C.ar    
  30 C30            7.8418     2.2302     2.5909 C.ar    
  31 C31            6.9088     1.5122     1.8690 C.ar    
  32 H32            0.1469     1.4207    -0.7289 H       
  33 H33           -0.3538     1.0382     0.9346 H       
  34 H34            0.2490    -2.0404    -1.8420 H       
  35 H35            0.0261    -0.3715    -2.4300 H       
  36 H36            2.1084     1.6669     0.6700 H       
  37 H37            1.8194     0.0896     1.4495 H       
  38 H38            2.8994    -3.9663    -5.2609 H       
  39 H39            4.7525    -2.1352    -3.9416 H       
  40 H40           -2.0106     0.1012    -1.0953 H       
  41 H41           -1.9463    -1.6571    -0.8262 H       
  42 H42           -2.0783    -0.5488     0.5604 H       
  43 H43            5.4846    -1.8572    -6.9408 H       
  44 H44            4.3184    -0.7193    -7.6575 H       
  45 H45            4.5879    -0.7272    -5.8980 H       
  46 H46            2.5579    -4.0015    -7.7590 H       
  47 H47            3.1140    -2.6281    -8.7453 H       
  48 H48            4.2982    -3.7534    -8.0385 H       
  49 H49            2.1385    -1.0480    -5.5243 H       
  50 H50            1.8690    -1.0401    -7.2837 H       
  51 H51            1.2901    -2.4065    -6.3008 H       
  52 H52            4.1737    -5.3943    -6.8874 H       
  53 H53            6.9945    -5.3173    -7.0047 H       
  54 H54            6.5182    -6.3022    -5.6006 H       
  55 H55            6.0041    -6.7779    -7.2369 H       
  56 H56            6.4354     0.0228    -0.9628 H       
  57 H57            8.3588     1.6783    -1.1835 H       
  58 H58           10.0127     2.9601     0.1120 H       
  59 H59            9.6851     3.3104     2.5259 H       
  60 H60            7.7012     2.3850     3.6505 H       
  61 H61            6.0382     1.1068     2.3632 H       
@<TRIPOS>BOND
   1    1    2 1
   2    1    6 1
   3    1   32 1
   4    1   33 1
   5    2    3 1
   6    2   15 1
   7    3    4 1
   8    3   34 1
   9    3   35 1
  10    4    5 1
  11    4    7 2
  12    5    6 1
  13    5    9 1
  14    6   36 1
  15    6   37 1
  16    7    8 1
  17    7   11 1
  18    8    9 2
  19    9   10 1
  20   10   24 2
  21   10   25 am
  22   11   12 2
  23   11   14 am
  24   13   14 1
  25   13   16 1
  26   13   17 1
  27   13   38 1
  28   14   39 1
  29   15   40 1
  30   15   41 1
  31   15   42 1
  32   16   19 1
  33   16   20 1
  34   16   21 1
  35   17   18 2
  36   17   22 am
  37   19   43 1
  38   19   44 1
  39   19   45 1
  40   20   46 1
  41   20   47 1
  42   20   48 1
  43   21   49 1
  44   21   50 1
  45   21   51 1
  46   22   23 1
  47   22   52 1
  48   23   53 1
  49   23   54 1
  50   23   55 1
  51   25   27 1
  52   25   56 1
  53   26   27 ar
  54   26   28 ar
  55   26   57 1
  56   27   31 ar
  57   28   29 ar
  58   28   58 1
  59   29   30 ar
  60   29   59 1
  61   30   31 ar
  62   30   60 1
  63   31   61 1

#	End of record

