#	Name: ASD03330168
#	Creating user name:	WinNT
#	Creation time:	15. 06. 2019 20:36

#	Modifying user name:	WinNT
#	Modification time:	15. 06. 2019 20:36

#	Program:	/corina/corina34_cracker 3.40 0067  02.08.2006

@<TRIPOS>MOLECULE
ASD03330168
  51   53    0    0    0
SMALL
NO_CHARGES


@<TRIPOS>ATOM
   1 C1            -0.6006     0.6186    -2.9902 C.ar    
   2 C2            -1.9111     0.8596    -3.3636 C.ar    
   3 C3            -2.9500     0.3525    -2.6081 C.ar    
   4 C4            -2.6787    -0.4002    -1.4732 C.ar    
   5 C5            -1.3628    -0.6409    -1.1009 C.ar    
   6 C6            -0.3274    -0.1356    -1.8626 C.ar    
   7 Cl7            0.7031     1.2575    -3.9421 Cl      
   8 N8            -3.7299    -0.9150    -0.7053 N.am    
   9 C9            -4.8847    -0.2284    -0.5975 C.2     
  10 N10           -5.9335    -0.7716     0.0518 N.am    
  11 O11           -4.9804     0.8809    -1.0859 O.2     
  12 C12           -7.0950    -0.0186     0.2580 C.ar    
  13 C13           -8.3336    -0.6415     0.2616 C.ar    
  14 C14           -9.4868     0.1120     0.4672 C.ar    
  15 C15           -9.3891     1.4877     0.6682 C.ar    
  16 C16           -8.1518     2.1005     0.6627 C.ar    
  17 C17           -7.0067     1.3527     0.4649 C.ar    
  18 C18          -10.8154    -0.5479     0.4717 C.ar    
  19 N19          -10.8990    -1.8589     0.2790 N.ar    
  20 C20          -11.9614     0.2121     0.6836 C.ar    
  21 C21          -13.1984    -0.4142     0.6865 C.ar    
  22 C22          -13.2492    -1.7814     0.4771 C.ar    
  23 C23          -12.0645    -2.4844     0.2763 C.ar    
  24 N24          -12.1073    -3.8575     0.0650 N.pl3   
  25 C25          -13.3979    -4.5403    -0.0549 C.3     
  26 C26           -9.1442    -5.9054     1.2446 C.3     
  27 C27          -10.4449    -5.1070     1.3520 C.3     
  28 C28          -10.8618    -4.6219    -0.0378 C.3     
  29 H29           -2.1216     1.4451    -4.2464 H       
  30 H30           -3.9727     0.5415    -2.8995 H       
  31 H31           -1.1491    -1.2257    -0.2184 H       
  32 H32            0.6963    -0.3228    -1.5737 H       
  33 H33           -3.6272    -1.7657    -0.2509 H       
  34 H34           -5.8832    -1.6844     0.3761 H       
  35 H35           -8.4041    -1.7077     0.1050 H       
  36 H36          -10.2815     2.0747     0.8279 H       
  37 H37           -8.0784     3.1668     0.8179 H       
  38 H38           -6.0413     1.8368     0.4616 H       
  39 H39          -11.8883     1.2776     0.8444 H       
  40 H40          -14.1031     0.1527     0.8490 H       
  41 H41          -14.1976    -2.2981     0.4736 H       
  42 H42          -13.7061    -4.5536    -1.1004 H       
  43 H43          -13.3029    -5.5633     0.3090 H       
  44 H44          -14.1450    -4.0119     0.5374 H       
  45 H45           -8.8471    -6.2509     2.2348 H       
  46 H46           -9.2978    -6.7641     0.5911 H       
  47 H47           -8.3609    -5.2699     0.8315 H       
  48 H48          -11.2282    -5.7425     1.7652 H       
  49 H49          -10.2913    -4.2483     2.0056 H       
  50 H50          -11.0155    -5.4806    -0.6914 H       
  51 H51          -10.0785    -3.9865    -0.4510 H       
@<TRIPOS>BOND
   1    1    2 ar
   2    1    7 1
   3    1    6 ar
   4    2    3 ar
   5    2   29 1
   6    3    4 ar
   7    3   30 1
   8    4    5 ar
   9    4    8 1
  10    5    6 ar
  11    5   31 1
  12    6   32 1
  13    8    9 am
  14    8   33 1
  15    9   10 am
  16    9   11 2
  17   10   12 1
  18   10   34 1
  19   12   13 ar
  20   12   17 ar
  21   13   14 ar
  22   13   35 1
  23   14   15 ar
  24   14   18 1
  25   15   16 ar
  26   15   36 1
  27   16   17 ar
  28   16   37 1
  29   17   38 1
  30   18   19 ar
  31   18   20 ar
  32   19   23 ar
  33   20   21 ar
  34   20   39 1
  35   21   22 ar
  36   21   40 1
  37   22   23 ar
  38   22   41 1
  39   23   24 1
  40   24   25 1
  41   24   28 1
  42   25   42 1
  43   25   43 1
  44   25   44 1
  45   26   27 1
  46   26   45 1
  47   26   46 1
  48   26   47 1
  49   27   28 1
  50   27   48 1
  51   27   49 1
  52   28   50 1
  53   28   51 1

#	End of record

