#	Name: ASD00100132
#	Creating user name:	WinNT
#	Creation time:	15. 06. 2019 18:30

#	Modifying user name:	WinNT
#	Modification time:	15. 06. 2019 18:30

#	Program:	/corina/corina34_cracker 3.40 0067  02.08.2006

@<TRIPOS>MOLECULE
ASD00100132
  42   44    0    0    0
SMALL
NO_CHARGES


@<TRIPOS>ATOM
   1 N1            -0.0340     1.3986    -0.0285 N.pl3   
   2 C2            -0.0189     0.0182    -0.1334 C.2     
   3 N3             1.0409    -0.7186    -0.3617 N.2     
   4 C4             0.6750    -2.0244    -0.3987 C.2     
   5 C5            -0.6623    -2.0889    -0.1845 C.2     
   6 N6            -1.1009    -0.7979    -0.0107 N.pl3   
   7 C7             1.5784    -3.1778    -0.6323 C.ar    
   8 C8             2.9406    -2.9673    -0.8392 C.ar    
   9 C9             3.7780    -4.0417    -1.0557 C.ar    
  10 C10            3.2654    -5.3316    -1.0675 C.ar    
  11 C11            1.9093    -5.5446    -0.8617 C.ar    
  12 C12            1.0676    -4.4747    -0.6395 C.ar    
  13 O13            4.0930    -6.3883    -1.2815 O.3     
  14 C14            3.4991    -7.6880    -1.2807 C.3     
  15 C15           -2.4791    -0.3778     0.2545 C.3     
  16 C16           -3.3873    -1.5797     0.2138 C.ar    
  17 C17           -3.6320    -2.3016     1.3676 C.ar    
  18 C18           -4.4658    -3.4052     1.3302 C.ar    
  19 C19           -5.0557    -3.7884     0.1399 C.ar    
  20 C20           -4.8137    -3.0706    -1.0151 C.ar    
  21 C21           -3.9829    -1.9597    -0.9796 C.ar    
  22 O22           -3.7484    -1.2487    -2.1138 O.3     
  23 C23           -4.3953    -1.6976    -3.3063 C.3     
  24 Cl24          -2.8924    -1.8234     2.8636 Cl      
  25 H25            0.7985     1.8958    -0.0518 H       
  26 H26           -0.8773     1.8687     0.0644 H       
  27 H27           -1.2664    -2.9836    -0.1525 H       
  28 H28            3.3400    -1.9639    -0.8305 H       
  29 H29            4.8335    -3.8792    -1.2164 H       
  30 H30            1.5134    -6.5494    -0.8719 H       
  31 H31            0.0133    -4.6413    -0.4750 H       
  32 H32            4.2680    -8.4390    -1.4624 H       
  33 H33            3.0316    -7.8733    -0.3137 H       
  34 H34            2.7447    -7.7433    -2.0656 H       
  35 H35           -2.5344     0.0862     1.2392 H       
  36 H36           -2.7924     0.3401    -0.5036 H       
  37 H37           -4.6558    -3.9683     2.2320 H       
  38 H38           -5.7062    -4.6502     0.1131 H       
  39 H39           -5.2747    -3.3709    -1.9445 H       
  40 H40           -4.1238    -1.0438    -4.1351 H       
  41 H41           -4.0799    -2.7169    -3.5291 H       
  42 H42           -5.4758    -1.6745    -3.1642 H       
@<TRIPOS>BOND
   1    1    2 1
   2    1   25 1
   3    1   26 1
   4    2    3 2
   5    2    6 1
   6    3    4 1
   7    4    5 2
   8    4    7 1
   9    5    6 1
  10    5   27 1
  11    6   15 1
  12    7    8 ar
  13    7   12 ar
  14    8    9 ar
  15    8   28 1
  16    9   10 ar
  17    9   29 1
  18   10   11 ar
  19   10   13 1
  20   11   12 ar
  21   11   30 1
  22   12   31 1
  23   13   14 1
  24   14   32 1
  25   14   33 1
  26   14   34 1
  27   15   16 1
  28   15   35 1
  29   15   36 1
  30   16   17 ar
  31   16   21 ar
  32   17   18 ar
  33   17   24 1
  34   18   19 ar
  35   18   37 1
  36   19   20 ar
  37   19   38 1
  38   20   21 ar
  39   20   39 1
  40   21   22 1
  41   22   23 1
  42   23   40 1
  43   23   41 1
  44   23   42 1

#	End of record

