#	Name: ASD01150333
#	Creating user name:	WinNT
#	Creation time:	15. 06. 2019 19:04

#	Modifying user name:	WinNT
#	Modification time:	15. 06. 2019 19:04

#	Program:	/corina/corina34_cracker 3.40 0067  02.08.2006

@<TRIPOS>MOLECULE
ASD01150333
  66   68    0    0    0
SMALL
NO_CHARGES


@<TRIPOS>ATOM
   1 N1            -0.0046     1.3894    -0.0151 N.pl3   
   2 C2             0.0113    -0.0072    -0.0159 C.2     
   3 C3            -1.3194    -0.4055    -0.0054 C.2     
   4 N4            -2.0749     0.6961     0.0012 N.2     
   5 C5            -1.3103     1.7679     0.0007 C.2     
   6 C6             1.1467    -0.8426    -0.0258 C.2     
   7 C7             1.1105     2.2372    -0.0229 C.ar    
   8 C8             1.3490     3.0631    -1.1133 C.ar    
   9 C9             2.4493     3.8978    -1.1181 C.ar    
  10 C10            3.3131     3.9117    -0.0383 C.ar    
  11 C11            3.0784     3.0904     1.0491 C.ar    
  12 C12            1.9766     2.2576     1.0623 C.ar    
  13 N13           -1.7620     3.0675     0.0065 N.3     
  14 C14           -3.2302     3.1145     0.0128 C.3     
  15 C15           -1.2065     3.8128     1.1440 C.3     
  16 O16            1.0122    -2.0529    -0.0252 O.2     
  17 O17            2.3836    -0.3007    -0.0359 O.3     
  18 C18            3.4887    -1.2066    -0.0456 C.3     
  19 C19            3.4155    -2.0871    -1.2947 C.3     
  20 C20            4.7976    -0.4143    -0.0561 C.3     
  21 C21            3.4364    -2.0883     1.2037 C.3     
  22 N22           -1.7824    -1.7168    -0.0027 N.am    
  23 C23           -3.1073    -1.9636     0.0078 C.2     
  24 O24           -3.8957    -1.0422     0.0150 O.2     
  25 C25           -3.6090    -3.3847     0.0107 C.3     
  26 C26           -5.1393    -3.3851     0.0231 C.3     
  27 C27           -5.6453    -4.8305     0.0610 C.3     
  28 N28           -5.0508    -5.5692    -1.0614 N.am    
  29 C29           -3.5901    -5.5587    -1.2193 C.3     
  30 C30           -3.1071    -4.1051    -1.2428 C.3     
  31 C31           -5.8305    -6.2440    -1.9292 C.2     
  32 O32           -5.3377    -6.7705    -2.9043 O.2     
  33 C33           -7.3147    -6.3443    -1.6880 C.3     
  34 H34            0.6749     3.0525    -1.9571 H       
  35 H35            2.6355     4.5402    -1.9661 H       
  36 H36            4.1730     4.5650    -0.0445 H       
  37 H37            3.7550     3.1032     1.8908 H       
  38 H38            1.7936     1.6167     1.9121 H       
  39 H39           -3.6061     2.6099     0.9028 H       
  40 H40           -3.5605     4.1533     0.0173 H       
  41 H41           -3.6136     2.6152    -0.8771 H       
  42 H42           -0.1187     3.8212     1.0765 H       
  43 H43           -1.5797     4.8368     1.1245 H       
  44 H44           -1.5091     3.3335     2.0750 H       
  45 H45            3.4528    -1.4589    -2.1847 H       
  46 H46            4.2584    -2.7781    -1.3021 H       
  47 H47            2.4830    -2.6515    -1.2871 H       
  48 H48            4.8498     0.2130     0.8337 H       
  49 H49            5.6405    -1.1053    -0.0635 H       
  50 H50            4.8349     0.2138    -0.9462 H       
  51 H51            2.5039    -2.6527     1.2113 H       
  52 H52            4.2793    -2.7793     1.1963 H       
  53 H53            3.4886    -1.4610     2.0936 H       
  54 H54           -1.1517    -2.4538    -0.0085 H       
  55 H55           -3.2385    -3.8988     0.8976 H       
  56 H56           -5.4961    -2.8515     0.9041 H       
  57 H57           -5.5106    -2.8931    -0.8759 H       
  58 H58           -5.3512    -5.2961     1.0016 H       
  59 H59           -6.7315    -4.8399    -0.0299 H       
  60 H60           -3.1283    -6.0837    -0.3831 H       
  61 H61           -3.3202    -6.0486    -2.1549 H       
  62 H62           -3.4975    -3.6063    -2.1299 H       
  63 H63           -2.0175    -4.0840    -1.2629 H       
  64 H64           -7.8087    -5.4597    -2.0900 H       
  65 H65           -7.7039    -7.2341    -2.1827 H       
  66 H66           -7.5050    -6.4114    -0.6168 H       
@<TRIPOS>BOND
   1    1    2 1
   2    1    7 1
   3    1    5 1
   4    2    3 2
   5    2    6 1
   6    3    4 1
   7    3   22 1
   8    4    5 2
   9    5   13 1
  10    6   16 2
  11    6   17 1
  12    7    8 ar
  13    7   12 ar
  14    8    9 ar
  15    8   34 1
  16    9   10 ar
  17    9   35 1
  18   10   11 ar
  19   10   36 1
  20   11   12 ar
  21   11   37 1
  22   12   38 1
  23   13   14 1
  24   13   15 1
  25   14   39 1
  26   14   40 1
  27   14   41 1
  28   15   42 1
  29   15   43 1
  30   15   44 1
  31   17   18 1
  32   18   19 1
  33   18   20 1
  34   18   21 1
  35   19   45 1
  36   19   46 1
  37   19   47 1
  38   20   48 1
  39   20   49 1
  40   20   50 1
  41   21   51 1
  42   21   52 1
  43   21   53 1
  44   22   23 am
  45   22   54 1
  46   23   24 2
  47   23   25 1
  48   25   26 1
  49   25   30 1
  50   25   55 1
  51   26   27 1
  52   26   56 1
  53   26   57 1
  54   27   28 1
  55   27   58 1
  56   27   59 1
  57   28   29 1
  58   28   31 am
  59   29   30 1
  60   29   60 1
  61   29   61 1
  62   30   62 1
  63   30   63 1
  64   31   32 2
  65   31   33 1
  66   33   64 1
  67   33   65 1
  68   33   66 1

#	End of record

