#	Name: ASD01150933
#	Creating user name:	WinNT
#	Creation time:	15. 06. 2019 19:05

#	Modifying user name:	WinNT
#	Modification time:	15. 06. 2019 19:05

#	Program:	/corina/corina34_cracker 3.40 0067  02.08.2006

@<TRIPOS>MOLECULE
ASD01150933
  56   59    0    0    0
SMALL
NO_CHARGES


@<TRIPOS>ATOM
   1 C1            -0.0179     1.4725     0.0101 C.ar    
   2 C2             0.0021    -0.0041     0.0020 C.2     
   3 N3            -1.1558    -0.6938     0.0094 N.am    
   4 O4             1.0630    -0.5975    -0.0113 O.2     
   5 C5            -1.1370    -2.0832     0.0017 C.2     
   6 N6            -0.0474    -2.8552    -0.0124 N.2     
   7 C7            -0.3940    -4.1261    -0.0160 C.2     
   8 N8            -1.7513    -4.2226    -0.0042 N.pl3   
   9 C9            -2.2487    -2.9172     0.0134 C.2     
  10 C10           -3.6021    -2.5258     0.0305 C.2     
  11 O11           -4.5758    -3.4616     0.0309 O.3     
  12 O12           -3.8939    -1.3434     0.0449 O.2     
  13 C13           -5.9257    -2.9933     0.0486 C.3     
  14 C14           -6.8804    -4.1890     0.0463 C.3     
  15 S15            0.7244    -5.4875    -0.0336 S.3     
  16 C16            2.3012    -4.5988    -0.0424 C.3     
  17 C17           -2.5046    -5.4034    -0.0044 C.ar    
  18 C18            1.1822     2.1881     0.0025 C.ar    
  19 C19            1.1623     3.5645     0.0102 C.ar    
  20 C20           -0.0555     4.2449     0.0255 C.ar    
  21 C21           -1.2544     3.5316     0.0331 C.ar    
  22 C22           -1.2371     2.1552     0.0196 C.ar    
  23 C23           -0.0756     5.7275     0.0342 C.ar    
  24 C24           -1.2907     6.4107     0.0495 C.ar    
  25 C25           -1.3032     7.7906     0.0575 C.ar    
  26 C26           -0.1132     8.4959     0.0503 C.ar    
  27 C27            1.0956     7.8233     0.0351 C.ar    
  28 C28            1.1205     6.4435     0.0328 C.ar    
  29 C29           -2.4411    -6.2694     1.0793 C.ar    
  30 C30           -3.1855    -7.4328     1.0763 C.ar    
  31 C31           -3.9935    -7.7355    -0.0043 C.ar    
  32 C32           -4.0589    -6.8752    -1.0850 C.ar    
  33 C33           -3.3209    -5.7077    -1.0857 C.ar    
  34 H34           -2.0023    -0.2203     0.0200 H       
  35 H35           -6.0918    -2.3975     0.9462 H       
  36 H36           -6.1092    -2.3801    -0.8336 H       
  37 H37           -6.7143    -4.7848    -0.8512 H       
  38 H38           -6.6969    -4.8022     0.9286 H       
  39 H39           -7.9101    -3.8318     0.0598 H       
  40 H40            3.1223    -5.3157    -0.0536 H       
  41 H41            2.3577    -3.9678    -0.9293 H       
  42 H42            2.3733    -3.9778     0.8505 H       
  43 H43            2.1251     1.6615    -0.0090 H       
  44 H44            2.0897     4.1178     0.0046 H       
  45 H45           -2.1966     4.0594     0.0453 H       
  46 H46           -2.1653     1.6031     0.0256 H       
  47 H47           -2.2204     5.8611     0.0547 H       
  48 H48           -2.2440     8.3210     0.0690 H       
  49 H49           -0.1278     9.5758     0.0563 H       
  50 H50            2.0215     8.3791     0.0292 H       
  51 H51            2.0647     5.9194     0.0213 H       
  52 H52           -1.8100    -6.0337     1.9234 H       
  53 H53           -3.1363    -8.1068     1.9186 H       
  54 H54           -4.5744    -8.6460    -0.0045 H       
  55 H55           -4.6906    -7.1146    -1.9276 H       
  56 H56           -3.3724    -5.0362    -1.9300 H       
@<TRIPOS>BOND
   1    1    2 1
   2    1   18 ar
   3    1   22 ar
   4    2    3 am
   5    2    4 2
   6    3    5 1
   7    3   34 1
   8    5    6 1
   9    5    9 2
  10    6    7 2
  11    7    8 1
  12    7   15 1
  13    8    9 1
  14    8   17 1
  15    9   10 1
  16   10   11 1
  17   10   12 2
  18   11   13 1
  19   13   14 1
  20   13   35 1
  21   13   36 1
  22   14   37 1
  23   14   38 1
  24   14   39 1
  25   15   16 1
  26   16   40 1
  27   16   41 1
  28   16   42 1
  29   17   29 ar
  30   17   33 ar
  31   18   19 ar
  32   18   43 1
  33   19   20 ar
  34   19   44 1
  35   20   21 ar
  36   20   23 1
  37   21   22 ar
  38   21   45 1
  39   22   46 1
  40   23   24 ar
  41   23   28 ar
  42   24   25 ar
  43   24   47 1
  44   25   26 ar
  45   25   48 1
  46   26   27 ar
  47   26   49 1
  48   27   28 ar
  49   27   50 1
  50   28   51 1
  51   29   30 ar
  52   29   52 1
  53   30   31 ar
  54   30   53 1
  55   31   32 ar
  56   31   54 1
  57   32   33 ar
  58   32   55 1
  59   33   56 1

#	End of record

