#	Name: ASD01881420
#	Creating user name:	WinNT
#	Creation time:	15. 06. 2019 19:42

#	Modifying user name:	WinNT
#	Modification time:	15. 06. 2019 19:42

#	Program:	/corina/corina34_cracker 3.40 0067  02.08.2006

@<TRIPOS>MOLECULE
ASD01881420
  57   58    0    0    0
SMALL
NO_CHARGES


@<TRIPOS>ATOM
   1 C1            -0.0099     1.4719     0.0863 C.2     
   2 C2             0.0060    -0.0047     0.0389 C.ar    
   3 C3             1.2131    -0.6876    -0.1184 C.ar    
   4 C4             1.2200    -2.0712    -0.1619 C.ar    
   5 C5             0.0289    -2.7761    -0.0492 C.ar    
   6 C6            -1.1676    -2.1013     0.1067 C.ar    
   7 C7            -1.1857    -0.7224     0.1572 C.ar    
   8 O8             1.0353     2.0906     0.0937 O.2     
   9 O9            -1.1837     2.1322     0.1157 O.3     
  10 C10            2.5048     0.0790    -0.2411 C.3     
  11 O11            2.3931    -2.7401    -0.3155 O.3     
  12 C12            2.3263    -4.1671    -0.3520 C.3     
  13 C13            3.7342    -4.7392    -0.5292 C.3     
  14 C14            3.6627    -6.2670    -0.5683 C.3     
  15 C15            5.0706    -6.8391    -0.7455 C.3     
  16 O16            5.0038    -8.2661    -0.7820 O.3     
  17 C17            6.1748    -8.9338    -0.9353 C.ar    
  18 C18            6.1781   -10.3209    -0.9785 C.ar    
  19 C19            7.3713   -11.0040    -1.1352 C.ar    
  20 C20            8.5744   -10.2839    -1.2498 C.ar    
  21 C21            8.5517    -8.8835    -1.2039 C.ar    
  22 C22            7.3666    -8.2237    -1.0542 C.ar    
  23 C23            4.8837   -11.0825    -0.8543 C.3     
  24 O24            7.3809   -12.3594    -1.1777 O.3     
  25 C25            9.8447   -10.9945    -1.4156 C.2     
  26 O26            9.8610   -12.2071    -1.4545 O.2     
  27 C27           11.1313   -10.2193    -1.5380 C.3     
  28 C28           12.3000   -11.1933    -1.7004 C.3     
  29 C29           13.6062   -10.4064    -1.8246 C.3     
  30 H30            0.0372    -3.8555    -0.0839 H       
  31 H31           -2.0906    -2.6553     0.1938 H       
  32 H32           -2.1216    -0.1986     0.2840 H       
  33 H33           -1.1435     3.0979     0.1463 H       
  34 H34            2.8700     0.3370     0.7529 H       
  35 H35            3.2454    -0.5364    -0.7519 H       
  36 H36            2.3332     0.9909    -0.8131 H       
  37 H37            1.8995    -4.5348     0.5811 H       
  38 H38            1.6992    -4.4802    -1.1867 H       
  39 H39            4.1610    -4.3715    -1.4623 H       
  40 H40            4.3613    -4.4260     0.3055 H       
  41 H41            3.2359    -6.6348     0.3648 H       
  42 H42            3.0356    -6.5802    -1.4030 H       
  43 H43            5.4974    -6.4714    -1.6786 H       
  44 H44            5.6977    -6.5260     0.0893 H       
  45 H45            9.4724    -8.3258    -1.2914 H       
  46 H46            7.3535    -7.1442    -1.0239 H       
  47 H47            4.4551   -11.2346    -1.8449 H       
  48 H48            5.0742   -12.0493    -0.3885 H       
  49 H49            4.1854   -10.5144    -0.2397 H       
  50 H50            7.2837   -12.7257    -2.0673 H       
  51 H51           11.0799    -9.5651    -2.4083 H       
  52 H52           11.2806    -9.6191    -0.6405 H       
  53 H53           12.3513   -11.8476    -0.8301 H       
  54 H54           12.1507   -11.7936    -2.5979 H       
  55 H55           13.5549    -9.7521    -2.6949 H       
  56 H56           13.7555    -9.8061    -0.9271 H       
  57 H57           14.4388   -11.1002    -1.9403 H       
@<TRIPOS>BOND
   1    1    2 1
   2    1    8 2
   3    1    9 1
   4    2    3 ar
   5    2    7 ar
   6    3    4 ar
   7    3   10 1
   8    4    5 ar
   9    4   11 1
  10    5    6 ar
  11    5   30 1
  12    6    7 ar
  13    6   31 1
  14    7   32 1
  15    9   33 1
  16   10   34 1
  17   10   35 1
  18   10   36 1
  19   11   12 1
  20   12   13 1
  21   12   37 1
  22   12   38 1
  23   13   14 1
  24   13   39 1
  25   13   40 1
  26   14   15 1
  27   14   41 1
  28   14   42 1
  29   15   16 1
  30   15   43 1
  31   15   44 1
  32   16   17 1
  33   17   18 ar
  34   17   22 ar
  35   18   19 ar
  36   18   23 1
  37   19   20 ar
  38   19   24 1
  39   20   21 ar
  40   20   25 1
  41   21   22 ar
  42   21   45 1
  43   22   46 1
  44   23   47 1
  45   23   48 1
  46   23   49 1
  47   24   50 1
  48   25   26 2
  49   25   27 1
  50   27   28 1
  51   27   51 1
  52   27   52 1
  53   28   29 1
  54   28   53 1
  55   28   54 1
  56   29   55 1
  57   29   56 1
  58   29   57 1

#	End of record

