#	Name: ASD01230223
#	Creating user name:	WinNT
#	Creation time:	15. 06. 2019 19:12

#	Modifying user name:	WinNT
#	Modification time:	15. 06. 2019 19:12

#	Program:	/corina/corina34_cracker 3.40 0067  02.08.2006

@<TRIPOS>MOLECULE
ASD01230223
  37   39    0    0    0
SMALL
NO_CHARGES


@<TRIPOS>ATOM
   1 C1             0.1154     1.4839     0.2269 C.3     
   2 C2             0.0018    -0.0039     0.0018 C.2     
   3 C3             0.9171    -0.6375    -0.7598 C.2     
   4 C4             2.0405     0.1085    -1.3246 C.2     
   5 C5             2.3111     1.3463    -0.8710 C.2     
   6 N6             1.5270     1.8759     0.1408 N.pl3   
   7 N7            -0.6559     2.1964    -0.8004 N.3     
   8 C8            -1.1036    -0.7611     0.6116 C.ar    
   9 C9            -0.8368    -1.7337     1.5806 C.ar    
  10 C10           -1.8743    -2.4396     2.1490 C.ar    
  11 C11           -3.1853    -2.1866     1.7603 C.ar    
  12 C12           -3.4551    -1.2205     0.7972 C.ar    
  13 C13           -2.4240    -0.5059     0.2278 C.ar    
  14 N14           -4.2340    -2.9053     2.3385 N.3     
  15 C15           -3.9672    -3.1751     3.7633 C.3     
  16 C16           -5.1471    -2.5907     4.5681 C.3     
  17 C17           -6.2879    -2.5261     3.5187 C.3     
  18 C18           -5.5079    -2.1628     2.2305 C.3     
  19 H19           -0.2728     1.7337     1.2144 H       
  20 H20            0.8203    -1.6959    -0.9520 H       
  21 H21            2.6495    -0.3311    -2.1007 H       
  22 H22            3.1269     1.9176    -1.2889 H       
  23 H23            1.9053     2.4970     0.7828 H       
  24 H24           -0.5951     3.1951    -0.6705 H       
  25 H25           -0.3540     1.9332    -1.7266 H       
  26 H26            0.1811    -1.9312     1.8826 H       
  27 H27           -1.6692    -3.1908     2.8974 H       
  28 H28           -4.4747    -1.0272     0.4982 H       
  29 H29           -2.6348     0.2472    -0.5172 H       
  30 H30           -3.9003    -4.2501     3.9309 H       
  31 H31           -3.0376    -2.6921     4.0644 H       
  32 H32           -5.4175    -3.2523     5.3910 H       
  33 H33           -4.9058    -1.5938     4.9369 H       
  34 H34           -6.7805    -3.4931     3.4173 H       
  35 H35           -7.0077    -1.7477     3.7719 H       
  36 H36           -5.3197    -1.0899     2.1907 H       
  37 H37           -6.0612    -2.4849     1.3483 H       
@<TRIPOS>BOND
   1    1    2 1
   2    1    6 1
   3    1    7 1
   4    1   19 1
   5    2    3 2
   6    2    8 1
   7    3    4 1
   8    3   20 1
   9    4    5 2
  10    4   21 1
  11    5    6 1
  12    5   22 1
  13    6   23 1
  14    7   24 1
  15    7   25 1
  16    8    9 ar
  17    8   13 ar
  18    9   10 ar
  19    9   26 1
  20   10   11 ar
  21   10   27 1
  22   11   12 ar
  23   11   14 1
  24   12   13 ar
  25   12   28 1
  26   13   29 1
  27   14   15 1
  28   14   18 1
  29   15   16 1
  30   15   30 1
  31   15   31 1
  32   16   17 1
  33   16   32 1
  34   16   33 1
  35   17   18 1
  36   17   34 1
  37   17   35 1
  38   18   36 1
  39   18   37 1

#	End of record

