#	Name: ASD03091664
#	Creating user name:	WinNT
#	Creation time:	15. 06. 2019 20:31

#	Modifying user name:	WinNT
#	Modification time:	15. 06. 2019 20:31

#	Program:	/corina/corina34_cracker 3.40 0067  02.08.2006

@<TRIPOS>MOLECULE
ASD03091664
  52   55    0    0    0
SMALL
NO_CHARGES


@<TRIPOS>ATOM
   1 C1            -0.0170     1.3998     0.0097 C.ar    
   2 C2            -1.2283     2.0682     0.0306 C.ar    
   3 C3            -2.4087     1.3494     0.0435 C.ar    
   4 C4            -2.3914    -0.0360     0.0356 C.ar    
   5 C5            -1.1918    -0.7183     0.0148 C.ar    
   6 C6             0.0021    -0.0041     0.0020 C.ar    
   7 O7             1.1631     2.0665     0.0021 O.3     
   8 C8             2.2620     1.4580     0.6804 C.3     
   9 N9             2.4081     0.0565     0.2863 N.am    
  10 C10            1.3144    -0.6822    -0.0142 C.2     
  11 C11           -3.6892    -0.8018     0.0501 C.3     
  12 C12           -4.2052    -0.9426    -1.3588 C.ar    
  13 C13           -5.0411     0.0169    -1.8944 C.ar    
  14 C14           -3.8403    -2.0356    -2.1332 C.ar    
  15 C15           -4.3362    -2.1269    -3.4215 C.ar    
  16 C16           -5.1786    -1.1264    -3.8946 C.ar    
  17 N17           -5.4989    -0.0961    -3.1267 N.ar    
  18 O18            1.4088    -1.8630    -0.2883 O.2     
  19 C19            3.7406    -0.5484     0.2167 C.3     
  20 C20            4.0067    -1.0782    -1.2075 C.3     
  21 O21            4.7849    -0.1397    -1.9530 O.3     
  22 N22           -5.6837    -1.2052    -5.1872 N.pl3   
  23 C23           -1.2604     3.5748     0.0397 C.3     
  24 C24           -3.7269     2.0794     0.0669 C.3     
  25 C25            3.8182    -1.7624     1.1590 C.3     
  26 C26            4.1288    -2.9876     0.2746 C.3     
  27 C27            4.8045    -2.3868    -0.9830 C.3     
  28 H28           -1.1800    -1.7983     0.0090 H       
  29 H29            3.1773     1.9966     0.4346 H       
  30 H30            2.0934     1.5120     1.7559 H       
  31 H31           -3.5226    -1.7910     0.4766 H       
  32 H32           -4.4213    -0.2647     0.6532 H       
  33 H33           -5.3242     0.8708    -1.2968 H       
  34 H34           -3.1839    -2.7972    -1.7390 H       
  35 H35           -4.0724    -2.9636    -4.0515 H       
  36 H36            4.4984     0.1857     0.4904 H       
  37 H37            3.0669    -1.2851    -1.7194 H       
  38 H38            5.0307    -0.4465    -2.8364 H       
  39 H39           -5.4483    -1.9557    -5.7550 H       
  40 H40           -6.2716    -0.5099    -5.5215 H       
  41 H41           -1.2533     3.9321     1.0695 H       
  42 H42           -0.3858     3.9600    -0.4845 H       
  43 H43           -2.1652     3.9220    -0.4591 H       
  44 H44           -4.0596     2.2614    -0.9550 H       
  45 H45           -4.4684     1.4737     0.5879 H       
  46 H46           -3.6062     3.0309     0.5846 H       
  47 H47            4.6142    -1.6178     1.8894 H       
  48 H48            2.8645    -1.9015     1.6680 H       
  49 H49            4.8114    -3.6652     0.7875 H       
  50 H50            3.2087    -3.5050     0.0028 H       
  51 H51            4.6967    -3.0561    -1.8365 H       
  52 H52            5.8554    -2.1704    -0.7908 H       
@<TRIPOS>BOND
   1    1    6 ar
   2    1    7 1
   3    1    2 ar
   4    2    3 ar
   5    2   23 1
   6    3    4 ar
   7    3   24 1
   8    4    5 ar
   9    4   11 1
  10    5    6 ar
  11    5   28 1
  12    6   10 1
  13    7    8 1
  14    8    9 1
  15    8   29 1
  16    8   30 1
  17    9   10 am
  18    9   19 1
  19   10   18 2
  20   11   12 1
  21   11   31 1
  22   11   32 1
  23   12   14 ar
  24   12   13 ar
  25   13   17 ar
  26   13   33 1
  27   14   15 ar
  28   14   34 1
  29   15   16 ar
  30   15   35 1
  31   16   22 1
  32   16   17 ar
  33   19   25 1
  34   19   20 1
  35   19   36 1
  36   20   21 1
  37   20   27 1
  38   20   37 1
  39   21   38 1
  40   22   39 1
  41   22   40 1
  42   23   41 1
  43   23   42 1
  44   23   43 1
  45   24   44 1
  46   24   45 1
  47   24   46 1
  48   25   26 1
  49   25   47 1
  50   25   48 1
  51   26   27 1
  52   26   49 1
  53   26   50 1
  54   27   51 1
  55   27   52 1

#	End of record

