#	Name: ASD02401005
#	Creating user name:	WinNT
#	Creation time:	15. 06. 2019 20:20

#	Modifying user name:	WinNT
#	Modification time:	15. 06. 2019 20:20

#	Program:	/corina/corina34_cracker 3.40 0067  02.08.2006

@<TRIPOS>MOLECULE
ASD02401005
  29   30    0    0    0
SMALL
NO_CHARGES


@<TRIPOS>ATOM
   1 C1            -0.0168     1.3849     0.0097 C.ar    
   2 C2             0.0021    -0.0041     0.0020 C.ar    
   3 C3            -1.1853    -0.7092     0.0100 C.ar    
   4 C4            -2.3921    -0.0342     0.0257 C.ar    
   5 C5            -2.4145     1.3485     0.0329 C.ar    
   6 C6            -1.2307     2.0598     0.0307 C.ar    
   7 C7            -3.7320     2.0798     0.0494 C.3     
   8 C8            -4.1573     2.3165     1.4756 C.ar    
   9 C9            -3.7708     3.4724     2.1289 C.ar    
  10 C10           -4.1585     3.6933     3.4378 C.ar    
  11 C11           -4.9339     2.7596     4.0968 C.ar    
  12 C12           -5.3243     1.5976     3.4435 C.ar    
  13 C13           -4.9374     1.3813     2.1270 C.ar    
  14 N14            1.1823     2.1012     0.0021 N.pl3   
  15 N15           -6.1084     0.6512     4.1071 N.pl3   
  16 H16            0.9442    -0.5319    -0.0105 H       
  17 H17           -1.1714    -1.7891     0.0038 H       
  18 H18           -3.3192    -0.5881     0.0319 H       
  19 H19           -1.2489     3.1396     0.0363 H       
  20 H20           -3.6227     3.0369    -0.4607 H       
  21 H21           -4.4866     1.4806    -0.4601 H       
  22 H22           -3.1645     4.2041     1.6158 H       
  23 H23           -3.8543     4.5968     3.9453 H       
  24 H24           -5.2360     2.9326     5.1192 H       
  25 H25           -5.2392     0.4789     1.6161 H       
  26 H26            2.0294     1.6288    -0.0086 H       
  27 H27            1.1679     3.0711     0.0074 H       
  28 H28           -6.3810     0.8050     5.0252 H       
  29 H29           -6.3805    -0.1599     3.6498 H       
@<TRIPOS>BOND
   1    1    2 ar
   2    1   14 1
   3    1    6 ar
   4    2    3 ar
   5    2   16 1
   6    3    4 ar
   7    3   17 1
   8    4    5 ar
   9    4   18 1
  10    5    6 ar
  11    5    7 1
  12    6   19 1
  13    7    8 1
  14    7   20 1
  15    7   21 1
  16    8    9 ar
  17    8   13 ar
  18    9   10 ar
  19    9   22 1
  20   10   11 ar
  21   10   23 1
  22   11   12 ar
  23   11   24 1
  24   12   13 ar
  25   12   15 1
  26   13   25 1
  27   14   26 1
  28   14   27 1
  29   15   28 1
  30   15   29 1

#	End of record

