#	Name: ASD01440123
#	Creating user name:	WinNT
#	Creation time:	15. 06. 2019 19:21

#	Modifying user name:	WinNT
#	Modification time:	15. 06. 2019 19:21

#	Program:	/corina/corina34_cracker 3.40 0067  02.08.2006

@<TRIPOS>MOLECULE
ASD01440123
  45   47    0    0    0
SMALL
NO_CHARGES


@<TRIPOS>ATOM
   1 C1             0.2348     1.5027     0.1010 C.ar    
   2 C2             0.2043     0.1290     0.1841 C.ar    
   3 C3             1.3912    -0.5916     0.2584 C.ar    
   4 C4             2.6134     0.0713     0.2491 C.ar    
   5 C5             2.6532     1.4447     0.1657 C.ar    
   6 C6             1.4619     2.1734     0.0908 C.ar    
   7 C7             1.4996     3.6452     0.0014 C.2     
   8 O8             0.4695     4.2711    -0.1591 O.2     
   9 C9             2.7887     4.3588     0.1069 C.ar    
  10 O10            1.3565    -1.9456     0.3406 O.3     
  11 C11            2.6124    -2.6234     0.4140 C.3     
  12 C12            2.3769    -4.1094     0.4993 C.2     
  13 N13            3.4241    -4.9543     0.5777 N.am    
  14 O14            1.2449    -4.5452     0.4974 O.2     
  15 C15            3.3967     4.8825    -1.0367 C.ar    
  16 C16            4.5999     5.5474    -0.9311 C.ar    
  17 C17            5.2064     5.6967     0.3044 C.ar    
  18 C18            4.6112     5.1812     1.4414 C.ar    
  19 C19            3.4031     4.5184     1.3519 C.ar    
  20 Br20           2.5866     3.8210     2.9085 Br      
  21 C21            3.2052    -6.3269     0.7565 C.ar    
  22 C22            2.1032    -6.9480     0.1713 C.ar    
  23 C23            1.9273    -8.3048     0.3743 C.ar    
  24 C24            2.8480    -8.9987     1.1492 C.ar    
  25 N25            3.8822    -8.3773     1.6898 N.ar    
  26 C26            4.0852    -7.0856     1.5131 C.ar    
  27 O27            2.6838   -10.3306     1.3540 O.3     
  28 C28            3.6635   -10.9887     2.1596 C.3     
  29 H29           -0.6874     2.0613     0.0391 H       
  30 H30           -0.7429    -0.3898     0.1919 H       
  31 H31            3.5329    -0.4922     0.3077 H       
  32 H32            3.6029     1.9588     0.1589 H       
  33 H33            3.1990    -2.3990    -0.4768 H       
  34 H34            3.1540    -2.2900     1.2992 H       
  35 H35            4.3293    -4.6122     0.5104 H       
  36 H36            2.9254     4.7664    -2.0015 H       
  37 H37            5.0707     5.9525    -1.8146 H       
  38 H38            6.1493     6.2179     0.3807 H       
  39 H39            5.0901     5.3011     2.4020 H       
  40 H40            1.4030    -6.3831    -0.4263 H       
  41 H41            1.0843    -8.8184    -0.0639 H       
  42 H42            4.9441    -6.6131     1.9664 H       
  43 H43            4.6449   -10.8824     1.6975 H       
  44 H44            3.6789   -10.5394     3.1526 H       
  45 H45            3.4141   -12.0465     2.2433 H       
@<TRIPOS>BOND
   1    1    2 ar
   2    1    6 ar
   3    1   29 1
   4    2    3 ar
   5    2   30 1
   6    3    4 ar
   7    3   10 1
   8    4    5 ar
   9    4   31 1
  10    5    6 ar
  11    5   32 1
  12    6    7 1
  13    7    8 2
  14    7    9 1
  15    9   15 ar
  16    9   19 ar
  17   10   11 1
  18   11   12 1
  19   11   33 1
  20   11   34 1
  21   12   13 am
  22   12   14 2
  23   13   21 1
  24   13   35 1
  25   15   16 ar
  26   15   36 1
  27   16   17 ar
  28   16   37 1
  29   17   18 ar
  30   17   38 1
  31   18   19 ar
  32   18   39 1
  33   19   20 1
  34   21   22 ar
  35   21   26 ar
  36   22   23 ar
  37   22   40 1
  38   23   24 ar
  39   23   41 1
  40   24   25 ar
  41   24   27 1
  42   25   26 ar
  43   26   42 1
  44   27   28 1
  45   28   43 1
  46   28   44 1
  47   28   45 1

#	End of record

