#	Name: ASD06590085
#	Creating user name:	WinNT
#	Creation time:	15. 06. 2019 21:06

#	Modifying user name:	WinNT
#	Modification time:	15. 06. 2019 21:06

#	Program:	/corina/corina34_cracker 3.40 0067  02.08.2006

@<TRIPOS>MOLECULE
ASD06590085
 305  304    0    0    0
SMALL
NO_CHARGES


@<TRIPOS>ATOM
   1 C1            -8.5911    19.3915     7.0860 C.2     
   2 O2            -9.0789    20.2203     6.3471 O.2     
   3 N3            -8.6983    21.1277     8.7782 N.am    
   4 C4            -8.3028    19.7403     8.5235 C.3     
   5 C5            -9.0937    18.8076     9.4431 C.3     
   6 C6            -8.8992    19.2402    10.8977 C.3     
   7 O7           -10.4814    18.8726     9.1082 O.3     
   8 C8           -10.1042    17.2398     5.2681 C.2     
   9 O9           -10.7234    17.1747     6.3089 O.2     
  10 N10           -8.3120    18.1569     6.6231 N.am    
  11 C11           -8.6977    17.7809     5.2607 C.3     
  12 C12           -7.7410    16.7076     4.7377 C.3     
  13 C13           -6.3551    17.2866     4.6148 C.2     
  14 O14           -6.1351    18.4182     4.9916 O.2     
  15 N15           -5.3602    16.5469     4.0862 N.am    
  16 C16          -12.2312    15.3812     2.9477 C.2     
  17 O17          -11.3148    15.1837     2.1782 O.2     
  18 N18          -10.6739    16.8283     4.1181 N.am    
  19 C19          -12.0412    16.3022     4.1252 C.3     
  20 C20          -13.0344    17.4622     4.0309 C.3     
  21 C21          -15.0108    13.3406     1.6122 C.2     
  22 O22          -15.7828    13.6703     2.4875 O.2     
  23 N23          -13.4196    14.7770     2.7496 N.am    
  24 C24          -13.6043    13.8817     1.6049 C.3     
  25 C25          -16.8135    10.6476    -0.0793 C.2     
  26 O26          -15.7969    10.1935    -0.5600 O.2     
  27 N27          -15.4107    12.4901     0.6461 N.am    
  28 C28          -16.7780    11.9641     0.6533 C.3     
  29 C29          -17.7108    12.9590    -0.0402 C.3     
  30 C30          -17.7710    14.2537     0.7729 C.3     
  31 C31          -18.7038    15.2485     0.0794 C.3     
  32 N32          -18.7614    16.4882     0.8580 N.pl3   
  33 C33          -19.5419    17.5349     0.4272 C.2     
  34 N34          -20.2305    17.4242    -0.6739 N.2     
  35 N35          -19.5959    18.6982     1.1578 N.pl3   
  36 C36          -19.3994     8.4526    -1.4424 C.2     
  37 O37          -20.2748     9.2684    -1.2448 O.2     
  38 N38          -17.9751     9.9749    -0.2002 N.am    
  39 C39          -18.0097     8.6951    -0.9124 C.3     
  40 C40          -17.6258     7.5670     0.0472 C.3     
  41 O41          -18.6153     7.4561     1.0722 O.3     
  42 C42          -21.9194     6.5063    -1.7484 C.2     
  43 O43          -21.5206     6.2326    -0.6362 O.2     
  44 N44          -19.6695     7.3290    -2.1361 N.am    
  45 C45          -20.9883     7.1445    -2.7468 C.3     
  46 C46          -20.8598     6.2405    -3.9745 C.3     
  47 C47          -20.0489     6.9429    -5.0329 C.2     
  48 O48          -19.5517     8.0188    -4.7981 O.2     
  49 O49          -19.8790     6.3733    -6.2364 O.3     
  50 C50          -25.1933     4.8834    -1.8522 C.2     
  51 O51          -25.2141     4.8777    -3.0648 O.2     
  52 N52          -23.1952     6.2397    -2.0914 N.am    
  53 C53          -24.1003     5.6193    -1.1208 C.3     
  54 C54          -24.7191     6.7030    -0.2355 C.3     
  55 C55          -23.6063     7.5308     0.4105 C.3     
  56 O56          -25.5451     7.5546    -1.0321 O.3     
  57 C57          -28.4251     3.4119    -0.9842 C.2     
  58 O58          -28.4053     3.8882     0.1310 O.2     
  59 N59          -26.1476     4.2316    -1.1587 N.am    
  60 C60          -27.2101     3.5162    -1.8697 C.3     
  61 C61          -26.7235     2.1125    -2.2354 C.3     
  62 C62          -25.5682     2.2171    -3.2330 C.3     
  63 C63          -25.0816     0.8134    -3.5987 C.3     
  64 N64          -23.9754     0.9134    -4.5539 N.pl3   
  65 C65          -23.3725    -0.2270    -5.0295 C.2     
  66 N66          -23.7852    -1.3972    -4.6305 N.2     
  67 N67          -22.3344    -0.1330    -5.9260 N.pl3   
  68 C68          -31.5389     1.4970    -0.9871 C.2     
  69 O69          -31.1757     0.8015    -1.9119 O.2     
  70 N70          -29.5335     2.7893    -1.4315 N.am    
  71 C71          -30.7146     2.6878    -0.5707 C.3     
  72 C72          -31.5534     3.9605    -0.7037 C.3     
  73 C73          -30.7605     5.1526    -0.1642 C.3     
  74 C74          -31.5868     6.4061    -0.2952 C.2     
  75 O75          -32.7001     6.3513    -0.7730 O.2     
  76 N76          -31.0884     7.5880     0.1186 N.am    
  77 C77          -34.9160     0.2621    -0.3288 C.2     
  78 O78          -35.2375     1.2818     0.2437 O.2     
  79 N79          -32.6799     1.2049    -0.3319 N.am    
  80 C80          -33.4813     0.0473    -0.7367 C.3     
  81 C81          -32.9402    -1.2111    -0.0551 C.3     
  82 C82          -31.5266    -1.4993    -0.5645 C.3     
  83 C83          -30.9937    -2.7388     0.1070 C.2     
  84 O84          -31.6772    -3.3331     0.9135 O.2     
  85 N85          -29.7574    -3.1868    -0.1889 N.am    
  86 C86          -37.9175    -1.8044    -0.0395 C.2     
  87 O87          -37.2985    -2.8290    -0.2346 O.2     
  88 N88          -35.8419    -0.6789    -0.6002 N.am    
  89 C89          -37.2367    -0.4700    -0.2036 C.3     
  90 C90          -37.9576     0.3411    -1.2822 C.3     
  91 C91          -41.3600    -2.9916     0.2805 C.2     
  92 O92          -41.8197    -1.8981     0.0274 O.2     
  93 N93          -39.2141    -1.8593     0.3241 N.am    
  94 C94          -39.8759    -3.1565     0.4836 C.3     
  95 C95          -39.6105    -3.6948     1.8909 C.3     
  96 C96          -38.1162    -3.9799     2.0544 C.3     
  97 C97          -37.8507    -4.5183     3.4618 C.3     
  98 N98          -36.4199    -4.7913     3.6184 N.pl3   
  99 C99          -35.9405    -5.2853     4.8085 C.2     
 100 N100         -36.7591    -5.5107     5.7975 N.2     
 101 N101         -34.5978    -5.5415     4.9554 N.pl3   
 102 C102         -44.3511    -4.9961     0.9120 C.2     
 103 O103         -43.7287    -5.8298     1.5352 O.2     
 104 N104         -42.1766    -4.0592     0.3801 N.am    
 105 C105         -43.6193    -3.8989     0.1827 C.3     
 106 C106         -43.9414    -3.9764    -1.3110 C.3     
 107 C107         -43.2998    -2.7900    -2.0333 C.3     
 108 C108         -43.6218    -2.8675    -3.5270 C.3     
 109 C109         -42.9802    -1.6812    -4.2493 C.3     
 110 N110         -43.2894    -1.7556    -5.6835 N.3     
 111 C111         -47.7650    -6.3207     0.8577 C.2     
 112 O112         -48.2056    -5.4344     0.1568 O.2     
 113 N113         -45.6971    -5.0508     0.8715 N.am    
 114 C114         -46.4033    -6.1772     1.4870 C.3     
 115 C115         -46.5592    -5.9227     2.9877 C.3     
 116 C116         -47.2674    -7.1139     3.6360 C.3     
 117 C117         -46.3683    -8.3490     3.5524 C.3     
 118 C118         -47.5614    -6.7955     5.1034 C.3     
 119 C119         -50.8278    -6.8935     1.4570 C.2     
 120 O120         -50.4397    -6.3889     2.4840 O.2     
 121 N121         -48.4933    -7.4340     1.0738 N.am    
 122 C122         -49.8446    -7.5445     0.5188 C.3     
 123 C123         -50.2057    -9.0212     0.3459 C.3     
 124 C124         -49.2853    -9.6522    -0.7008 C.3     
 125 C125         -49.5620   -11.1547    -0.7840 C.3     
 126 C126         -49.5472    -9.0092    -2.0642 C.3     
 127 O127         -52.1348    -6.8741     1.1519 O.3     
 128 C128          -8.1131    21.8235     9.7731 C.2     
 129 O129          -7.2590    21.3010    10.4576 O.2     
 130 C130          -5.7381    37.2726    20.1111 C.3     
 131 C131          -5.3251    35.8236    19.8451 C.3     
 132 C132          -6.1355    35.2694    18.6716 C.3     
 133 C133          -5.7225    33.8205    18.4057 C.3     
 134 C134          -6.5329    33.2663    17.2322 C.3     
 135 C135          -6.1199    31.8173    16.9662 C.3     
 136 C136          -6.9303    31.2632    15.7928 C.3     
 137 C137          -6.5173    29.8142    15.5268 C.3     
 138 C138          -7.3277    29.2601    14.3534 C.3     
 139 C139          -6.9147    27.8111    14.0874 C.3     
 140 C140          -7.7251    27.2569    12.9139 C.3     
 141 C141          -7.3121    25.8079    12.6480 C.3     
 142 C142          -8.1225    25.2538    11.4745 C.3     
 143 C143          -7.7095    23.8048    11.2085 C.3     
 144 C144          -8.5199    23.2507    10.0351 C.3     
 145 H145          -9.3814    21.5456     8.2308 H       
 146 H146          -7.2367    19.6247     8.7187 H       
 147 H147          -8.7371    17.7852     9.3173 H       
 148 H148          -9.2558    20.2625    11.0235 H       
 149 H149          -9.4626    18.5757    11.5528 H       
 150 H150          -7.8407    19.1905    11.1531 H       
 151 H151         -10.8665    19.7551     9.1973 H       
 152 H152          -7.8557    17.5173     7.1920 H       
 153 H153          -8.6489    18.6572     4.6144 H       
 154 H154          -7.7234    15.8672     5.4317 H       
 155 H155          -8.0794    16.3644     3.7601 H       
 156 H156          -5.5361    15.6419     3.7849 H       
 157 H157          -4.4681    16.9197     4.0071 H       
 158 H158         -10.1786    16.8804     3.2857 H       
 159 H159         -12.2134    15.7506     5.0494 H       
 160 H160         -12.8969    18.1284     4.8826 H       
 161 H161         -12.8621    18.0138     3.1067 H       
 162 H162         -14.0517    17.0708     4.0362 H       
 163 H163         -14.1525    14.9350     3.3650 H       
 164 H164         -12.8967    13.0553     1.6720 H       
 165 H165         -13.4321    14.4333     0.6807 H       
 166 H166         -14.7932    12.2264    -0.0539 H       
 167 H167         -17.1050    11.8161     1.6825 H       
 168 H168         -17.3334    13.1749    -1.0397 H       
 169 H169         -18.7099    12.5295    -0.1140 H       
 170 H170         -18.1484    14.0378     1.7724 H       
 171 H171         -16.7719    14.6831     0.8467 H       
 172 H172         -18.3264    15.4644    -0.9201 H       
 173 H173         -19.7029    14.8191     0.0056 H       
 174 H174         -18.2489    16.5705     1.6774 H       
 175 H175         -20.7811    18.1627    -0.9779 H       
 176 H176         -19.0834    18.7806     1.9772 H       
 177 H177         -20.1466    19.4367     0.8539 H       
 178 H178         -18.7883    10.3381     0.1843 H       
 179 H179         -17.3038     8.7220    -1.7424 H       
 180 H180         -17.5650     6.6275    -0.5022 H       
 181 H181         -16.6584     7.7872     0.4985 H       
 182 H182         -18.4363     6.7589     1.7180 H       
 183 H183         -18.9907     6.6426    -2.2310 H       
 184 H184         -21.3876     8.1127    -3.0488 H       
 185 H185         -20.3625     5.3126    -3.6920 H       
 186 H186         -21.8520     6.0163    -4.3661 H       
 187 H187         -19.3511     6.8618    -6.8827 H       
 188 H188         -23.5141     6.4586    -2.9809 H       
 189 H189         -23.5424     4.9181    -0.5003 H       
 190 H190         -25.3227     6.2356     0.5426 H       
 191 H191         -23.0028     7.9981    -0.3676 H       
 192 H192         -24.0472     8.3028     1.0412 H       
 193 H193         -22.9763     6.8812     1.0181 H       
 194 H194         -25.0731     8.0046    -1.7460 H       
 195 H195         -26.1310     4.2362    -0.1889 H       
 196 H196         -27.4686     4.0595    -2.7787 H       
 197 H197         -26.3816     1.6007    -1.3358 H       
 198 H198         -27.5418     1.5499    -2.6847 H       
 199 H199         -25.9101     2.7289    -4.1326 H       
 200 H200         -24.7499     2.7797    -2.7837 H       
 201 H201         -24.7396     0.3015    -2.6991 H       
 202 H202         -25.8999     0.2507    -4.0480 H       
 203 H203         -23.6683     1.7843    -4.8509 H       
 204 H204         -23.3598    -2.2018    -4.9660 H       
 205 H205         -22.0273     0.7378    -6.2229 H       
 206 H206         -21.9090    -0.9377    -6.2615 H       
 207 H207         -29.5493     2.4083    -2.3234 H       
 208 H208         -30.3995     2.5670     0.4658 H       
 209 H209         -31.7939     4.1291    -1.7534 H       
 210 H210         -32.4754     3.8492    -0.1331 H       
 211 H211         -30.5201     4.9840     0.8855 H       
 212 H212         -29.8385     5.2639    -0.7348 H       
 213 H213         -30.1979     7.6318     0.5007 H       
 214 H214         -31.6202     8.3948     0.0343 H       
 215 H215         -32.9704     1.7611     0.4078 H       
 216 H216         -33.4253    -0.0730    -1.8186 H       
 217 H217         -32.9133    -1.0569     1.0237 H       
 218 H218         -33.5887    -2.0564    -0.2852 H       
 219 H219         -31.5535    -1.6535    -1.6432 H       
 220 H220         -30.8781    -0.6540    -0.3343 H       
 221 H221         -29.2108    -2.7115    -0.8339 H       
 222 H222         -29.4144    -3.9846     0.2433 H       
 223 H223         -35.5848    -1.4945    -1.0581 H       
 224 H224         -37.2684     0.0727     0.7411 H       
 225 H225         -37.9258    -0.2017    -2.2269 H       
 226 H226         -38.9953     0.4965    -0.9871 H       
 227 H227         -37.4651     1.3062    -1.4009 H       
 228 H228         -39.7091    -1.0398     0.4801 H       
 229 H229         -39.4840    -3.8574    -0.2534 H       
 230 H230         -39.9218    -2.9545     2.6279 H       
 231 H231         -40.1745    -4.6155     2.0402 H       
 232 H232         -37.8048    -4.7203     1.3175 H       
 233 H233         -37.5521    -3.0592     1.9052 H       
 234 H234         -38.1621    -3.7779     4.1987 H       
 235 H235         -38.4147    -5.4390     3.6110 H       
 236 H236         -35.8108    -4.6235     2.8824 H       
 237 H237         -36.4209    -5.8592     6.6371 H       
 238 H238         -33.9887    -5.3737     4.2194 H       
 239 H239         -34.2596    -5.8900     5.7950 H       
 240 H240         -41.8090    -4.9337     0.5825 H       
 241 H241         -43.9340    -2.9309     0.5725 H       
 242 H242         -43.5475    -4.9069    -1.7198 H       
 243 H243         -45.0219    -3.9463    -1.4518 H       
 244 H244         -43.6936    -1.8595    -1.6245 H       
 245 H245         -42.2193    -2.8201    -1.8926 H       
 246 H246         -43.2280    -3.7981    -3.9358 H       
 247 H247         -44.7023    -2.8374    -3.6678 H       
 248 H248         -43.3741    -0.7507    -3.8405 H       
 249 H249         -41.8997    -1.7113    -4.1086 H       
 250 H250         -42.8764    -0.9823    -6.1830 H       
 251 H251         -42.9915    -2.6377    -6.0723 H       
 252 H252         -46.1984    -4.3443     0.4349 H       
 253 H253         -45.8326    -7.0927     1.3311 H       
 254 H254         -45.5751    -5.7956     3.4388 H       
 255 H255         -47.1498    -5.0200     3.1437 H       
 256 H256         -48.2031    -7.3094     3.1122 H       
 257 H257         -46.8989    -9.2125     3.9536 H       
 258 H258         -46.1042    -8.5363     2.5116 H       
 259 H259         -45.4614    -8.1782     4.1324 H       
 260 H260         -48.2019    -5.9156     5.1630 H       
 261 H261         -48.0659    -7.6441     5.5653 H       
 262 H262         -46.6257    -6.6000     5.6273 H       
 263 H263         -48.1227    -8.1620     1.5968 H       
 264 H264         -49.8815    -7.0457    -0.4497 H       
 265 H265         -50.0828    -9.5391     1.2971 H       
 266 H266         -51.2415    -9.1059     0.0172 H       
 267 H267         -48.2458    -9.4894    -0.4160 H       
 268 H268         -50.6014   -11.3175    -1.0688 H       
 269 H269         -48.9063   -11.6042    -1.5297 H       
 270 H270         -49.3754   -11.6128     0.1873 H       
 271 H271         -49.3501    -7.9388    -2.0050 H       
 272 H272         -48.8915    -9.4587    -2.8099 H       
 273 H273         -50.5867    -9.1720    -2.3490 H       
 274 H274         -52.7271    -6.4452     1.7846 H       
 275 H275          -5.1608    37.6674    20.9471 H       
 276 H276          -5.5477    37.8737    19.2220 H       
 277 H277          -6.8002    37.3090    20.3536 H       
 278 H278          -4.2630    35.7872    19.6025 H       
 279 H279          -5.5155    35.2225    20.7342 H       
 280 H280          -7.1976    35.3058    18.9142 H       
 281 H281          -5.9451    35.8706    17.7825 H       
 282 H282          -4.6604    33.7841    18.1631 H       
 283 H283          -5.9129    33.2193    19.2948 H       
 284 H284          -7.5950    33.3027    17.4748 H       
 285 H285          -6.3425    33.8674    16.3431 H       
 286 H286          -5.0578    31.7810    16.7237 H       
 287 H287          -6.3103    31.2162    17.8553 H       
 288 H288          -7.9924    31.2996    16.0354 H       
 289 H289          -6.7399    31.8643    14.9037 H       
 290 H290          -5.4552    29.7778    15.2842 H       
 291 H291          -6.7077    29.2131    16.4159 H       
 292 H292          -8.3898    29.2964    14.5959 H       
 293 H293          -7.1373    29.8612    13.4643 H       
 294 H294          -5.8526    27.7747    13.8448 H       
 295 H295          -7.1051    27.2100    14.9765 H       
 296 H296          -8.7872    27.2933    13.1565 H       
 297 H297          -7.5347    27.8581    12.0248 H       
 298 H298          -6.2500    25.7716    12.4054 H       
 299 H299          -7.5025    25.2068    13.5371 H       
 300 H300          -9.1846    25.2902    11.7171 H       
 301 H301          -7.9321    25.8549    10.5854 H       
 302 H302          -6.6474    23.7684    10.9660 H       
 303 H303          -7.8999    23.2037    12.0976 H       
 304 H304          -8.3295    23.8518     9.1460 H       
 305 H305          -9.5820    23.2871    10.2777 H       
@<TRIPOS>BOND
   1    1    2 2
   2    1    4 1
   3    1   10 am
   4    3  128 am
   5    3    4 1
   6    3  145 1
   7    4    5 1
   8    4  146 1
   9    5    6 1
  10    5    7 1
  11    5  147 1
  12    6  148 1
  13    6  149 1
  14    6  150 1
  15    7  151 1
  16    8    9 2
  17    8   11 1
  18    8   18 am
  19   10   11 1
  20   10  152 1
  21   11   12 1
  22   11  153 1
  23   12   13 1
  24   12  154 1
  25   12  155 1
  26   13   14 2
  27   13   15 am
  28   15  156 1
  29   15  157 1
  30   16   17 2
  31   16   19 1
  32   16   23 am
  33   18   19 1
  34   18  158 1
  35   19   20 1
  36   19  159 1
  37   20  160 1
  38   20  161 1
  39   20  162 1
  40   21   22 2
  41   21   24 1
  42   21   27 am
  43   23   24 1
  44   23  163 1
  45   24  164 1
  46   24  165 1
  47   25   26 2
  48   25   28 1
  49   25   38 am
  50   27   28 1
  51   27  166 1
  52   28   29 1
  53   28  167 1
  54   29   30 1
  55   29  168 1
  56   29  169 1
  57   30   31 1
  58   30  170 1
  59   30  171 1
  60   31   32 1
  61   31  172 1
  62   31  173 1
  63   32   33 1
  64   32  174 1
  65   33   34 2
  66   33   35 1
  67   34  175 1
  68   35  176 1
  69   35  177 1
  70   36   37 2
  71   36   39 1
  72   36   44 am
  73   38   39 1
  74   38  178 1
  75   39   40 1
  76   39  179 1
  77   40   41 1
  78   40  180 1
  79   40  181 1
  80   41  182 1
  81   42   43 2
  82   42   45 1
  83   42   52 am
  84   44   45 1
  85   44  183 1
  86   45   46 1
  87   45  184 1
  88   46   47 1
  89   46  185 1
  90   46  186 1
  91   47   48 2
  92   47   49 1
  93   49  187 1
  94   50   51 2
  95   50   53 1
  96   50   59 am
  97   52   53 1
  98   52  188 1
  99   53   54 1
 100   53  189 1
 101   54   55 1
 102   54   56 1
 103   54  190 1
 104   55  191 1
 105   55  192 1
 106   55  193 1
 107   56  194 1
 108   57   58 2
 109   57   60 1
 110   57   70 am
 111   59   60 1
 112   59  195 1
 113   60   61 1
 114   60  196 1
 115   61   62 1
 116   61  197 1
 117   61  198 1
 118   62   63 1
 119   62  199 1
 120   62  200 1
 121   63   64 1
 122   63  201 1
 123   63  202 1
 124   64   65 1
 125   64  203 1
 126   65   66 2
 127   65   67 1
 128   66  204 1
 129   67  205 1
 130   67  206 1
 131   68   69 2
 132   68   71 1
 133   68   79 am
 134   70   71 1
 135   70  207 1
 136   71   72 1
 137   71  208 1
 138   72   73 1
 139   72  209 1
 140   72  210 1
 141   73   74 1
 142   73  211 1
 143   73  212 1
 144   74   75 2
 145   74   76 am
 146   76  213 1
 147   76  214 1
 148   77   78 2
 149   77   80 1
 150   77   88 am
 151   79   80 1
 152   79  215 1
 153   80   81 1
 154   80  216 1
 155   81   82 1
 156   81  217 1
 157   81  218 1
 158   82   83 1
 159   82  219 1
 160   82  220 1
 161   83   84 2
 162   83   85 am
 163   85  221 1
 164   85  222 1
 165   86   87 2
 166   86   89 1
 167   86   93 am
 168   88   89 1
 169   88  223 1
 170   89   90 1
 171   89  224 1
 172   90  225 1
 173   90  226 1
 174   90  227 1
 175   91   92 2
 176   91   94 1
 177   91  104 am
 178   93   94 1
 179   93  228 1
 180   94   95 1
 181   94  229 1
 182   95   96 1
 183   95  230 1
 184   95  231 1
 185   96   97 1
 186   96  232 1
 187   96  233 1
 188   97   98 1
 189   97  234 1
 190   97  235 1
 191   98   99 1
 192   98  236 1
 193   99  100 2
 194   99  101 1
 195  100  237 1
 196  101  238 1
 197  101  239 1
 198  102  103 2
 199  102  105 1
 200  102  113 am
 201  104  105 1
 202  104  240 1
 203  105  106 1
 204  105  241 1
 205  106  107 1
 206  106  242 1
 207  106  243 1
 208  107  108 1
 209  107  244 1
 210  107  245 1
 211  108  109 1
 212  108  246 1
 213  108  247 1
 214  109  110 1
 215  109  248 1
 216  109  249 1
 217  110  250 1
 218  110  251 1
 219  111  112 2
 220  111  114 1
 221  111  121 am
 222  113  114 1
 223  113  252 1
 224  114  115 1
 225  114  253 1
 226  115  116 1
 227  115  254 1
 228  115  255 1
 229  116  117 1
 230  116  118 1
 231  116  256 1
 232  117  257 1
 233  117  258 1
 234  117  259 1
 235  118  260 1
 236  118  261 1
 237  118  262 1
 238  119  120 2
 239  119  122 1
 240  119  127 1
 241  121  122 1
 242  121  263 1
 243  122  123 1
 244  122  264 1
 245  123  124 1
 246  123  265 1
 247  123  266 1
 248  124  125 1
 249  124  126 1
 250  124  267 1
 251  125  268 1
 252  125  269 1
 253  125  270 1
 254  126  271 1
 255  126  272 1
 256  126  273 1
 257  127  274 1
 258  128  129 2
 259  128  144 1
 260  130  131 1
 261  130  275 1
 262  130  276 1
 263  130  277 1
 264  131  132 1
 265  131  278 1
 266  131  279 1
 267  132  133 1
 268  132  280 1
 269  132  281 1
 270  133  134 1
 271  133  282 1
 272  133  283 1
 273  134  135 1
 274  134  284 1
 275  134  285 1
 276  135  136 1
 277  135  286 1
 278  135  287 1
 279  136  137 1
 280  136  288 1
 281  136  289 1
 282  137  138 1
 283  137  290 1
 284  137  291 1
 285  138  139 1
 286  138  292 1
 287  138  293 1
 288  139  140 1
 289  139  294 1
 290  139  295 1
 291  140  141 1
 292  140  296 1
 293  140  297 1
 294  141  142 1
 295  141  298 1
 296  141  299 1
 297  142  143 1
 298  142  300 1
 299  142  301 1
 300  143  144 1
 301  143  302 1
 302  143  303 1
 303  144  304 1
 304  144  305 1

#	End of record

