#	Name: ASD01190057
#	Creating user name:	WinNT
#	Creation time:	15. 06. 2019 19:07

#	Modifying user name:	WinNT
#	Modification time:	15. 06. 2019 19:07

#	Program:	/corina/corina34_cracker 3.40 0067  02.08.2006

@<TRIPOS>MOLECULE
ASD01190057
  45   49    0    0    0
SMALL
NO_CHARGES


@<TRIPOS>ATOM
   1 C1            -0.0187     1.5258     0.0104 C.3     
   2 C2            -0.9586     2.6619     0.4187 C.3     
   3 N3             5.2680     3.4302     0.1947 N.pl3   
   4 N4             5.3932     3.5854     1.5792 N.2     
   5 C5             4.2860     3.2365     2.1708 C.2     
   6 C6             3.3419     2.8166     1.1401 C.ar    
   7 C7             2.0239     2.3468     1.1614 C.ar    
   8 C8             1.4008     2.0313    -0.0112 C.ar    
   9 C9             2.0630     2.1715    -1.2247 C.ar    
  10 C10            3.3500     2.6277    -1.2710 C.ar    
  11 C11            4.0111     2.9578    -0.0911 C.ar    
  12 C12            6.2630     3.7165    -0.7489 C.ar    
  13 C13            7.1295     4.7823    -0.5441 C.ar    
  14 C14            8.1097     5.0628    -1.4755 C.ar    
  15 C15            8.2289     4.2823    -2.6132 C.ar    
  16 C16            7.3659     3.2190    -2.8194 C.ar    
  17 C17            6.3879     2.9316    -1.8876 C.ar    
  18 F18            9.1882     4.5587    -3.5235 F       
  19 F19           -0.8507     3.7099    -0.5018 F       
  20 F20           -2.2763     2.1926     0.4388 F       
  21 F21           -0.6080     3.1221     1.6925 F       
  22 C22            0.7173    -2.8525     2.3224 C.ar    
  23 C23            0.1674    -1.5956     2.0972 C.ar    
  24 C24            0.6073    -0.8601     0.9781 C.ar    
  25 C25            1.5771    -1.4251     0.1429 C.ar    
  26 C26            2.0599    -2.6669     0.4438 C.ar    
  27 N27            1.6287    -3.3353     1.5015 N.ar    
  28 N28           -0.7731    -0.8259     2.7418 N.pl3   
  29 C29           -0.1348     0.3969     1.0020 C.2     
  30 C30           -0.9411     0.3563     2.0773 C.2     
  31 Cl31           0.2070    -3.7866     3.6938 Cl      
  32 O32           -0.3767     1.0557    -1.2907 O.3     
  33 H33            4.1001     3.2544     3.2345 H       
  34 H34            1.5027     2.2343     2.1006 H       
  35 H35            1.5543     1.9163    -2.1426 H       
  36 H36            3.8535     2.7318    -2.2208 H       
  37 H37            7.0366     5.3914     0.3428 H       
  38 H38            8.7835     5.8918    -1.3168 H       
  39 H39            7.4603     2.6117    -3.7074 H       
  40 H40            5.7182     2.0993    -2.0464 H       
  41 H41            1.9368    -0.8898    -0.7234 H       
  42 H42            2.8085    -3.1124    -0.1945 H       
  43 H43           -1.2470    -1.0842     3.5478 H       
  44 H44           -1.6215     1.1416     2.3718 H       
  45 H45            0.1786     0.3332    -1.6144 H       
@<TRIPOS>BOND
   1    1    2 1
   2    1    8 1
   3    1   29 1
   4    1   32 1
   5    2   19 1
   6    2   20 1
   7    2   21 1
   8    3    4 1
   9    3   11 1
  10    3   12 1
  11    4    5 2
  12    5    6 1
  13    5   33 1
  14    6    7 ar
  15    6   11 ar
  16    7    8 ar
  17    7   34 1
  18    8    9 ar
  19    9   10 ar
  20    9   35 1
  21   10   11 ar
  22   10   36 1
  23   12   13 ar
  24   12   17 ar
  25   13   14 ar
  26   13   37 1
  27   14   15 ar
  28   14   38 1
  29   15   16 ar
  30   15   18 1
  31   16   17 ar
  32   16   39 1
  33   17   40 1
  34   22   23 ar
  35   22   27 ar
  36   22   31 1
  37   23   24 ar
  38   23   28 1
  39   24   25 ar
  40   24   29 1
  41   25   26 ar
  42   25   41 1
  43   26   27 ar
  44   26   42 1
  45   28   30 1
  46   28   43 1
  47   29   30 2
  48   30   44 1
  49   32   45 1

#	End of record

