#	Name: ASD01816319
#	Creating user name:	WinNT
#	Creation time:	15. 06. 2019 19:35

#	Modifying user name:	WinNT
#	Modification time:	15. 06. 2019 19:35

#	Program:	/corina/corina34_cracker 3.40 0067  02.08.2006

@<TRIPOS>MOLECULE
ASD01816319
  54   59    0    0    0
SMALL
NO_CHARGES


@<TRIPOS>ATOM
   1 C1            -0.0167     1.3813     0.0096 C.ar    
   2 C2             0.0021    -0.0041     0.0020 C.ar    
   3 C3             1.1984    -0.6909    -0.0131 C.ar    
   4 C4             2.4015     0.0059    -0.0209 C.ar    
   5 C5             2.3790     1.4106    -0.0132 C.ar    
   6 C6             1.1663     2.0916     0.0022 C.ar    
   7 N7             3.6053    -0.6772    -0.0356 N.pl3   
   8 C8             4.7970    -0.0586    -0.0437 C.2     
   9 C9             4.9000     1.3103    -0.0374 C.2     
  10 C10            3.6670     2.1301    -0.0217 C.2     
  11 C11            5.9971     2.2729    -0.0428 C.2     
  12 N12            5.4246     3.4960    -0.0312 N.am    
  13 N13            4.0323     3.3799    -0.0188 N.2     
  14 O14            7.1914     2.0229    -0.0548 O.2     
  15 C15            3.5779    -2.1419    -0.0422 C.3     
  16 C16            3.5549    -2.6375    -1.4652 C.ar    
  17 C17            4.7425    -2.8868    -2.1283 C.ar    
  18 C18            4.7246    -3.3407    -3.4326 C.ar    
  19 C19            3.5127    -3.5470    -4.0778 C.ar    
  20 C20            2.3220    -3.2963    -3.4093 C.ar    
  21 C21            2.3462    -2.8475    -2.1033 C.ar    
  22 N22            3.4913    -4.0071    -5.4018 N.pl3   
  23 C23            2.3862    -4.2484    -6.1428 C.2     
  24 C24            2.7923    -4.6778    -7.3601 C.2     
  25 C25            4.1913    -4.7001    -7.3644 C.2     
  26 N26            4.6111    -4.2927    -6.1936 N.2     
  27 C27            6.1264     4.7082    -0.0321 C.ar    
  28 C28            6.5541     5.2636    -1.2301 C.ar    
  29 C29            7.2463     6.4594    -1.2279 C.ar    
  30 C30            7.5138     7.1038    -0.0343 C.ar    
  31 C31            7.0903     6.5544     1.1622 C.ar    
  32 C32            6.3917     5.3612     1.1673 C.ar    
  33 F33            5.9780     4.8242     2.3360 F       
  34 C34            8.2691     8.4079    -0.0371 C.3     
  35 H35           -0.9602     1.9068     0.0170 H       
  36 H36           -0.9289    -0.5516     0.0083 H       
  37 H37            1.2004    -1.7709    -0.0186 H       
  38 H38            1.1506     3.1715     0.0077 H       
  39 H39            5.6983    -0.6536    -0.0551 H       
  40 H40            4.4658    -2.5242     0.4614 H       
  41 H41            2.6862    -2.4910     0.4786 H       
  42 H42            5.6849    -2.7261    -1.6259 H       
  43 H43            5.6524    -3.5345    -3.9503 H       
  44 H44            1.3778    -3.4555    -3.9087 H       
  45 H45            1.4203    -2.6523    -1.5827 H       
  46 H46            1.3631    -4.1217    -5.8207 H       
  47 H47            2.1500    -4.9544    -8.1831 H       
  48 H48            4.8171    -4.9979    -8.1927 H       
  49 H49            6.3462     4.7613    -2.1633 H       
  50 H50            7.5792     6.8913    -2.1601 H       
  51 H51            7.3013     7.0601     2.0929 H       
  52 H52            7.5645     9.2357    -0.1162 H       
  53 H53            8.8366     8.5010     0.8889 H       
  54 H54            8.9526     8.4301    -0.8859 H       
@<TRIPOS>BOND
   1    1    2 ar
   2    1    6 ar
   3    1   35 1
   4    2    3 ar
   5    2   36 1
   6    3    4 ar
   7    3   37 1
   8    4    5 ar
   9    4    7 1
  10    5    6 ar
  11    5   10 1
  12    6   38 1
  13    7    8 1
  14    7   15 1
  15    8    9 2
  16    8   39 1
  17    9   10 1
  18    9   11 1
  19   10   13 2
  20   11   12 am
  21   11   14 2
  22   12   13 1
  23   12   27 1
  24   15   16 1
  25   15   40 1
  26   15   41 1
  27   16   17 ar
  28   16   21 ar
  29   17   18 ar
  30   17   42 1
  31   18   19 ar
  32   18   43 1
  33   19   20 ar
  34   19   22 1
  35   20   21 ar
  36   20   44 1
  37   21   45 1
  38   22   23 1
  39   22   26 1
  40   23   24 2
  41   23   46 1
  42   24   25 1
  43   24   47 1
  44   25   26 2
  45   25   48 1
  46   27   28 ar
  47   27   32 ar
  48   28   29 ar
  49   28   49 1
  50   29   30 ar
  51   29   50 1
  52   30   31 ar
  53   30   34 1
  54   31   32 ar
  55   31   51 1
  56   32   33 1
  57   34   52 1
  58   34   53 1
  59   34   54 1

#	End of record

