#	Name: ASD02198383
#	Creating user name:	WinNT
#	Creation time:	15. 06. 2019 20:19

#	Modifying user name:	WinNT
#	Modification time:	15. 06. 2019 20:19

#	Program:	/corina/corina34_cracker 3.40 0067  02.08.2006

@<TRIPOS>MOLECULE
ASD02198383
  33   35    0    0    0
SMALL
NO_CHARGES


@<TRIPOS>ATOM
   1 C1            -0.2187     1.0555    -0.3586 C.2     
   2 C2            -0.1234    -0.2764    -0.3753 C.2     
   3 S3             1.3876     1.7599    -0.2275 S.3     
   4 C4             2.1200     0.1611    -0.2019 C.2     
   5 C5             1.1682    -0.7691    -0.2887 C.2     
   6 S6             3.8478    -0.1623    -0.0809 S.o2    
   7 N7             4.4442    -0.2239    -1.6246 N.am    
   8 C8             4.3262     0.8842    -2.4622 C.ar    
   9 C9             4.0922     0.7073    -3.8442 C.ar    
  10 C10            3.9751     1.8469    -4.6772 C.ar    
  11 C11            4.0927     3.1310    -4.1233 C.ar    
  12 C12            4.3213     3.2749    -2.7732 C.ar    
  13 C13            4.4316     2.1557    -1.9454 C.ar    
  14 N14            3.9814    -0.5154    -4.3705 N.ar    
  15 C15            3.7647    -0.6898    -5.6514 C.ar    
  16 C16            3.6393     0.3871    -6.5266 C.ar    
  17 C17            3.7418     1.6642    -6.0541 C.ar    
  18 O18            4.4287     0.9826     0.5282 O.2     
  19 O19            3.9743    -1.4740     0.4508 O.2     
  20 Cl20          -1.5122    -1.3111    -0.4957 Cl      
  21 Cl21          -1.7005     1.9543    -0.4586 Cl      
  22 O22            4.4348     4.5194    -2.2395 O.3     
  23 C23            4.3063     5.6242    -3.1367 C.3     
  24 H24            1.3880    -1.8266    -0.2909 H       
  25 H25            4.8755    -1.0311    -1.9460 H       
  26 H26            4.0047     4.0033    -4.7539 H       
  27 H27            4.6106     2.2890    -0.8887 H       
  28 H28            3.6815    -1.6945    -6.0386 H       
  29 H29            3.4609     0.2120    -7.5773 H       
  30 H30            3.6473     2.5108    -6.7180 H       
  31 H31            5.0795     5.5622    -3.9024 H       
  32 H32            3.3243     5.5964    -3.6089 H       
  33 H33            4.4170     6.5566    -2.5831 H       
@<TRIPOS>BOND
   1    1    2 2
   2    1    3 1
   3    1   21 1
   4    2   20 1
   5    2    5 1
   6    3    4 1
   7    4    5 2
   8    4    6 1
   9    5   24 1
  10    6    7 am
  11    6   18 2
  12    6   19 2
  13    7    8 1
  14    7   25 1
  15    8    9 ar
  16    8   13 ar
  17    9   10 ar
  18    9   14 ar
  19   10   11 ar
  20   10   17 ar
  21   11   12 ar
  22   11   26 1
  23   12   13 ar
  24   12   22 1
  25   13   27 1
  26   14   15 ar
  27   15   16 ar
  28   15   28 1
  29   16   17 ar
  30   16   29 1
  31   17   30 1
  32   22   23 1
  33   23   31 1
  34   23   32 1
  35   23   33 1

#	End of record

