#	Name: ASD03730270
#	Creating user name:	WinNT
#	Creation time:	15. 06. 2019 20:44

#	Modifying user name:	WinNT
#	Modification time:	15. 06. 2019 20:44

#	Program:	/corina/corina34_cracker 3.40 0067  02.08.2006

@<TRIPOS>MOLECULE
ASD03730270
  61   67    0    0    0
SMALL
NO_CHARGES


@<TRIPOS>ATOM
   1 N1             1.2882     1.9824    -1.7214 N.3     
   2 C2             1.2808     0.5073    -1.8615 C.3     
   3 O3             2.6697     0.1831    -2.0522 O.3     
   4 C4             3.3883     1.1651    -1.4338 C.ar    
   5 C5             2.5731     2.2767    -1.2253 C.ar    
   6 C6             4.7090     1.1956    -1.0189 C.ar    
   7 C7             5.2308     2.3289    -0.4030 C.ar    
   8 C8             4.4107     3.4378    -0.2175 C.ar    
   9 C9             3.0915     3.4094    -0.6197 C.ar    
  10 O10            6.4814     2.5525     0.0942 O.3     
  11 C11            5.2606     4.4986     0.4286 C.3     
  12 C12            6.6893     3.9704     0.2387 C.3     
  13 N13            4.6862     6.6845     0.7666 N.am    
  14 C14            5.0755     5.8442    -0.2128 C.2     
  15 C15            4.9254     4.6996     1.8762 C.ar    
  16 C16            4.8989     3.8588     2.9815 C.ar    
  17 C17            4.5330     4.3647     4.2295 C.ar    
  18 C18            4.1996     5.6985     4.3557 C.ar    
  19 C19            4.2254     6.5332     3.2568 C.ar    
  20 C20            4.5891     6.0424     2.0038 C.ar    
  21 O21            5.2433     6.1203    -1.3819 O.2     
  22 C22            0.2477     2.4276    -0.7849 C.3     
  23 C23            0.6280     2.0088     0.6367 C.3     
  24 C24           -0.4558     2.4725     1.6121 C.3     
  25 C25           -0.0755     2.0537     3.0336 C.3     
  26 C26           -1.1593     2.5174     4.0090 C.3     
  27 C27            4.3479     1.4600     2.7676 C.2     
  28 C28            5.2587     2.4286     2.8359 C.2     
  29 C29            6.6419     1.9658     2.7547 C.ar    
  30 C30            6.7191     0.5786     2.6200 C.ar    
  31 S31            5.1021    -0.1128     2.5970 S.3     
  32 C32            7.9701    -0.0402     2.5279 C.ar    
  33 C33            9.1195     0.7134     2.5701 C.ar    
  34 C34            9.0442     2.0925     2.7045 C.ar    
  35 C35            7.8357     2.7140     2.7944 C.ar    
  36 H36            0.8976     0.0374    -0.9557 H       
  37 H37            0.6935     0.2068    -2.7292 H       
  38 H38            5.3392     0.3324    -1.1742 H       
  39 H39            2.4615     4.2723    -0.4623 H       
  40 H40            7.3008     4.1846     1.1152 H       
  41 H41            7.1403     4.3891    -0.6610 H       
  42 H42            4.4956     7.6255     0.6286 H       
  43 H43            4.5104     3.7159     5.0926 H       
  44 H44            3.9163     6.0914     5.3210 H       
  45 H45            3.9621     7.5747     3.3686 H       
  46 H46            0.1567     3.5128    -0.8320 H       
  47 H47           -0.7043     1.9711    -1.0558 H       
  48 H48            0.7190     0.9237     0.6837 H       
  49 H49            1.5800     2.4654     0.9075 H       
  50 H50           -0.5468     3.5577     1.5650 H       
  51 H51           -1.4078     2.0160     1.3412 H       
  52 H52            0.0155     0.9685     3.0807 H       
  53 H53            0.8765     2.5102     3.3045 H       
  54 H54           -1.2503     3.6025     3.9620 H       
  55 H55           -2.1113     2.0608     3.7382 H       
  56 H56           -0.8884     2.2190     5.0218 H       
  57 H57            3.2813     1.6222     2.8157 H       
  58 H58            8.0335    -1.1133     2.4236 H       
  59 H59           10.0831     0.2308     2.4990 H       
  60 H60            9.9513     2.6777     2.7377 H       
  61 H61            7.7919     3.7881     2.8983 H       
@<TRIPOS>BOND
   1    1    2 1
   2    1    5 1
   3    1   22 1
   4    2    3 1
   5    2   36 1
   6    2   37 1
   7    3    4 1
   8    4    5 ar
   9    4    6 ar
  10    5    9 ar
  11    6    7 ar
  12    6   38 1
  13    7    8 ar
  14    7   10 1
  15    8    9 ar
  16    8   11 1
  17    9   39 1
  18   10   12 1
  19   11   12 1
  20   11   14 1
  21   11   15 1
  22   12   40 1
  23   12   41 1
  24   13   14 am
  25   13   20 1
  26   13   42 1
  27   14   21 2
  28   15   16 ar
  29   15   20 ar
  30   16   17 ar
  31   16   28 1
  32   17   18 ar
  33   17   43 1
  34   18   19 ar
  35   18   44 1
  36   19   20 ar
  37   19   45 1
  38   22   23 1
  39   22   46 1
  40   22   47 1
  41   23   24 1
  42   23   48 1
  43   23   49 1
  44   24   25 1
  45   24   50 1
  46   24   51 1
  47   25   26 1
  48   25   52 1
  49   25   53 1
  50   26   54 1
  51   26   55 1
  52   26   56 1
  53   27   28 2
  54   27   31 1
  55   27   57 1
  56   28   29 1
  57   29   30 ar
  58   29   35 ar
  59   30   31 1
  60   30   32 ar
  61   32   33 ar
  62   32   58 1
  63   33   34 ar
  64   33   59 1
  65   34   35 ar
  66   34   60 1
  67   35   61 1

#	End of record

