#	Name: ASD01811539
#	Creating user name:	WinNT
#	Creation time:	15. 06. 2019 19:26

#	Modifying user name:	WinNT
#	Modification time:	15. 06. 2019 19:26

#	Program:	/corina/corina34_cracker 3.40 0067  02.08.2006

@<TRIPOS>MOLECULE
ASD01811539
  45   47    0    0    0
SMALL
NO_CHARGES


@<TRIPOS>ATOM
   1 C1            -0.1154     1.4622     0.2148 C.2     
   2 C2            -0.0457    -0.0093     0.1021 C.ar    
   3 C3             1.1217    -0.6218    -0.3614 C.ar    
   4 C4             1.1881    -1.9964    -0.4666 C.ar    
   5 C5             0.1031    -2.7755    -0.1152 C.ar    
   6 C6            -1.0696    -2.1766     0.3489 C.ar    
   7 C7            -1.1421    -0.7903     0.4632 C.ar    
   8 O8             0.8691     2.1361    -0.0136 O.2     
   9 O9            -1.2721     2.0568     0.5655 O.3     
  10 C10            0.1850    -4.2756    -0.2336 C.3     
  11 C11            2.3103     0.2203    -0.7475 C.3     
  12 C12           -2.2308    -3.0129     0.7238 C.2     
  13 N13           -3.4799    -2.5527     1.0372 N.pl3   
  14 C14           -4.2411    -3.6424     1.3173 C.2     
  15 C15           -3.4502    -4.7342     1.1729 C.2     
  16 N16           -2.2386    -4.3281     0.8068 N.2     
  17 C17           -5.6918    -3.7174     1.7176 C.3     
  18 C18           -3.9510    -6.1393     1.4069 C.3     
  19 C19           -5.2737    -6.0416     2.1808 C.3     
  20 O20           -6.1252    -5.0756     1.5593 O.3     
  21 C21           -4.1857    -6.8363     0.0652 C.3     
  22 C22           -2.9266    -6.9248     2.2282 C.3     
  23 C23           -1.2672     3.5060     0.6566 C.3     
  24 H24            2.0925    -2.4650    -0.8257 H       
  25 H25           -2.0453    -0.3224     0.8262 H       
  26 H26            0.4432    -4.7029     0.7354 H       
  27 H27           -0.7788    -4.6677    -0.5583 H       
  28 H28            0.9499    -4.5413    -0.9633 H       
  29 H29            2.8819     0.4732     0.1455 H       
  30 H30            2.9426    -0.3384    -1.4375 H       
  31 H31            1.9661     1.1352    -1.2297 H       
  32 H32           -3.7671    -1.6264     1.0559 H       
  33 H33           -5.8030    -3.4141     2.7587 H       
  34 H34           -6.2850    -3.0643     1.0775 H       
  35 H35           -5.7669    -7.0137     2.1803 H       
  36 H36           -5.0713    -5.7389     3.2082 H       
  37 H37           -3.2499    -6.8755    -0.4924 H       
  38 H38           -4.5469    -7.8496     0.2405 H       
  39 H39           -4.9273    -6.2803    -0.5082 H       
  40 H40           -2.7755    -6.4315     3.1883 H       
  41 H41           -3.2934    -7.9377     2.3938 H       
  42 H42           -1.9810    -6.9647     1.6874 H       
  43 H43           -0.5381     3.8206     1.4032 H       
  44 H44           -1.0017     3.9300    -0.3118 H       
  45 H45           -2.2582     3.8551     0.9468 H       
@<TRIPOS>BOND
   1    1    2 1
   2    1    8 2
   3    1    9 1
   4    2    3 ar
   5    2    7 ar
   6    3    4 ar
   7    3   11 1
   8    4    5 ar
   9    4   24 1
  10    5    6 ar
  11    5   10 1
  12    6    7 ar
  13    6   12 1
  14    7   25 1
  15    9   23 1
  16   10   26 1
  17   10   27 1
  18   10   28 1
  19   11   29 1
  20   11   30 1
  21   11   31 1
  22   12   13 1
  23   12   16 2
  24   13   14 1
  25   13   32 1
  26   14   15 2
  27   14   17 1
  28   15   16 1
  29   15   18 1
  30   17   20 1
  31   17   33 1
  32   17   34 1
  33   18   19 1
  34   18   21 1
  35   18   22 1
  36   19   20 1
  37   19   35 1
  38   19   36 1
  39   21   37 1
  40   21   38 1
  41   21   39 1
  42   22   40 1
  43   22   41 1
  44   22   42 1
  45   23   43 1
  46   23   44 1
  47   23   45 1

#	End of record

