#	Name: ASD00120070
#	Creating user name:	WinNT
#	Creation time:	15. 06. 2019 18:31

#	Modifying user name:	WinNT
#	Modification time:	15. 06. 2019 18:31

#	Program:	/corina/corina34_cracker 3.40 0067  02.08.2006

@<TRIPOS>MOLECULE
ASD00120070
  52   55    0    0    0
SMALL
NO_CHARGES


@<TRIPOS>ATOM
   1 C1             0.0896     1.3254    -0.8356 C.ar    
   2 C2             0.0818    -0.0453    -0.6401 C.ar    
   3 C3             1.2360    -0.6948    -0.2366 C.ar    
   4 C4             2.3973     0.0241    -0.0288 C.ar    
   5 C5             2.4066     1.3972    -0.2247 C.ar    
   6 C6             1.2495     2.0467    -0.6286 C.ar    
   7 F7            -1.0531    -0.7495    -0.8430 F       
   8 O8             3.5486     2.1059    -0.0202 O.3     
   9 C9             3.4567     3.5282    -0.1232 C.3     
  10 C10            4.5561     4.1627     0.6891 C.ar    
  11 C11            3.5982     3.9375    -1.5666 C.2     
  12 N12            3.4429     5.2291    -1.9191 N.am    
  13 O13            3.8520     3.1047    -2.4110 O.2     
  14 C14            4.2986     5.3000     1.4315 C.ar    
  15 C15            5.3071     5.8821     2.1765 C.ar    
  16 C16            6.5730     5.3266     2.1794 C.ar    
  17 C17            6.8302     4.1888     1.4377 C.ar    
  18 C18            5.8206     3.6043     0.6961 C.ar    
  19 S19            7.8587     6.0692     3.1281 S.o2    
  20 O20            9.0531     5.6855     2.4607 O.2     
  21 O21            7.4794     7.4353     3.2237 O.2     
  22 C22            7.7483     5.2631     4.7494 C.3     
  23 C23            8.6701     5.7760     5.8576 C.3     
  24 C24            7.1715     6.0804     5.9070 C.3     
  25 C25            3.5734     5.6066    -3.2505 C.2     
  26 N26            3.4441     6.8174    -3.6950 N.2     
  27 C27            3.6021     6.9975    -4.9930 C.2     
  28 C28            3.8781     5.8859    -5.6778 C.2     
  29 S29            3.9353     4.5428    -4.5391 S.3     
  30 C30            3.4807     8.3490    -5.6485 C.3     
  31 C31            2.1444     8.9554    -5.3054 C.2     
  32 O32            1.3701     8.3521    -4.6009 O.2     
  33 O33            1.8144    10.1659    -5.7825 O.3     
  34 H34           -0.8103     1.8303    -1.1545 H       
  35 H35            1.2284    -1.7639    -0.0837 H       
  36 H36            3.2974    -0.4828     0.2864 H       
  37 H37            1.2555     3.1158    -0.7818 H       
  38 H38            2.4890     3.8581     0.2548 H       
  39 H39            3.2399     5.8951    -1.2438 H       
  40 H40            3.3097     5.7340     1.4292 H       
  41 H41            5.1061     6.7710     2.7560 H       
  42 H42            7.8193     3.7551     1.4397 H       
  43 H43            6.0216     2.7153     0.1167 H       
  44 H44            7.5311     4.1951     4.7296 H       
  45 H45            9.0589     5.0456     6.5671 H       
  46 H46            9.3428     6.5979     5.6125 H       
  47 H47            6.8583     7.1026     5.6944 H       
  48 H48            6.5744     5.5503     6.6490 H       
  49 H49            4.0412     5.8215    -6.7434 H       
  50 H50            4.2780     8.9998    -5.2895 H       
  51 H51            3.5621     8.2370    -6.7296 H       
  52 H52            0.9466    10.5135    -5.5353 H       
@<TRIPOS>BOND
   1    1    2 ar
   2    1    6 ar
   3    1   34 1
   4    2    3 ar
   5    2    7 1
   6    3    4 ar
   7    3   35 1
   8    4    5 ar
   9    4   36 1
  10    5    6 ar
  11    5    8 1
  12    6   37 1
  13    8    9 1
  14    9   10 1
  15    9   11 1
  16    9   38 1
  17   10   14 ar
  18   10   18 ar
  19   11   12 am
  20   11   13 2
  21   12   25 1
  22   12   39 1
  23   14   15 ar
  24   14   40 1
  25   15   16 ar
  26   15   41 1
  27   16   17 ar
  28   16   19 1
  29   17   18 ar
  30   17   42 1
  31   18   43 1
  32   19   20 2
  33   19   21 2
  34   19   22 1
  35   22   23 1
  36   22   24 1
  37   22   44 1
  38   23   24 1
  39   23   45 1
  40   23   46 1
  41   24   47 1
  42   24   48 1
  43   25   26 2
  44   25   29 1
  45   26   27 1
  46   27   28 2
  47   27   30 1
  48   28   29 1
  49   28   49 1
  50   30   31 1
  51   30   50 1
  52   30   51 1
  53   31   32 2
  54   31   33 1
  55   33   52 1

#	End of record

