#	Name: ASD01883109
#	Creating user name:	WinNT
#	Creation time:	15. 06. 2019 19:45

#	Modifying user name:	WinNT
#	Modification time:	15. 06. 2019 19:45

#	Program:	/corina/corina34_cracker 3.40 0067  02.08.2006

@<TRIPOS>MOLECULE
ASD01883109
  51   53    0    0    0
SMALL
NO_CHARGES


@<TRIPOS>ATOM
   1 N1            -0.0162     1.3417     0.0094 N.am    
   2 C2             0.0021    -0.0041     0.0020 C.2     
   3 C3            -1.2161    -0.7274     0.0102 C.2     
   4 C4            -2.4261    -0.0112     0.0261 C.2     
   5 C5            -2.3786     1.3968     0.0332 C.2     
   6 C6            -1.1850     2.0325     0.0299 C.2     
   7 O7             1.0657    -0.6000    -0.0122 O.2     
   8 C8            -1.2151    -2.1594     0.0021 C.1     
   9 N9            -1.2144    -3.2953    -0.0044 N.1     
  10 C10            1.2513     2.0764     0.0013 C.3     
  11 C11            1.6787     2.3399    -1.4440 C.3     
  12 C12            3.0024     3.1072    -1.4525 C.3     
  13 C13            3.4298     3.3707    -2.8978 C.3     
  14 C14           -3.7218    -0.7213     0.0347 C.ar    
  15 C15           -4.5708    -0.6162     1.1391 C.ar    
  16 C16           -5.7778    -1.2797     1.1433 C.ar    
  17 C17           -6.1513    -2.0534     0.0510 C.ar    
  18 C18           -5.3094    -2.1609    -1.0494 C.ar    
  19 C19           -4.1037    -1.4950    -1.0640 C.ar    
  20 O20           -7.3417    -2.7063     0.0591 O.3     
  21 C21           -7.6630    -3.4838    -1.0960 C.3     
  22 C22           -9.0113    -4.1300    -0.9074 C.ar    
  23 N23           -9.5052    -4.8974    -1.8595 N.ar    
  24 C24          -10.6801    -5.4834    -1.7382 C.ar    
  25 C25          -11.4414    -5.3116    -0.5974 C.ar    
  26 C26          -10.9550    -4.5119     0.4252 C.ar    
  27 C27           -9.7132    -3.9164     0.2636 C.ar    
  28 C28          -11.1991    -6.3502    -2.8564 C.3     
  29 H29           -3.2949     1.9683     0.0453 H       
  30 H30           -1.1610     3.1122     0.0354 H       
  31 H31            1.1242     3.0258     0.5214 H       
  32 H32            2.0168     1.4859     0.5046 H       
  33 H33            1.8057     1.3905    -1.9642 H       
  34 H34            0.9132     2.9304    -1.9474 H       
  35 H35            2.8753     4.0566    -0.9323 H       
  36 H36            3.7679     2.5167    -0.9491 H       
  37 H37            3.5568     2.4213    -3.4179 H       
  38 H38            2.6643     3.9612    -3.4011 H       
  39 H39            4.3728     3.9173    -2.9038 H       
  40 H40           -4.2809    -0.0157     1.9887 H       
  41 H41           -6.4347    -1.1990     1.9968 H       
  42 H42           -5.6031    -2.7634    -1.8962 H       
  43 H43           -3.4501    -1.5788    -1.9197 H       
  44 H44           -7.6895    -2.8373    -1.9733 H       
  45 H45           -6.9064    -4.2558    -1.2363 H       
  46 H46          -12.4032    -5.7940    -0.5040 H       
  47 H47          -11.5280    -4.3593     1.3279 H       
  48 H48           -9.3033    -3.2871     1.0397 H       
  49 H49          -10.8718    -7.3782    -2.7011 H       
  50 H50          -12.2884    -6.3137    -2.8688 H       
  51 H51          -10.8125    -5.9856    -3.8081 H       
@<TRIPOS>BOND
   1    1    2 am
   2    1   10 1
   3    1    6 1
   4    2    3 1
   5    2    7 2
   6    3    4 2
   7    3    8 1
   8    4    5 1
   9    4   14 1
  10    5    6 2
  11    5   29 1
  12    6   30 1
  13    8    9 3
  14   10   11 1
  15   10   31 1
  16   10   32 1
  17   11   12 1
  18   11   33 1
  19   11   34 1
  20   12   13 1
  21   12   35 1
  22   12   36 1
  23   13   37 1
  24   13   38 1
  25   13   39 1
  26   14   15 ar
  27   14   19 ar
  28   15   16 ar
  29   15   40 1
  30   16   17 ar
  31   16   41 1
  32   17   18 ar
  33   17   20 1
  34   18   19 ar
  35   18   42 1
  36   19   43 1
  37   20   21 1
  38   21   22 1
  39   21   44 1
  40   21   45 1
  41   22   23 ar
  42   22   27 ar
  43   23   24 ar
  44   24   25 ar
  45   24   28 1
  46   25   26 ar
  47   25   46 1
  48   26   27 ar
  49   26   47 1
  50   27   48 1
  51   28   49 1
  52   28   50 1
  53   28   51 1

#	End of record

