#	Name: ASD01410732
#	Creating user name:	WinNT
#	Creation time:	15. 06. 2019 19:18

#	Modifying user name:	WinNT
#	Modification time:	15. 06. 2019 19:18

#	Program:	/corina/corina34_cracker 3.40 0067  02.08.2006

@<TRIPOS>MOLECULE
ASD01410732
 117  123    0    0    0
SMALL
NO_CHARGES


@<TRIPOS>ATOM
   1 C1             0.9536     0.5216     1.5821 C.3     
   2 C2             0.2525    -0.6230     2.3500 C.3     
   3 N3             0.2767    -0.1889     3.7620 N.am    
   4 C4             0.3176     1.2782     3.7963 C.3     
   5 C5             0.4140     1.7683     2.3350 C.3     
   6 O6             2.3743     0.4249     1.7011 O.3     
   7 C7            -0.9395     1.8113     4.4338 C.2     
   8 O8            -1.7934     1.0440     4.8250 O.2     
   9 N9            -1.1149     3.1407     4.5692 N.am    
  10 C10            1.0876    -1.9039     2.2445 C.3     
  11 C11            0.4707    -2.5029     4.6408 C.3     
  12 C12            0.2982    -1.0204     4.8173 C.2     
  13 O13            0.1765    -0.5654     5.9349 O.2     
  14 C14           -0.7283    -3.2239     5.2600 C.3     
  15 C15           -0.9445    -2.7200     6.6884 C.3     
  16 C16           -2.3894     3.6645     5.0667 C.3     
  17 C17           -3.5994     3.3297     4.2331 C.2     
  18 N18           -3.4778     3.1771     2.8996 N.am    
  19 O19           -4.6826     3.1976     4.7624 O.2     
  20 S20           -4.8241     2.9246     1.9689 S.o2    
  21 C21           -5.7783     4.4592     2.1274 C.3     
  22 C22           -2.5764     3.7451     6.5831 C.3     
  23 C23           -2.3689     5.0241     5.7680 C.3     
  24 C24           -7.1581     4.5044     1.4678 C.3     
  25 C25           -7.0406     4.4202     2.9910 C.3     
  26 O26           -4.3167     2.7869     0.6487 O.2     
  27 O27           -5.4973     1.8503     2.6107 O.2     
  28 C28           -3.9567     3.4842     7.1288 C.2     
  29 C29           -4.1532     2.4992     7.9697 C.2     
  30 C30            3.1148     0.9990     0.7207 C.ar    
  31 C31            4.5282     0.9589     0.7603 C.ar    
  32 C32            2.5136     1.6284    -0.3376 C.ar    
  33 C33            3.3013     2.2140    -1.3381 C.ar    
  34 N34            4.6221     2.1755    -1.2890 N.ar    
  35 C35            5.2640     1.5712    -0.2841 C.ar    
  36 C36            2.6404     2.8898    -2.4743 C.2     
  37 C37            6.6689     1.5374    -0.2430 C.ar    
  38 C38            7.3036     0.9081     0.8047 C.ar    
  39 C39            6.5667     0.3028     1.8266 C.ar    
  40 C40            5.2057     0.3261     1.8125 C.ar    
  41 Cl41           7.5978     2.2838    -1.5054 Cl      
  42 O42            8.6613     0.8749     0.8452 O.3     
  43 C43            9.2610     0.2074     1.9573 C.3     
  44 C44           -1.9793    -2.9427     4.4252 C.3     
  45 N45            3.2513     3.4718    -3.4666 N.2     
  46 C46           10.7843     0.2730     1.8305 C.3     
  47 O47           11.2125     1.6327     1.9300 O.3     
  48 C48           12.6270     1.8059     1.8235 C.3     
  49 C49            2.5005     4.0223    -4.3897 C.2     
  50 C50            1.1782     3.9212    -4.2033 C.2     
  51 S51            0.8999     3.0308    -2.7078 S.3     
  52 C52            3.0889     4.7254    -5.5857 C.3     
  53 C53            3.1636     3.7519    -6.7638 C.3     
  54 C54            2.2052     5.9159    -5.9632 C.3     
  55 N55            0.5670    -2.8624     3.2278 N.am    
  56 O56            0.2426    -4.4182     1.5196 O.3     
  57 C57           -0.1975    -5.7532     1.1555 C.3     
  58 C58           -1.6654    -5.9312     1.5484 C.3     
  59 C59           -0.0469    -5.9455    -0.3549 C.3     
  60 C60            0.6561    -6.7894     1.8892 C.3     
  61 C61            0.1740    -4.0863     2.8226 C.2     
  62 O62           -0.2421    -4.8901     3.6333 O.2     
  63 H63            0.6504     0.5340     0.5352 H       
  64 H64           -0.7680    -0.7712     1.9968 H       
  65 H65            1.1905     1.6117     4.3575 H       
  66 H66            1.1132     2.6004     2.2530 H       
  67 H67           -0.5688     2.0508     1.9578 H       
  68 H68           -0.3972     3.7507     4.3373 H       
  69 H69            0.9995    -2.3202     1.2410 H       
  70 H70            2.1323    -1.6823     2.4625 H       
  71 H71            1.3800    -2.8196     5.1517 H       
  72 H72           -0.5373    -4.2969     5.2783 H       
  73 H73           -1.1355    -1.6470     6.6702 H       
  74 H74           -1.7987    -3.2336     7.1295 H       
  75 H75           -0.0532    -2.9203     7.2831 H       
  76 H76           -2.6018     3.2152     2.4849 H       
  77 H77           -5.1926     5.3785     2.1327 H       
  78 H78           -1.7512     3.4085     7.2106 H       
  79 H79           -1.4071     5.5288     5.8597 H       
  80 H80           -3.2307     5.6764     5.6269 H       
  81 H81           -7.4804     5.4536     1.0396 H       
  82 H82           -7.4925     3.6120     0.9387 H       
  83 H83           -7.2978     3.4724     3.4639 H       
  84 H84           -7.2857     5.3139     3.5648 H       
  85 H85           -4.7840     4.1093     6.8265 H       
  86 H86           -5.1423     2.3122     8.3608 H       
  87 H87           -3.3259     1.8741     8.2720 H       
  88 H88            1.4363     1.6727    -0.4008 H       
  89 H89            7.0834    -0.1860     2.6393 H       
  90 H90            4.6486    -0.1453     2.6086 H       
  91 H91            8.9522     0.6938     2.8826 H       
  92 H92            8.9420    -0.8348     1.9706 H       
  93 H93           -1.8253    -3.3017     3.4076 H       
  94 H94           -2.8335    -3.4563     4.8664 H       
  95 H95           -2.1703    -1.8697     4.4070 H       
  96 H96           11.2409    -0.3111     2.6296 H       
  97 H97           11.0864    -0.1334     0.8652 H       
  98 H98           13.1218     1.2536     2.6224 H       
  99 H99           12.9673     1.4313     0.8581 H       
 100 H100          12.8708     2.8648     1.9088 H       
 101 H101           0.4144     4.3135    -4.8583 H       
 102 H102           4.0908     5.0792    -5.3427 H       
 103 H103           3.5892     4.2605    -7.6289 H       
 104 H104           3.7932     2.9038    -6.4949 H       
 105 H105           2.1617     3.3981    -7.0068 H       
 106 H106           2.1519     6.6094    -5.1239 H       
 107 H107           2.6307     6.4245    -6.8283 H       
 108 H108           1.2032     5.5621    -6.2062 H       
 109 H109          -2.2736    -5.1929     1.0257 H       
 110 H110          -1.9958    -6.9333     1.2750 H       
 111 H111          -1.7727    -5.7942     2.6244 H       
 112 H112           0.9989    -5.8187    -0.6349 H       
 113 H113          -0.3773    -6.9476    -0.6283 H       
 114 H114          -0.6551    -5.2072    -0.8776 H       
 115 H115           0.5489    -6.6524     2.9652 H       
 116 H116           0.3258    -7.7916     1.6158 H       
 117 H117           1.7019    -6.6626     1.6092 H       
@<TRIPOS>BOND
   1    1    2 1
   2    1    6 1
   3    1    5 1
   4    1   63 1
   5    2    3 1
   6    2   10 1
   7    2   64 1
   8    3    4 1
   9    3   12 am
  10    4    5 1
  11    4    7 1
  12    4   65 1
  13    5   66 1
  14    5   67 1
  15    6   30 1
  16    7    8 2
  17    7    9 am
  18    9   16 1
  19    9   68 1
  20   10   55 1
  21   10   69 1
  22   10   70 1
  23   11   12 1
  24   11   14 1
  25   11   55 1
  26   11   71 1
  27   12   13 2
  28   14   15 1
  29   14   44 1
  30   14   72 1
  31   15   73 1
  32   15   74 1
  33   15   75 1
  34   16   17 1
  35   16   22 1
  36   16   23 1
  37   17   18 am
  38   17   19 2
  39   18   20 am
  40   18   76 1
  41   20   21 1
  42   20   26 2
  43   20   27 2
  44   21   24 1
  45   21   25 1
  46   21   77 1
  47   22   23 1
  48   22   28 1
  49   22   78 1
  50   23   79 1
  51   23   80 1
  52   24   25 1
  53   24   81 1
  54   24   82 1
  55   25   83 1
  56   25   84 1
  57   28   29 2
  58   28   85 1
  59   29   86 1
  60   29   87 1
  61   30   31 ar
  62   30   32 ar
  63   31   35 ar
  64   31   40 ar
  65   32   33 ar
  66   32   88 1
  67   33   34 ar
  68   33   36 1
  69   34   35 ar
  70   35   37 ar
  71   36   45 2
  72   36   51 1
  73   37   38 ar
  74   37   41 1
  75   38   39 ar
  76   38   42 1
  77   39   40 ar
  78   39   89 1
  79   40   90 1
  80   42   43 1
  81   43   46 1
  82   43   91 1
  83   43   92 1
  84   44   93 1
  85   44   94 1
  86   44   95 1
  87   45   49 1
  88   46   47 1
  89   46   96 1
  90   46   97 1
  91   47   48 1
  92   48   98 1
  93   48   99 1
  94   48  100 1
  95   49   50 2
  96   49   52 1
  97   50   51 1
  98   50  101 1
  99   52   53 1
 100   52   54 1
 101   52  102 1
 102   53  103 1
 103   53  104 1
 104   53  105 1
 105   54  106 1
 106   54  107 1
 107   54  108 1
 108   55   61 am
 109   56   57 1
 110   56   61 1
 111   57   58 1
 112   57   59 1
 113   57   60 1
 114   58  109 1
 115   58  110 1
 116   58  111 1
 117   59  112 1
 118   59  113 1
 119   59  114 1
 120   60  115 1
 121   60  116 1
 122   60  117 1
 123   61   62 2

#	End of record

