#	Name: ASD01418031
#	Creating user name:	WinNT
#	Creation time:	15. 06. 2019 19:20

#	Modifying user name:	WinNT
#	Modification time:	15. 06. 2019 19:20

#	Program:	/corina/corina34_cracker 3.40 0067  02.08.2006

@<TRIPOS>MOLECULE
ASD01418031
  72   76    0    0    0
SMALL
NO_CHARGES


@<TRIPOS>ATOM
   1 C1            -0.0178     1.4639     0.0101 C.3     
   2 N2             0.0021    -0.0041     0.0020 N.pl3   
   3 C3             0.6017    -0.7897     0.9590 C.2     
   4 C4             1.2670    -0.2904     2.1781 C.ar    
   5 C5             2.0016     0.9070     2.1878 C.ar    
   6 C6             2.2591     1.6924     0.9887 C.2     
   7 C7             1.4033     1.9587    -0.0008 C.2     
   8 C8             1.1448    -1.0407     3.3527 C.ar    
   9 C9             1.7071    -0.5938     4.5269 C.ar    
  10 C10            2.3984     0.6135     4.5548 C.ar    
  11 C11            2.5457     1.3591     3.4022 C.ar    
  12 C12           -0.5482    -0.8183    -0.9508 C.ar    
  13 C13           -0.2575    -2.1594    -0.5816 C.ar    
  14 C14            0.4679    -2.1044     0.6170 C.2     
  15 C15           -1.2693    -0.5363    -2.1025 C.ar    
  16 C16           -1.6867    -1.6309    -2.8709 C.ar    
  17 C17           -1.3933    -2.9484    -2.5002 C.ar    
  18 C18           -0.6843    -3.2424    -1.3678 C.ar    
  19 C19            1.0031    -3.2834     1.3881 C.3     
  20 C20           -0.1571    -4.1901     1.8038 C.3     
  21 C21            1.9750    -4.0705     0.5068 C.3     
  22 C22            2.5184    -5.2675     1.2897 C.3     
  23 C23            1.3582    -6.1742     1.7054 C.3     
  24 C24            0.3862    -5.3871     2.5867 C.3     
  25 O25            2.9308     1.0608     5.7220 O.3     
  26 C26            2.7422     0.2413     6.8773 C.3     
  27 C27           -2.4568    -1.3883    -4.1043 C.2     
  28 O28           -2.7212    -0.2513    -4.4417 O.2     
  29 O29           -2.8677    -2.4275    -4.8575 O.3     
  30 C30            1.8627     2.7588    -1.1341 C.2     
  31 O31            3.0072     3.1695    -1.1644 O.2     
  32 O32            1.0173     3.0418    -2.1468 O.3     
  33 C33            1.5336     3.8287    -3.2222 C.3     
  34 C34           -3.6214    -2.1140    -6.0584 C.3     
  35 C35           -2.7668    -1.2471    -6.9851 C.3     
  36 C36           -3.9981    -3.4111    -6.7772 C.3     
  37 C37           -4.8934    -1.3537    -5.6781 C.3     
  38 H38           -0.5403     1.8287    -0.8743 H       
  39 H39           -0.5232     1.8191     0.9081 H       
  40 H40            3.2521     2.1052     0.8891 H       
  41 H41            0.6055    -1.9763     3.3381 H       
  42 H42            1.6114    -1.1810     5.4282 H       
  43 H43            3.0823     2.2958     3.4341 H       
  44 H44           -1.4982     0.4785    -2.3924 H       
  45 H45           -1.7369    -3.7576    -3.1275 H       
  46 H46           -0.4627    -4.2624    -1.0903 H       
  47 H47            1.5243    -2.9295     2.2776 H       
  48 H48           -0.8495    -3.6293     2.4316 H       
  49 H49           -0.6783    -4.5440     0.9143 H       
  50 H50            1.4538    -4.4245    -0.3826 H       
  51 H51            2.8016    -3.4246     0.2107 H       
  52 H52            3.2108    -5.8283     0.6619 H       
  53 H53            3.0396    -4.9136     2.1792 H       
  54 H54            0.8370    -6.5281     0.8159 H       
  55 H55            1.7452    -7.0269     2.2632 H       
  56 H56            0.9074    -5.0331     3.4762 H       
  57 H57           -0.4403    -6.0330     2.8828 H       
  58 H58            3.2153     0.7129     7.7385 H       
  59 H59            1.6756     0.1227     7.0684 H       
  60 H60            3.1916    -0.7369     6.7062 H       
  61 H61            1.8656     4.7937    -2.8394 H       
  62 H62            2.3759     3.3101    -3.6801 H       
  63 H63            0.7530     3.9824    -3.9673 H       
  64 H64           -1.8605    -1.7887    -7.2560 H       
  65 H65           -3.3325    -1.0117    -7.8865 H       
  66 H66           -2.4984    -0.3230    -6.4730 H       
  67 H67           -4.6069    -4.0287    -6.1170 H       
  68 H68           -4.5639    -3.1757    -7.6786 H       
  69 H69           -3.0919    -3.9528    -7.0481 H       
  70 H70           -4.6250    -0.4297    -5.1660 H       
  71 H71           -5.4592    -1.1184    -6.5795 H       
  72 H72           -5.5023    -1.9714    -5.0179 H       
@<TRIPOS>BOND
   1    1    2 1
   2    1    7 1
   3    1   38 1
   4    1   39 1
   5    2    3 1
   6    2   12 1
   7    3    4 1
   8    3   14 2
   9    4    5 ar
  10    4    8 ar
  11    5    6 1
  12    5   11 ar
  13    6    7 2
  14    6   40 1
  15    7   30 1
  16    8    9 ar
  17    8   41 1
  18    9   10 ar
  19    9   42 1
  20   10   11 ar
  21   10   25 1
  22   11   43 1
  23   12   13 ar
  24   12   15 ar
  25   13   14 1
  26   13   18 ar
  27   14   19 1
  28   15   16 ar
  29   15   44 1
  30   16   17 ar
  31   16   27 1
  32   17   18 ar
  33   17   45 1
  34   18   46 1
  35   19   20 1
  36   19   21 1
  37   19   47 1
  38   20   24 1
  39   20   48 1
  40   20   49 1
  41   21   22 1
  42   21   50 1
  43   21   51 1
  44   22   23 1
  45   22   52 1
  46   22   53 1
  47   23   24 1
  48   23   54 1
  49   23   55 1
  50   24   56 1
  51   24   57 1
  52   25   26 1
  53   26   58 1
  54   26   59 1
  55   26   60 1
  56   27   28 2
  57   27   29 1
  58   29   34 1
  59   30   31 2
  60   30   32 1
  61   32   33 1
  62   33   61 1
  63   33   62 1
  64   33   63 1
  65   34   35 1
  66   34   36 1
  67   34   37 1
  68   35   64 1
  69   35   65 1
  70   35   66 1
  71   36   67 1
  72   36   68 1
  73   36   69 1
  74   37   70 1
  75   37   71 1
  76   37   72 1

#	End of record

