#	Name: ASD03091434
#	Creating user name:	WinNT
#	Creation time:	15. 06. 2019 20:30

#	Modifying user name:	WinNT
#	Modification time:	15. 06. 2019 20:30

#	Program:	/corina/corina34_cracker 3.40 0067  02.08.2006

@<TRIPOS>MOLECULE
ASD03091434
  31   33    0    0    0
SMALL
NO_CHARGES


@<TRIPOS>ATOM
   1 C1            -0.0121     1.4746    -0.0284 C.3     
   2 C2             0.0537    -0.0528    -0.0905 C.3     
   3 N3             0.7523    -0.5627     1.0962 N.3     
   4 C4             0.0329    -0.2106     2.3271 C.3     
   5 C5            -0.0341     1.3120     2.4632 C.3     
   6 C6             1.3885     1.8781     2.5290 C.3     
   7 N7             2.0617     1.6127     1.2503 N.am    
   8 C8             1.4109     2.0424     0.0052 C.3     
   9 C9            -0.7518     1.8987     1.2440 C.3     
  10 C10            3.2546     0.9861     1.2201 C.2     
  11 O11            3.7487     0.6705     0.1550 O.2     
  12 O12            3.6118     1.0792     3.7180 O.3     
  13 N13            4.3894     0.6715     4.5490 N.2     
  14 C14            5.3449    -0.0349     4.0167 C.2     
  15 C15            5.1018    -0.0573     2.6243 C.2     
  16 C16            3.9607     0.6831     2.4794 C.2     
  17 Br17           6.7773    -0.8679     4.9279 Br      
  18 H18           -0.5360     1.8536    -0.9059 H       
  19 H19           -0.9574    -0.4590    -0.1192 H       
  20 H20            0.5926    -0.3569    -0.9878 H       
  21 H21            0.8931    -1.5598     1.0324 H       
  22 H22           -0.9779    -0.6162     2.2855 H       
  23 H23            0.5569    -0.6292     3.1863 H       
  24 H24           -0.5739     1.5739     3.3732 H       
  25 H25            1.3463     2.9532     2.7036 H       
  26 H26            1.9369     1.3954     3.3379 H       
  27 H27            1.9740     1.6679    -0.8497 H       
  28 H28            1.3708     3.1311    -0.0294 H       
  29 H29           -0.7602     2.9864     1.3149 H       
  30 H30           -1.7760     1.5272     1.2107 H       
  31 H31            5.6819    -0.5445     1.8545 H       
@<TRIPOS>BOND
   1    1    2 1
   2    1    8 1
   3    1    9 1
   4    1   18 1
   5    2    3 1
   6    2   19 1
   7    2   20 1
   8    3    4 1
   9    3   21 1
  10    4    5 1
  11    4   22 1
  12    4   23 1
  13    5    6 1
  14    5    9 1
  15    5   24 1
  16    6    7 1
  17    6   25 1
  18    6   26 1
  19    7    8 1
  20    7   10 am
  21    8   27 1
  22    8   28 1
  23    9   29 1
  24    9   30 1
  25   10   11 2
  26   10   16 1
  27   12   13 1
  28   12   16 1
  29   13   14 2
  30   14   15 1
  31   14   17 1
  32   15   16 2
  33   15   31 1

#	End of record

