#	Name: ASD01910196
#	Creating user name:	WinNT
#	Creation time:	15. 06. 2019 19:55

#	Modifying user name:	WinNT
#	Modification time:	15. 06. 2019 19:55

#	Program:	/corina/corina34_cracker 3.40 0067  02.08.2006

@<TRIPOS>MOLECULE
ASD01910196
  41   44    0    0    0
SMALL
NO_CHARGES


@<TRIPOS>ATOM
   1 C1            -0.0164     1.3749    -0.0308 C.ar    
   2 C2             0.0027    -0.0067    -0.0441 C.ar    
   3 C3             1.2075    -0.6930    -0.0577 C.ar    
   4 C4             2.3996     0.0125    -0.0586 C.ar    
   5 C5             2.3802     1.4224    -0.0455 C.ar    
   6 C6             1.1689     2.0944    -0.0315 C.ar    
   7 C7             3.8268    -0.3719    -0.0708 C.2     
   8 N8             4.5724     0.7477    -0.0651 N.am    
   9 C9             3.7961     1.8463    -0.0503 C.2     
  10 O10            4.1924     2.9942    -0.0426 O.2     
  11 O11            4.2546    -1.5085    -0.0835 O.2     
  12 C12            5.9740     0.7672    -0.0740 C.ar    
  13 C13            6.6851    -0.4261    -0.0897 C.ar    
  14 C14            8.0676    -0.4126    -0.0980 C.ar    
  15 C15            8.7504     0.7863    -0.0912 C.ar    
  16 C16            8.0449     1.9911    -0.0758 C.ar    
  17 C17            6.6502     1.9770    -0.0727 C.ar    
  18 C18            8.7736     3.2773    -0.0679 C.2     
  19 N19           10.1213     3.2883    -0.0755 N.am    
  20 C20           10.8101     4.5008    -0.1809 C.ar    
  21 C21           12.0155     4.6762     0.4868 C.ar    
  22 C22           12.6958     5.8741     0.3827 C.ar    
  23 C23           12.1794     6.9005    -0.3848 C.ar    
  24 C24           10.9751     6.7311    -1.0539 C.ar    
  25 C25           10.2929     5.5287    -0.9574 C.ar    
  26 O26            8.1573     4.3250    -0.0546 O.2     
  27 O27           10.4680     7.7418    -1.8076 O.3     
  28 H28           -0.9612     1.8981    -0.0244 H       
  29 H29           -0.9273    -0.5559    -0.0434 H       
  30 H30            1.2164    -1.7729    -0.0673 H       
  31 H31            1.1479     3.1742    -0.0219 H       
  32 H32            6.1561    -1.3677    -0.0951 H       
  33 H33            8.6149    -1.3436    -0.1096 H       
  34 H34            9.8304     0.7928    -0.0974 H       
  35 H35            6.0990     2.9057    -0.0612 H       
  36 H36           10.6135     2.4552    -0.0080 H       
  37 H37           12.4209     3.8757     1.0879 H       
  38 H38           13.6329     6.0087     0.9025 H       
  39 H39           12.7134     7.8359    -0.4640 H       
  40 H40            9.3559     5.3950    -1.4775 H       
  41 H41           10.7561     7.7269    -2.7306 H       
@<TRIPOS>BOND
   1    1    2 ar
   2    1    6 ar
   3    1   28 1
   4    2    3 ar
   5    2   29 1
   6    3    4 ar
   7    3   30 1
   8    4    5 ar
   9    4    7 1
  10    5    6 ar
  11    5    9 1
  12    6   31 1
  13    7    8 am
  14    7   11 2
  15    8    9 am
  16    8   12 1
  17    9   10 2
  18   12   13 ar
  19   12   17 ar
  20   13   14 ar
  21   13   32 1
  22   14   15 ar
  23   14   33 1
  24   15   16 ar
  25   15   34 1
  26   16   17 ar
  27   16   18 1
  28   17   35 1
  29   18   19 am
  30   18   26 2
  31   19   20 1
  32   19   36 1
  33   20   21 ar
  34   20   25 ar
  35   21   22 ar
  36   21   37 1
  37   22   23 ar
  38   22   38 1
  39   23   24 ar
  40   23   39 1
  41   24   25 ar
  42   24   27 1
  43   25   40 1
  44   27   41 1

#	End of record

