#	Name: ASD03330422
#	Creating user name:	WinNT
#	Creation time:	15. 06. 2019 20:37

#	Modifying user name:	WinNT
#	Modification time:	15. 06. 2019 20:37

#	Program:	/corina/corina34_cracker 3.40 0067  02.08.2006

@<TRIPOS>MOLECULE
ASD03330422
  59   63    0    0    0
SMALL
NO_CHARGES


@<TRIPOS>ATOM
   1 C1             0.0313     2.5333    -2.1880 C.3     
   2 N2            -0.2369     1.0884    -2.1882 N.3     
   3 C3             0.4256     0.4234    -3.3249 C.3     
   4 C4             1.8678     0.8595    -3.3424 C.2     
   5 N5             2.3410     1.9349    -2.6477 N.pl3   
   6 C6             1.4959     2.7907    -1.8104 C.3     
   7 C7             2.9195     0.3149    -4.0025 C.2     
   8 N8             4.0160     1.0510    -3.7073 N.2     
   9 C9             3.6743     2.0249    -2.8932 C.2     
  10 C10            4.5877     3.0468    -2.3377 C.ar    
  11 C11            2.8763    -0.8660    -4.8827 C.2     
  12 O12            1.8509    -1.5123    -4.9832 O.2     
  13 C13            5.1764    -0.3862    -5.5697 C.3     
  14 N14            3.9730    -1.2299    -5.5764 N.am    
  15 C15           -1.6814     0.8212    -2.1910 C.3     
  16 C16            4.4871     3.4222    -0.9975 C.ar    
  17 C17            5.3418     4.3753    -0.4846 C.ar    
  18 C18            6.2996     4.9608    -1.2962 C.ar    
  19 C19            6.4057     4.5945    -2.6264 C.ar    
  20 C20            5.5589     3.6363    -3.1512 C.ar    
  21 F21            5.6625     3.2788    -4.4500 F       
  22 Cl22           7.3711     6.1597    -0.6418 Cl      
  23 C23            6.3679    -1.2357    -5.1105 C.3     
  24 N24            6.3820    -2.4835    -5.8868 N.am    
  25 C25            5.1786    -3.3271    -5.8935 C.3     
  26 C26            3.9871    -2.4776    -6.3528 C.3     
  27 C27            7.4787    -2.8474    -6.5805 C.2     
  28 O28            8.4921    -2.1800    -6.5092 O.2     
  29 C29            7.4491    -4.0583    -7.4283 C.ar    
  30 C30            8.0452    -4.0451    -8.6903 C.ar    
  31 C31            8.0145    -5.1785    -9.4761 C.ar    
  32 C32            7.3942    -6.3265    -9.0159 C.ar    
  33 C33            6.8014    -6.3462    -7.7659 C.ar    
  34 C34            6.8301    -5.2214    -6.9677 C.ar    
  35 H35           -0.1632     2.9380    -3.1813 H       
  36 H36           -0.6207     3.0227    -1.4646 H       
  37 H37            0.3692    -0.6583    -3.2028 H       
  38 H38           -0.0592     0.7156    -4.2564 H       
  39 H39            1.7428     3.8375    -1.9873 H       
  40 H40            1.6530     2.5476    -0.7596 H       
  41 H41            5.3630    -0.0072    -6.5745 H       
  42 H42            5.0348     0.4475    -4.8820 H       
  43 H43           -2.1414     1.3192    -3.0444 H       
  44 H44           -1.8520    -0.2531    -2.2619 H       
  45 H45           -2.1225     1.1990    -1.2686 H       
  46 H46            3.7409     2.9673    -0.3630 H       
  47 H47            5.2638     4.6662     0.5525 H       
  48 H48            7.1539     5.0550    -3.2545 H       
  49 H49            7.2948    -0.6882    -5.2810 H       
  50 H50            6.2659    -1.4658    -4.0499 H       
  51 H51            5.3202    -4.1608    -6.5813 H       
  52 H52            4.9920    -3.7062    -4.8887 H       
  53 H53            3.0602    -3.0251    -6.1822 H       
  54 H54            4.0891    -2.2475    -7.4133 H       
  55 H55            8.5291    -3.1494    -9.0510 H       
  56 H56            8.4753    -5.1697   -10.4528 H       
  57 H57            7.3723    -7.2109    -9.6354 H       
  58 H58            6.3189    -7.2455    -7.4126 H       
  59 H59            6.3673    -5.2382    -5.9920 H       
@<TRIPOS>BOND
   1    1    2 1
   2    1    6 1
   3    1   35 1
   4    1   36 1
   5    2    3 1
   6    2   15 1
   7    3    4 1
   8    3   37 1
   9    3   38 1
  10    4    5 1
  11    4    7 2
  12    5    6 1
  13    5    9 1
  14    6   39 1
  15    6   40 1
  16    7    8 1
  17    7   11 1
  18    8    9 2
  19    9   10 1
  20   10   16 ar
  21   10   20 ar
  22   11   12 2
  23   11   14 am
  24   13   14 1
  25   13   23 1
  26   13   41 1
  27   13   42 1
  28   14   26 1
  29   15   43 1
  30   15   44 1
  31   15   45 1
  32   16   17 ar
  33   16   46 1
  34   17   18 ar
  35   17   47 1
  36   18   19 ar
  37   18   22 1
  38   19   20 ar
  39   19   48 1
  40   20   21 1
  41   23   24 1
  42   23   49 1
  43   23   50 1
  44   24   25 1
  45   24   27 am
  46   25   26 1
  47   25   51 1
  48   25   52 1
  49   26   53 1
  50   26   54 1
  51   27   28 2
  52   27   29 1
  53   29   30 ar
  54   29   34 ar
  55   30   31 ar
  56   30   55 1
  57   31   32 ar
  58   31   56 1
  59   32   33 ar
  60   32   57 1
  61   33   34 ar
  62   33   58 1
  63   34   59 1

#	End of record

