#	Name: ASD03090583
#	Creating user name:	WinNT
#	Creation time:	15. 06. 2019 20:29

#	Modifying user name:	WinNT
#	Modification time:	15. 06. 2019 20:29

#	Program:	/corina/corina34_cracker 3.40 0067  02.08.2006

@<TRIPOS>MOLECULE
ASD03090583
  33   34    0    0    0
SMALL
NO_CHARGES


@<TRIPOS>ATOM
   1 N1            -0.0162     1.3436     0.0094 N.am    
   2 C2             0.0197     0.1477     0.6300 C.2     
   3 O3             1.0732    -0.2850     1.0557 O.2     
   4 N4            -1.1123    -0.5685     0.7788 N.am    
   5 C5            -1.0754    -1.8010     1.4184 C.2     
   6 N6            -2.1029    -2.5893     1.6238 N.2     
   7 C7            -1.6932    -3.6933     2.2697 C.2     
   8 C8            -0.3683    -3.5946     2.4758 C.2     
   9 N9             0.0336    -2.3972     1.9324 N.pl3   
  10 C10            1.1451     2.1276    -0.0709 C.ar    
  11 C11            1.0448     3.5109    -0.1996 C.ar    
  12 C12            2.1922     4.2822    -0.2787 C.ar    
  13 C13            3.4390     3.6766    -0.2298 C.ar    
  14 C14            3.5377     2.2984    -0.1017 C.ar    
  15 C15            2.3934     1.5263    -0.0167 C.ar    
  16 O16            4.5657     4.4341    -0.3080 O.3     
  17 C17            4.3903     5.8462    -0.4393 C.3     
  18 O18           -0.1784     4.1032    -0.2478 O.3     
  19 C19           -0.2056     5.5258    -0.3805 C.3     
  20 Cl20           5.0996     1.5430    -0.0414 Cl      
  21 H21           -0.8437     1.6606    -0.3852 H       
  22 H22           -1.9528    -0.2233     0.4392 H       
  23 H23           -2.3206    -4.5189     2.5718 H       
  24 H24            0.2611    -4.3196     2.9704 H       
  25 H25            0.9368    -2.0435     1.9203 H       
  26 H26            2.1162     5.3549    -0.3788 H       
  27 H27            2.4721     0.4542     0.0878 H       
  28 H28            3.8414     6.2258     0.4225 H       
  29 H29            5.3656     6.3302    -0.4909 H       
  30 H30            3.8302     6.0596    -1.3497 H       
  31 H31            0.2961     5.8142    -1.3042 H       
  32 H32           -1.2400     5.8686    -0.4065 H       
  33 H33            0.3064     5.9797     0.4680 H       
@<TRIPOS>BOND
   1    1    2 am
   2    1   10 1
   3    1   21 1
   4    2    3 2
   5    2    4 am
   6    4    5 1
   7    4   22 1
   8    5    6 2
   9    5    9 1
  10    6    7 1
  11    7    8 2
  12    7   23 1
  13    8    9 1
  14    8   24 1
  15    9   25 1
  16   10   11 ar
  17   10   15 ar
  18   11   12 ar
  19   11   18 1
  20   12   13 ar
  21   12   26 1
  22   13   14 ar
  23   13   16 1
  24   14   15 ar
  25   14   20 1
  26   15   27 1
  27   16   17 1
  28   17   28 1
  29   17   29 1
  30   17   30 1
  31   18   19 1
  32   19   31 1
  33   19   32 1
  34   19   33 1

#	End of record

