#	Name: ASD00310012
#	Creating user name:	WinNT
#	Creation time:	15. 06. 2019 18:33

#	Modifying user name:	WinNT
#	Modification time:	15. 06. 2019 18:33

#	Program:	/corina/corina34_cracker 3.40 0067  02.08.2006

@<TRIPOS>MOLECULE
ASD00310012
  29   30    0    0    0
SMALL
NO_CHARGES


@<TRIPOS>ATOM
   1 C1             0.0932     1.2077     0.1662 C.3     
   2 O2             0.3479    -0.1932     0.2872 O.3     
   3 C3             1.4181     1.9544    -0.0010 C.3     
   4 C4             1.1579     3.4692    -0.1330 C.3     
   5 C5             1.3441     4.0133     1.3052 C.3     
   6 C6             2.5310     3.1726     1.8377 C.3     
   7 C7             2.2911     1.7658     1.2520 C.3     
   8 C8             2.1457     1.4475    -1.2194 C.ar    
   9 C9             3.4292     1.8845    -1.4894 C.ar    
  10 C10            4.0971     1.4195    -2.6066 C.ar    
  11 C11            3.4811     0.5167    -3.4545 C.ar    
  12 C12            2.1969     0.0797    -3.1840 C.ar    
  13 C13            1.5317     0.5412    -2.0637 C.ar    
  14 Br14           4.3942    -0.1194    -4.9835 Br      
  15 H15           -0.5380     1.3883    -0.7039 H       
  16 H16           -0.4139     1.5636     1.0630 H       
  17 H17           -0.4491    -0.7299     0.3965 H       
  18 H18            1.8822     3.9231    -0.8093 H       
  19 H19            0.1417     3.6528    -0.4817 H       
  20 H20            1.5985     5.0730     1.2874 H       
  21 H21            0.4491     3.8398     1.9027 H       
  22 H22            3.4771     3.5787     1.4797 H       
  23 H23            2.5168     3.1398     2.9271 H       
  24 H24            1.7709     1.1424     1.9792 H       
  25 H25            3.2419     1.3078     0.9792 H       
  26 H26            3.9099     2.5896    -0.8275 H       
  27 H27            5.0996     1.7612    -2.8176 H       
  28 H28            1.7154    -0.6248    -3.8460 H       
  29 H29            0.5306     0.1970    -1.8502 H       
@<TRIPOS>BOND
   1    1    2 1
   2    1    3 1
   3    1   15 1
   4    1   16 1
   5    2   17 1
   6    3    4 1
   7    3    7 1
   8    3    8 1
   9    4    5 1
  10    4   18 1
  11    4   19 1
  12    5    6 1
  13    5   20 1
  14    5   21 1
  15    6    7 1
  16    6   22 1
  17    6   23 1
  18    7   24 1
  19    7   25 1
  20    8    9 ar
  21    8   13 ar
  22    9   10 ar
  23    9   26 1
  24   10   11 ar
  25   10   27 1
  26   11   12 ar
  27   11   14 1
  28   12   13 ar
  29   12   28 1
  30   13   29 1

#	End of record

