#	Name: ASD02398019
#	Creating user name:	WinNT
#	Creation time:	15. 06. 2019 20:20

#	Modifying user name:	WinNT
#	Modification time:	15. 06. 2019 20:20

#	Program:	/corina/corina34_cracker 3.40 0067  02.08.2006

@<TRIPOS>MOLECULE
ASD02398019
  63   66    0    0    0
SMALL
NO_CHARGES


@<TRIPOS>ATOM
   1 C1            -0.2363     1.3553    -0.0521 C.ar    
   2 C2             0.0605    -0.0092    -0.1259 C.ar    
   3 C3            -0.9710    -0.9434    -0.0745 C.ar    
   4 C4            -2.2790    -0.5193     0.0488 C.ar    
   5 C5            -2.5695     0.8313     0.1216 C.ar    
   6 C6            -1.5529     1.7668     0.0768 C.ar    
   7 C7            -3.3943    -1.5312     0.1038 C.3     
   8 C8            -3.5790    -1.9985     1.5246 C.2     
   9 O9            -2.8173    -1.6280     2.3863 O.2     
  10 O10           -4.5896    -2.8264     1.8329 O.3     
  11 C11            1.4675    -0.4595    -0.2589 C.ar    
  12 C12            2.3629    -0.2766     0.7935 C.ar    
  13 C13            1.8975    -1.0723    -1.4342 C.ar    
  14 C14            3.2079    -1.4898    -1.5522 C.ar    
  15 C15            4.0934    -1.3009    -0.5067 C.ar    
  16 C16            3.6706    -0.6979     0.6644 C.ar    
  17 C17            1.9040     0.3806     2.0696 C.3     
  18 N18            2.9787     0.3211     3.0635 N.am    
  19 C19            3.9924     1.1913     3.1681 C.2     
  20 O20            4.8429     0.9141     4.1627 O.3     
  21 C21            4.4017    -0.2877     4.8584 C.3     
  22 C22            3.1175    -0.6998     4.1132 C.3     
  23 O23            4.1270     2.1447     2.4269 O.2     
  24 C24            3.2809    -2.0861     3.4868 C.3     
  25 C25            5.4461    -1.3695     4.7583 C.ar    
  26 C26            5.6033    -2.2760     5.7899 C.ar    
  27 C27            6.2432    -1.4587     3.6323 C.ar    
  28 C28            7.2012    -2.4510     3.5405 C.ar    
  29 C29            7.3625    -3.3538     4.5748 C.ar    
  30 C30            6.5614    -3.2683     5.6981 C.ar    
  31 O31            0.7633     2.2739    -0.1010 O.3     
  32 C32            0.3848     3.6495    -0.0201 C.3     
  33 C33           -4.7756    -3.1453     3.2371 C.3     
  34 C34            5.5226    -1.7593    -0.6414 C.3     
  35 F35            5.7096    -2.3394    -1.9007 F       
  36 F36            6.3794    -0.6623    -0.5015 F       
  37 F37            5.8057    -2.7019     0.3529 F       
  38 H38           -0.7480    -1.9986    -0.1314 H       
  39 H39           -3.5950     1.1561     0.2180 H       
  40 H40           -1.7858     2.8198     0.1340 H       
  41 H41           -4.3178    -1.0737    -0.2511 H       
  42 H42           -3.1441    -2.3826    -0.5290 H       
  43 H43            1.2068    -1.2206    -2.2511 H       
  44 H44            3.5422    -1.9652    -2.4625 H       
  45 H45            4.3663    -0.5529     1.4777 H       
  46 H46            1.6499     1.4218     1.8711 H       
  47 H47            1.0265    -0.1410     2.4517 H       
  48 H48            4.1794    -0.0652     5.9020 H       
  49 H49            2.2611    -0.6818     4.7874 H       
  50 H50            3.5140    -2.8117     4.2660 H       
  51 H51            2.3539    -2.3718     2.9897 H       
  52 H52            4.0914    -2.0623     2.7583 H       
  53 H53            4.9779    -2.2089     6.6678 H       
  54 H54            6.1171    -0.7533     2.8243 H       
  55 H55            7.8234    -2.5211     2.6606 H       
  56 H56            8.1107    -4.1293     4.5029 H       
  57 H57            6.6874    -3.9737     6.5062 H       
  58 H58           -0.1323     3.8292     0.9225 H       
  59 H59            1.2760     4.2751    -0.0707 H       
  60 H60           -0.2780     3.8934    -0.8504 H       
  61 H61           -5.0485    -2.2415     3.7819 H       
  62 H62           -5.5696    -3.8850     3.3397 H       
  63 H63           -3.8484    -3.5488     3.6440 H       
@<TRIPOS>BOND
   1    1    2 ar
   2    1   31 1
   3    1    6 ar
   4    2    3 ar
   5    2   11 1
   6    3    4 ar
   7    3   38 1
   8    4    5 ar
   9    4    7 1
  10    5    6 ar
  11    5   39 1
  12    6   40 1
  13    7    8 1
  14    7   41 1
  15    7   42 1
  16    8    9 2
  17    8   10 1
  18   10   33 1
  19   11   12 ar
  20   11   13 ar
  21   12   17 1
  22   12   16 ar
  23   13   14 ar
  24   13   43 1
  25   14   15 ar
  26   14   44 1
  27   15   16 ar
  28   15   34 1
  29   16   45 1
  30   17   18 1
  31   17   46 1
  32   17   47 1
  33   18   19 am
  34   18   22 1
  35   19   20 1
  36   19   23 2
  37   20   21 1
  38   21   22 1
  39   21   25 1
  40   21   48 1
  41   22   24 1
  42   22   49 1
  43   24   50 1
  44   24   51 1
  45   24   52 1
  46   25   26 ar
  47   25   27 ar
  48   26   30 ar
  49   26   53 1
  50   27   28 ar
  51   27   54 1
  52   28   29 ar
  53   28   55 1
  54   29   30 ar
  55   29   56 1
  56   30   57 1
  57   31   32 1
  58   32   58 1
  59   32   59 1
  60   32   60 1
  61   33   61 1
  62   33   62 1
  63   33   63 1
  64   34   35 1
  65   34   36 1
  66   34   37 1

#	End of record

