#	Name: ASD01912414
#	Creating user name:	WinNT
#	Creation time:	15. 06. 2019 19:59

#	Modifying user name:	WinNT
#	Modification time:	15. 06. 2019 19:59

#	Program:	/corina/corina34_cracker 3.40 0067  02.08.2006

@<TRIPOS>MOLECULE
ASD01912414
  48   50    0    0    0
SMALL
NO_CHARGES


@<TRIPOS>ATOM
   1 C1            -0.0168     1.3846     0.0097 C.ar    
   2 C2             0.0021    -0.0041     0.0020 C.ar    
   3 C3             1.2188    -0.6622    -0.0131 C.ar    
   4 C4             2.3855     0.1003    -0.0201 C.ar    
   5 C5             2.2883     1.4836    -0.0118 C.ar    
   6 N6             1.1095     2.0767     0.0026 N.ar    
   7 N7             3.6392    -0.5222    -0.0350 N.3     
   8 C8             4.7201     0.4716    -0.0400 C.3     
   9 C9             6.0616    -0.2341     0.1889 C.3     
  10 C10            6.1976    -1.3386    -0.8382 C.2     
  11 C11            5.0289    -2.2852    -1.0156 C.3     
  12 C12            3.7530    -1.4492    -1.1679 C.3     
  13 C13            7.3081    -1.4727    -1.5619 C.2     
  14 C14            7.4112    -2.5259    -2.5267 C.1     
  15 C15            7.4956    -3.3893    -3.3177 C.1     
  16 C16            7.5987    -4.4425    -4.2825 C.ar    
  17 C17            8.7661    -4.5788    -5.0392 C.ar    
  18 C18            8.8493    -5.6011    -5.9665 C.ar    
  19 C19            7.7647    -6.4564    -6.1105 C.ar    
  20 C20            6.6396    -6.2651    -5.3294 C.ar    
  21 N21            6.5851    -5.2874    -4.4485 N.ar    
  22 C22            5.4616    -7.1921    -5.4841 C.3     
  23 O23           -1.2063     2.0393     0.0188 O.3     
  24 C24           -1.1607     3.4676     0.0264 C.3     
  25 C25           -2.5862     4.0232     0.0361 C.3     
  26 H26           -0.9218    -0.5633     0.0082 H       
  27 H27            1.2636    -1.7413    -0.0190 H       
  28 H28            3.1872     2.0822    -0.0171 H       
  29 H29            4.7383     0.9840    -1.0019 H       
  30 H30            4.5505     1.1971     0.7555 H       
  31 H31            6.8771     0.4796     0.0714 H       
  32 H32            6.0866    -0.6598     1.1920 H       
  33 H33            5.1796    -2.8920    -1.9084 H       
  34 H34            4.9431    -2.9310    -0.1417 H       
  35 H35            2.8859    -2.1093    -1.1861 H       
  36 H36            3.7985    -0.8826    -2.0980 H       
  37 H37            8.1306    -0.7871    -1.4210 H       
  38 H38            9.5910    -3.8953    -4.9018 H       
  39 H39            9.7382    -5.7313    -6.5660 H       
  40 H40            7.7995    -7.2641    -6.8266 H       
  41 H41            5.5712    -8.0356    -4.8025 H       
  42 H42            4.5428    -6.6539    -5.2514 H       
  43 H43            5.4189    -7.5573    -6.5102 H       
  44 H44           -0.6314     3.8095     0.9157 H       
  45 H45           -0.6398     3.8192    -0.8642 H       
  46 H46           -3.1156     3.6813    -0.8533 H       
  47 H47           -3.1072     3.6716     0.9266 H       
  48 H48           -2.5515     5.1127     0.0418 H       
@<TRIPOS>BOND
   1    1    2 ar
   2    1    6 ar
   3    1   23 1
   4    2    3 ar
   5    2   26 1
   6    3    4 ar
   7    3   27 1
   8    4    5 ar
   9    4    7 1
  10    5    6 ar
  11    5   28 1
  12    7    8 1
  13    7   12 1
  14    8    9 1
  15    8   29 1
  16    8   30 1
  17    9   10 1
  18    9   31 1
  19    9   32 1
  20   10   11 1
  21   10   13 2
  22   11   12 1
  23   11   33 1
  24   11   34 1
  25   12   35 1
  26   12   36 1
  27   13   14 1
  28   13   37 1
  29   14   15 3
  30   15   16 1
  31   16   17 ar
  32   16   21 ar
  33   17   18 ar
  34   17   38 1
  35   18   19 ar
  36   18   39 1
  37   19   20 ar
  38   19   40 1
  39   20   21 ar
  40   20   22 1
  41   22   41 1
  42   22   42 1
  43   22   43 1
  44   23   24 1
  45   24   25 1
  46   24   44 1
  47   24   45 1
  48   25   46 1
  49   25   47 1
  50   25   48 1

#	End of record

