#	Name: ASD02500006
#	Creating user name:	WinNT
#	Creation time:	15. 06. 2019 20:22

#	Modifying user name:	WinNT
#	Modification time:	15. 06. 2019 20:22

#	Program:	/corina/corina34_cracker 3.40 0067  02.08.2006

@<TRIPOS>MOLECULE
ASD02500006
  30   29    0    0    0
SMALL
NO_CHARGES


@<TRIPOS>ATOM
   1 C1            -0.0187     1.5258     0.0104 C.3     
   2 C2             0.0021    -0.0041     0.0020 C.3     
   3 C3            -1.4290    -0.5329    -0.1129 C.3     
   4 O4             1.3220     2.0204     0.0003 O.3     
   5 P5             1.6773     3.5907     0.0053 P.3     
   6 O6             1.0165     4.2423     1.1582 O.2     
   7 O7             3.2718     3.7797     0.1234 O.3     
   8 O8             1.1570     4.2631    -1.3619 O.3     
   9 C9            -1.4086    -2.0397    -0.1212 C.2     
  10 C10           -1.2722    -2.7986     1.1737 C.3     
  11 O11            0.5895    -0.4792     1.2150 O.3     
  12 O12           -1.5015    -2.6391    -1.1654 O.2     
  13 O13           -1.2784    -4.2023     0.9060 O.3     
  14 P14           -1.1505    -5.3159     2.0618 P.3     
  15 O15           -1.3254    -6.7808     1.4172 O.3     
  16 O16            0.2976    -5.2045     2.7564 O.3     
  17 O17           -2.2035    -5.0952     3.0781 O.2     
  18 O18           -2.0164    -0.0578    -1.3258 O.3     
  19 H19           -0.5459     1.8868    -0.8726 H       
  20 H20           -0.5289     1.8773     0.9072 H       
  21 H21            0.5883    -0.3548    -0.8473 H       
  22 H22           -2.0153    -0.1821     0.7365 H       
  23 H23            3.5588     4.7031     0.1323 H       
  24 H24            1.5491     3.8843    -2.1605 H       
  25 H25           -0.3348    -2.5252     1.6580 H       
  26 H26           -2.1063    -2.5502     1.8300 H       
  27 H27            0.1188    -0.2046     2.0138 H       
  28 H28           -1.2598    -7.5026     2.0574 H       
  29 H29            1.0371    -5.3386     2.1479 H       
  30 H30           -1.5458    -0.3324    -2.1247 H       
@<TRIPOS>BOND
   1    1    2 1
   2    1    4 1
   3    1   19 1
   4    1   20 1
   5    2    3 1
   6    2   11 1
   7    2   21 1
   8    3    9 1
   9    3   18 1
  10    3   22 1
  11    4    5 1
  12    5    6 2
  13    5    7 1
  14    5    8 1
  15    7   23 1
  16    8   24 1
  17    9   10 1
  18    9   12 2
  19   10   13 1
  20   10   25 1
  21   10   26 1
  22   11   27 1
  23   13   14 1
  24   14   15 1
  25   14   16 1
  26   14   17 2
  27   15   28 1
  28   16   29 1
  29   18   30 1

#	End of record

