#	Name: ASD01470027
#	Creating user name:	WinNT
#	Creation time:	15. 06. 2019 19:21

#	Modifying user name:	WinNT
#	Modification time:	15. 06. 2019 19:21

#	Program:	/corina/corina34_cracker 3.40 0067  02.08.2006

@<TRIPOS>MOLECULE
ASD01470027
  85   91    0    0    0
SMALL
NO_CHARGES


@<TRIPOS>ATOM
   1 N1            -1.6832     1.4064     0.5952 N.am    
   2 C2            -0.3496     0.9613     0.2001 C.3     
   3 C3             0.1934    -0.0768     1.1922 C.3     
   4 C4            -0.2705    -1.4845     0.8513 C.3     
   5 C5            -1.6399    -1.4759     0.1923 C.3     
   6 N6            -2.6073    -0.7449     1.0117 N.am    
   7 C7            -2.6419     0.5991     1.0202 C.2     
   8 O8            -3.6525     1.1212     1.4497 O.2     
   9 C9            -3.5538    -1.4916     1.8440 C.3     
  10 C10           -1.9768     2.8398     0.5220 C.3     
  11 C11           -1.7127     3.4757     1.8625 C.ar    
  12 C12           -2.9963    -1.6311     3.2371 C.ar    
  13 C13           -3.1415    -0.6083     4.1288 C.ar    
  14 C14           -2.6238    -0.7392     5.4223 C.ar    
  15 C15           -1.9587    -1.9247     5.7899 C.ar    
  16 C16           -1.8262    -2.9517     4.8584 C.ar    
  17 C17           -2.3443    -2.8024     3.6034 C.ar    
  18 C18           -0.4334     3.8780     2.1965 C.ar    
  19 C19           -0.1911     4.4614     3.4264 C.ar    
  20 C20           -1.2284     4.6427     4.3216 C.ar    
  21 C21           -2.5084     4.2411     3.9871 C.ar    
  22 C22           -2.7513     3.6619     2.7559 C.ar    
  23 C23           -2.5979     0.1266     6.5967 C.2     
  24 N24           -1.9740    -0.5099     7.5465 N.2     
  25 N25           -1.5666    -1.7690     7.0937 N.pl3   
  26 C26           -0.4194     0.3369    -1.1950 C.3     
  27 O27            1.6217    -0.0399     1.1675 O.3     
  28 C28            0.4414     1.1302    -2.1441 C.ar    
  29 C29            1.7438     0.7369    -2.3891 C.ar    
  30 C30            2.5333     1.4646    -3.2596 C.ar    
  31 C31            2.0204     2.5854    -3.8855 C.ar    
  32 C32            0.7177     2.9781    -3.6412 C.ar    
  33 C33           -0.0732     2.2479    -2.7740 C.ar    
  34 C34           -2.1207    -2.9169     0.0104 C.3     
  35 O35           -0.3344    -2.2585     2.0509 O.3     
  36 C36           -1.2020    -3.6364    -0.9433 C.ar    
  37 C37           -0.0657    -4.2638    -0.4677 C.ar    
  38 C38            0.7770    -4.9237    -1.3425 C.ar    
  39 C39            0.4832    -4.9566    -2.6928 C.ar    
  40 C40           -0.6536    -4.3300    -3.1683 C.ar    
  41 C41           -1.4986    -3.6738    -2.2929 C.ar    
  42 N42           -4.3313     5.6940     4.6618 N.pl3   
  43 C43           -5.6519     5.8352     4.4229 C.2     
  44 C44           -5.8917     7.1470     4.1937 C.2     
  45 C45           -4.6759     7.8310     4.2961 C.2     
  46 N46           -3.7399     6.9611     4.5767 N.2     
  47 C47           -3.6393     4.4384     4.9633 C.3     
  48 H48            0.3223     1.8192     0.1743 H       
  49 H49           -0.1520     0.1768     2.1945 H       
  50 H50            0.4489    -1.9419     0.1720 H       
  51 H51           -1.5649    -0.9994    -0.7852 H       
  52 H52           -4.5027    -0.9567     1.8843 H       
  53 H53           -3.7125    -2.4811     1.4154 H       
  54 H54           -1.3400     3.3031    -0.2317 H       
  55 H55           -3.0230     2.9830     0.2516 H       
  56 H56           -3.6529     0.2973     3.8376 H       
  57 H57           -1.3177    -3.8654     5.1288 H       
  58 H58           -2.2394    -3.6015     2.8845 H       
  59 H59            0.3772     3.7363     1.4970 H       
  60 H60            0.8088     4.7751     3.6877 H       
  61 H61           -1.0391     5.0978     5.2825 H       
  62 H62           -3.7512     3.3482     2.4946 H       
  63 H63           -3.0205     1.1181     6.6660 H       
  64 H64           -1.0841    -2.4268     7.6186 H       
  65 H65           -0.0598    -0.6912    -1.1513 H       
  66 H66           -1.4513     0.3463    -1.5460 H       
  67 H67            2.0419    -0.6692     1.7696 H       
  68 H68            2.1445    -0.1387    -1.9001 H       
  69 H69            3.5511     1.1578    -3.4505 H       
  70 H70            2.6375     3.1543    -4.5651 H       
  71 H71            0.3171     3.8539    -4.1299 H       
  72 H72           -1.0910     2.5547    -2.5831 H       
  73 H73           -2.1151    -3.4262     0.9741 H       
  74 H74           -3.1332    -2.9140    -0.3931 H       
  75 H75            0.5109    -2.3370     2.5138 H       
  76 H76            0.1638    -4.2380     0.5873 H       
  77 H77            1.6651    -5.4132    -0.9710 H       
  78 H78            1.1419    -5.4715    -3.3764 H       
  79 H79           -0.8830    -4.3554    -4.2234 H       
  80 H80           -2.3867    -3.1843    -2.6644 H       
  81 H81           -6.3859     5.0429     4.4155 H       
  82 H82           -6.8521     7.5880     3.9710 H       
  83 H83           -4.5343     8.8937     4.1657 H       
  84 H84           -4.3405     3.6080     4.8798 H       
  85 H85           -3.2414     4.4773     5.9773 H       
@<TRIPOS>BOND
   1    1    2 1
   2    1   10 1
   3    1    7 am
   4    2    3 1
   5    2   26 1
   6    2   48 1
   7    3    4 1
   8    3   27 1
   9    3   49 1
  10    4    5 1
  11    4   35 1
  12    4   50 1
  13    5    6 1
  14    5   34 1
  15    5   51 1
  16    6    7 am
  17    6    9 1
  18    7    8 2
  19    9   12 1
  20    9   52 1
  21    9   53 1
  22   10   11 1
  23   10   54 1
  24   10   55 1
  25   11   18 ar
  26   11   22 ar
  27   12   13 ar
  28   12   17 ar
  29   13   14 ar
  30   13   56 1
  31   14   15 ar
  32   14   23 1
  33   15   16 ar
  34   15   25 1
  35   16   17 ar
  36   16   57 1
  37   17   58 1
  38   18   19 ar
  39   18   59 1
  40   19   20 ar
  41   19   60 1
  42   20   21 ar
  43   20   61 1
  44   21   22 ar
  45   21   47 1
  46   22   62 1
  47   23   24 2
  48   23   63 1
  49   24   25 1
  50   25   64 1
  51   26   28 1
  52   26   65 1
  53   26   66 1
  54   27   67 1
  55   28   29 ar
  56   28   33 ar
  57   29   30 ar
  58   29   68 1
  59   30   31 ar
  60   30   69 1
  61   31   32 ar
  62   31   70 1
  63   32   33 ar
  64   32   71 1
  65   33   72 1
  66   34   36 1
  67   34   73 1
  68   34   74 1
  69   35   75 1
  70   36   37 ar
  71   36   41 ar
  72   37   38 ar
  73   37   76 1
  74   38   39 ar
  75   38   77 1
  76   39   40 ar
  77   39   78 1
  78   40   41 ar
  79   40   79 1
  80   41   80 1
  81   42   43 1
  82   42   46 1
  83   42   47 1
  84   43   44 2
  85   43   81 1
  86   44   45 1
  87   44   82 1
  88   45   46 2
  89   45   83 1
  90   47   84 1
  91   47   85 1

#	End of record

