#	Name: ASD01814476
#	Creating user name:	WinNT
#	Creation time:	15. 06. 2019 19:32

#	Modifying user name:	WinNT
#	Modification time:	15. 06. 2019 19:32

#	Program:	/corina/corina34_cracker 3.40 0067  02.08.2006

@<TRIPOS>MOLECULE
ASD01814476
  51   56    0    0    0
SMALL
NO_CHARGES


@<TRIPOS>ATOM
   1 C1            -0.0167     1.3807     0.0096 C.ar    
   2 C2             0.0021    -0.0041     0.0020 C.ar    
   3 N3             1.1326    -0.6808    -0.0124 N.ar    
   4 C4             2.3086    -0.0710    -0.0203 C.ar    
   5 C5             2.3611     1.3370    -0.0133 C.ar    
   6 C6             1.1830     2.0750     0.0019 C.ar    
   7 N7             3.4841    -0.7904    -0.0349 N.pl3   
   8 N8             4.6482    -0.2534    -0.0423 N.2     
   9 C9             4.8546     1.0370    -0.0373 C.2     
  10 C10            3.6943     1.9626    -0.0222 C.2     
  11 C11            3.3984    -2.2529    -0.0419 C.3     
  12 C12            3.3560    -2.7468    -1.4651 C.ar    
  13 C13            4.5323    -3.0464    -2.1379 C.ar    
  14 C14            4.4502    -3.4971    -3.4437 C.ar    
  15 C15            3.1960    -3.6340    -4.0350 C.ar    
  16 N16            2.0949    -3.3363    -3.3571 N.ar    
  17 C17            2.1450    -2.9111    -2.1107 C.ar    
  18 C18            3.0909    -4.1160    -5.4339 C.2     
  19 C19            4.1545    -4.5625    -6.2432 C.2     
  20 N20            3.6641    -4.9035    -7.4051 N.2     
  21 N21            2.2805    -4.6904    -7.3845 N.pl3   
  22 C22            1.9453    -4.2134    -6.1700 C.2     
  23 C23            6.0309     1.9105    -0.0431 C.2     
  24 N24            5.5600     3.1761    -0.0322 N.am    
  25 N25            4.1630     3.1752    -0.0199 N.2     
  26 O26            7.2004     1.5641    -0.0549 O.2     
  27 C27            1.3557    -4.9472    -8.4913 C.3     
  28 C28            6.3625     4.3316    -0.0328 C.2     
  29 C29            5.9179     5.6148    -0.0221 C.2     
  30 N30            7.0010     6.4240    -0.0269 N.pl3   
  31 N31            8.1450     5.6161    -0.0409 N.2     
  32 C32            7.7653     4.3642    -0.0384 C.2     
  33 C33            6.9815     7.8889    -0.0188 C.3     
  34 H34           -0.9559     1.9138     0.0170 H       
  35 H35           -0.9338    -0.5431     0.0084 H       
  36 H36            1.2020     3.1548     0.0072 H       
  37 H37            4.2703    -2.6703     0.4617 H       
  38 H38            2.4934    -2.5663     0.4786 H       
  39 H39            5.4905    -2.9300    -1.6533 H       
  40 H40            5.3457    -3.7391    -3.9968 H       
  41 H41            1.2278    -2.6786    -1.5899 H       
  42 H42            5.1937    -4.6135    -5.9537 H       
  43 H43            0.9510    -3.9501    -5.8404 H       
  44 H44            0.9835    -5.9694    -8.4240 H       
  45 H45            0.5188    -4.2512    -8.4343 H       
  46 H46            1.8769    -4.8119    -9.4390 H       
  47 H47            4.8855     5.9316    -0.0116 H       
  48 H48            8.4186     3.5043    -0.0469 H       
  49 H49            6.9853     8.2466     1.0109 H       
  50 H50            7.8621     8.2669    -0.5380 H       
  51 H51            6.0824     8.2430    -0.5231 H       
@<TRIPOS>BOND
   1    1    2 ar
   2    1    6 ar
   3    1   34 1
   4    2    3 ar
   5    2   35 1
   6    3    4 ar
   7    4    5 ar
   8    4    7 1
   9    5    6 ar
  10    5   10 1
  11    6   36 1
  12    7    8 1
  13    7   11 1
  14    8    9 2
  15    9   10 1
  16    9   23 1
  17   10   25 2
  18   11   12 1
  19   11   37 1
  20   11   38 1
  21   12   13 ar
  22   12   17 ar
  23   13   14 ar
  24   13   39 1
  25   14   15 ar
  26   14   40 1
  27   15   16 ar
  28   15   18 1
  29   16   17 ar
  30   17   41 1
  31   18   19 1
  32   18   22 2
  33   19   20 2
  34   19   42 1
  35   20   21 1
  36   21   22 1
  37   21   27 1
  38   22   43 1
  39   23   24 am
  40   23   26 2
  41   24   25 1
  42   24   28 1
  43   27   44 1
  44   27   45 1
  45   27   46 1
  46   28   29 2
  47   28   32 1
  48   29   30 1
  49   29   47 1
  50   30   31 1
  51   30   33 1
  52   31   32 2
  53   32   48 1
  54   33   49 1
  55   33   50 1
  56   33   51 1

#	End of record

