#	Name: ASD03730233
#	Creating user name:	WinNT
#	Creation time:	15. 06. 2019 20:44

#	Modifying user name:	WinNT
#	Modification time:	15. 06. 2019 20:44

#	Program:	/corina/corina34_cracker 3.40 0067  02.08.2006

@<TRIPOS>MOLECULE
ASD03730233
  57   62    0    0    0
SMALL
NO_CHARGES


@<TRIPOS>ATOM
   1 N1            -0.4330     1.2741     1.0910 N.3     
   2 C2            -0.3826    -0.2057     1.1455 C.3     
   3 O3             0.7342    -0.5327     0.2991 O.3     
   4 C4             1.5800     0.5380     0.3371 C.ar    
   5 C5             0.8932     1.6557     0.8091 C.ar    
   6 C6             2.9186     0.6476    -0.0001 C.ar    
   7 C7             3.5809     1.8655     0.1200 C.ar    
   8 C8             2.8775     2.9774     0.5728 C.ar    
   9 C9             1.5467     2.8719     0.9208 C.ar    
  10 O10            4.8854     2.1757    -0.1313 O.3     
  11 C11            3.8409     4.1331     0.5536 C.3     
  12 C12            5.0140     3.6022    -0.2820 C.3     
  13 N13            3.3316     6.3387     0.8694 N.am    
  14 C14            3.2379     5.3657    -0.0584 C.2     
  15 C15            4.2725     4.5438     1.9296 C.ar    
  16 C16            4.8838     3.8779     2.9830 C.ar    
  17 C17            5.1621     4.5601     4.1668 C.ar    
  18 C18            4.8281     5.8949     4.2828 C.ar    
  19 C19            4.2202     6.5565     3.2354 C.ar    
  20 C20            3.9339     5.8873     2.0468 C.ar    
  21 O21            2.7609     5.4655    -1.1690 O.2     
  22 C22            6.1390     2.0250     1.8712 C.ar    
  23 C23            5.2397     2.4433     2.8498 C.ar    
  24 C24            4.6788     1.4904     3.7040 C.ar    
  25 C25            5.0437     0.1650     3.5391 C.ar    
  26 C26            5.9430    -0.1701     2.5437 C.ar    
  27 N27            6.4565     0.7521     1.7525 N.ar    
  28 C28           -0.8804     1.8333     2.3737 C.3     
  29 C29            0.2099     1.6282     3.4274 C.3     
  30 C30           -0.2560     2.2106     4.7633 C.3     
  31 C31            0.8342     2.0056     5.8170 C.3     
  32 C32            0.3683     2.5879     7.1529 C.3     
  33 H33           -0.2045    -0.5467     2.1654 H       
  34 H34           -1.3029    -0.6362     0.7506 H       
  35 H35            3.4532    -0.2195    -0.3589 H       
  36 H36            1.0133     3.7393     1.2806 H       
  37 H37            5.9650     3.9498     0.1215 H       
  38 H38            4.9069     3.8920    -1.3273 H       
  39 H39            3.0180     7.2468     0.7352 H       
  40 H40            5.6366     4.0465     4.9899 H       
  41 H41            5.0437     6.4244     5.1991 H       
  42 H42            3.9640     7.6007     3.3375 H       
  43 H43            6.5767     2.7503     1.2013 H       
  44 H44            3.9788     1.7804     4.4735 H       
  45 H45            4.6306    -0.5988     4.1812 H       
  46 H46            6.2299    -1.2030     2.4123 H       
  47 H47           -1.0768     2.8990     2.2567 H       
  48 H48           -1.7926     1.3284     2.6917 H       
  49 H49            0.4063     0.5625     3.5443 H       
  50 H50            1.1221     2.1331     3.1093 H       
  51 H51           -0.4525     3.2763     4.6463 H       
  52 H52           -1.1682     1.7057     5.0813 H       
  53 H53            1.0306     0.9398     5.9339 H       
  54 H54            1.7464     2.5104     5.4989 H       
  55 H55            0.1718     3.6536     7.0359 H       
  56 H56           -0.5439     2.0831     7.4709 H       
  57 H57            1.1450     2.4418     7.9036 H       
@<TRIPOS>BOND
   1    1    2 1
   2    1    5 1
   3    1   28 1
   4    2    3 1
   5    2   33 1
   6    2   34 1
   7    3    4 1
   8    4    5 ar
   9    4    6 ar
  10    5    9 ar
  11    6    7 ar
  12    6   35 1
  13    7    8 ar
  14    7   10 1
  15    8    9 ar
  16    8   11 1
  17    9   36 1
  18   10   12 1
  19   11   12 1
  20   11   14 1
  21   11   15 1
  22   12   37 1
  23   12   38 1
  24   13   14 am
  25   13   20 1
  26   13   39 1
  27   14   21 2
  28   15   16 ar
  29   15   20 ar
  30   16   17 ar
  31   16   23 1
  32   17   18 ar
  33   17   40 1
  34   18   19 ar
  35   18   41 1
  36   19   20 ar
  37   19   42 1
  38   22   23 ar
  39   22   27 ar
  40   22   43 1
  41   23   24 ar
  42   24   25 ar
  43   24   44 1
  44   25   26 ar
  45   25   45 1
  46   26   27 ar
  47   26   46 1
  48   28   29 1
  49   28   47 1
  50   28   48 1
  51   29   30 1
  52   29   49 1
  53   29   50 1
  54   30   31 1
  55   30   51 1
  56   30   52 1
  57   31   32 1
  58   31   53 1
  59   31   54 1
  60   32   55 1
  61   32   56 1
  62   32   57 1

#	End of record

