#	Name: ASD06660089
#	Creating user name:	WinNT
#	Creation time:	15. 06. 2019 21:08

#	Modifying user name:	WinNT
#	Modification time:	15. 06. 2019 21:08

#	Program:	/corina/corina34_cracker 3.40 0067  02.08.2006

@<TRIPOS>MOLECULE
ASD06660089
  77   80    0    0    0
SMALL
NO_CHARGES


@<TRIPOS>ATOM
   1 C1            -1.7865     1.7377     0.5408 C.2     
   2 C2            -1.3077     0.4963    -0.1669 C.3     
   3 C3            -1.9276     0.4346    -1.5643 C.3     
   4 O4            -0.9899     2.5672     0.9113 O.2     
   5 O5            -3.0984     1.9246     0.7545 O.3     
   6 C6            -1.5477    -0.8652    -2.2254 C.ar    
   7 C7            -2.3026    -2.0013    -1.9981 C.ar    
   8 C8            -1.9571    -3.1941    -2.6025 C.ar    
   9 C9            -0.8505    -3.2517    -3.4397 C.ar    
  10 C10           -0.0948    -2.1088    -3.6662 C.ar    
  11 C11           -0.4484    -0.9180    -3.0626 C.ar    
  12 N12           -0.4976    -4.4587    -4.0532 N.am    
  13 C13           -1.2188    -5.5901    -3.9720 C.2     
  14 C14           -0.5482    -6.6924    -4.7619 C.3     
  15 C15            0.4600    -5.9495    -5.6689 C.3     
  16 C16            0.7045    -4.6504    -4.8731 C.3     
  17 O17           -2.2561    -5.7099    -3.3550 O.2     
  18 C18            1.7528    -6.7529    -5.8234 C.3     
  19 N19            1.4754    -7.9872    -6.5622 N.pl3   
  20 C20            2.5033    -8.8847    -6.8270 C.ar    
  21 C21            3.7934    -8.6047    -6.3875 C.ar    
  22 C22            4.8065    -9.5064    -6.6579 C.ar    
  23 C23            4.4946   -10.6625    -7.3614 C.ar    
  24 C24            3.1929   -10.8765    -7.7672 C.ar    
  25 N25            2.2450   -10.0010    -7.4904 N.ar    
  26 C26            6.2174    -9.2402    -6.1999 C.3     
  27 C27            0.9195     0.2801     0.7976 C.2     
  28 C28            2.3922     0.2128     0.6597 C.ar    
  29 C29            3.0220    -1.0229     0.5018 C.ar    
  30 C30            4.3920    -1.0870     0.3738 C.ar    
  31 C31            5.1519     0.0865     0.4017 C.ar    
  32 C32            4.5199     1.3233     0.5594 C.ar    
  33 C33            3.1488     1.3851     0.6820 C.ar    
  34 O34            0.4024     0.1082     1.8839 O.2     
  35 N35            0.1524     0.5321    -0.2815 N.am    
  36 C36            2.4666     2.7188     0.8459 C.3     
  37 C37            2.2028    -2.2875     0.4718 C.3     
  38 C38            1.6967    -2.5336    -0.9510 C.3     
  39 C39            6.6179     0.0194     0.2654 C.2     
  40 O40            7.1564    -1.0398     0.0249 O.2     
  41 C41            7.4475     1.2673     0.4250 C.3     
  42 H42           -1.6060    -0.3842     0.4022 H       
  43 H43           -3.0128     0.4976    -1.4834 H       
  44 H44           -1.5589     1.2679    -2.1625 H       
  45 H45           -3.3574     2.7360     1.2124 H       
  46 H46           -3.1630    -1.9559    -1.3470 H       
  47 H47           -2.5466    -4.0812    -2.4240 H       
  48 H48            0.7663    -2.1504    -4.3167 H       
  49 H49            0.1365    -0.0279    -3.2416 H       
  50 H50           -0.0269    -7.3777    -4.0935 H       
  51 H51           -1.2804    -7.2292    -5.3650 H       
  52 H52            0.0206    -5.7294    -6.6419 H       
  53 H53            0.8352    -3.8088    -5.5534 H       
  54 H54            1.5820    -4.7611    -4.2360 H       
  55 H55            2.4862    -6.1597    -6.3695 H       
  56 H56            2.1469    -7.0003    -4.8377 H       
  57 H57            0.5744    -8.1782    -6.8666 H       
  58 H58            4.0008    -7.6954    -5.8430 H       
  59 H59            5.2630   -11.3866    -7.5890 H       
  60 H60            2.9460   -11.7742    -8.3146 H       
  61 H61            6.3618    -9.6611    -5.2049 H       
  62 H62            6.9183    -9.7022    -6.8951 H       
  63 H63            6.3924    -8.1648    -6.1684 H       
  64 H64            4.8792    -2.0432     0.2524 H       
  65 H65            5.1057     2.2304     0.5815 H       
  66 H66            0.5671     0.7371    -1.1341 H       
  67 H67            2.3937     2.9618     1.9060 H       
  68 H68            3.0458     3.4884     0.3357 H       
  69 H69            1.4667     2.6709     0.4146 H       
  70 H70            2.8204    -3.1280     0.7882 H       
  71 H71            1.3533    -2.1862     1.1472 H       
  72 H72            1.0174    -1.7313    -1.2388 H       
  73 H73            2.5423    -2.5579    -1.6383 H       
  74 H74            1.1698    -3.4870    -0.9893 H       
  75 H75            6.8044     2.0955     0.7228 H       
  76 H76            8.2067     1.1036     1.1897 H       
  77 H77            7.9313     1.5056    -0.5222 H       
@<TRIPOS>BOND
   1    1    2 1
   2    1    4 2
   3    1    5 1
   4    2    3 1
   5    2   35 1
   6    2   42 1
   7    3    6 1
   8    3   43 1
   9    3   44 1
  10    5   45 1
  11    6    7 ar
  12    6   11 ar
  13    7    8 ar
  14    7   46 1
  15    8    9 ar
  16    8   47 1
  17    9   10 ar
  18    9   12 1
  19   10   11 ar
  20   10   48 1
  21   11   49 1
  22   12   13 am
  23   12   16 1
  24   13   14 1
  25   13   17 2
  26   14   15 1
  27   14   50 1
  28   14   51 1
  29   15   16 1
  30   15   18 1
  31   15   52 1
  32   16   53 1
  33   16   54 1
  34   18   19 1
  35   18   55 1
  36   18   56 1
  37   19   20 1
  38   19   57 1
  39   20   21 ar
  40   20   25 ar
  41   21   22 ar
  42   21   58 1
  43   22   23 ar
  44   22   26 1
  45   23   24 ar
  46   23   59 1
  47   24   25 ar
  48   24   60 1
  49   26   61 1
  50   26   62 1
  51   26   63 1
  52   27   28 1
  53   27   34 2
  54   27   35 am
  55   28   29 ar
  56   28   33 ar
  57   29   30 ar
  58   29   37 1
  59   30   31 ar
  60   30   64 1
  61   31   32 ar
  62   31   39 1
  63   32   33 ar
  64   32   65 1
  65   33   36 1
  66   35   66 1
  67   36   67 1
  68   36   68 1
  69   36   69 1
  70   37   38 1
  71   37   70 1
  72   37   71 1
  73   38   72 1
  74   38   73 1
  75   38   74 1
  76   39   40 2
  77   39   41 1
  78   41   75 1
  79   41   76 1
  80   41   77 1

#	End of record

