#	Name: ASD03331006
#	Creating user name:	WinNT
#	Creation time:	15. 06. 2019 20:38

#	Modifying user name:	WinNT
#	Modification time:	15. 06. 2019 20:38

#	Program:	/corina/corina34_cracker 3.40 0067  02.08.2006

@<TRIPOS>MOLECULE
ASD03331006
  64   67    0    0    0
SMALL
NO_CHARGES


@<TRIPOS>ATOM
   1 N1            -0.5574     1.7451    -0.1027 N.pl3   
   2 C2            -0.3690     0.4054     0.0316 C.2     
   3 C3             0.9616    -0.2820     0.1930 C.3     
   4 N4             1.7480     0.4240     1.2166 N.3     
   5 C5             2.5425     1.5020     0.6249 C.3     
   6 C6             1.8100     2.1360    -0.5542 C.3     
   7 C7             0.4979     2.7618    -0.0736 C.3     
   8 C8            -1.8969     1.9562    -0.2550 C.2     
   9 N9            -2.5124     0.7985    -0.1990 N.2     
  10 C10           -1.5977    -0.1795    -0.0198 C.2     
  11 C11           -1.8791    -1.6211     0.0982 C.2     
  12 O12           -0.9655    -2.4080     0.2578 O.2     
  13 N13           -3.1488    -2.0677     0.0294 N.am    
  14 C14            2.6014    -0.5107     1.9623 C.3     
  15 C15           -2.5468     3.2707    -0.4497 C.ar    
  16 C16           -3.8263     3.3439    -1.0018 C.ar    
  17 C17           -4.4283     4.5736    -1.1815 C.ar    
  18 C18           -3.7620     5.7345    -0.8136 C.ar    
  19 C19           -2.4918     5.6652    -0.2659 C.ar    
  20 C20           -1.8848     4.4406    -0.0768 C.ar    
  21 C21           -4.7304    -3.8168    -0.5436 C.2     
  22 C22           -3.4286    -3.5009     0.1468 C.3     
  23 C23           -3.5301    -3.8813     1.6253 C.3     
  24 C24           -3.9196    -5.3559     1.7470 C.3     
  25 C25           -2.1782    -3.6533     2.3045 C.3     
  26 C26           -4.5938    -3.0152     2.3029 C.3     
  27 N27           -4.9162    -5.0249    -1.1114 N.am    
  28 C28           -6.0276    -5.7239    -1.7741 C.3     
  29 C29           -5.3921    -7.0469    -1.3246 C.3     
  30 C30           -4.0948    -6.2219    -1.3469 C.3     
  31 F31           -5.7866    -7.4690    -0.0505 F       
  32 F32           -5.4398    -8.0620    -2.2861 F       
  33 O33           -5.6108    -2.9839    -0.5883 O.2     
  34 F34           -5.6668     4.6470    -1.7162 F       
  35 F35           -4.3542     6.9358    -0.9909 F       
  36 H36            0.8029    -1.3147     0.5035 H       
  37 H37            1.4984    -0.2640    -0.7555 H       
  38 H38            2.7313     2.2642     1.3809 H       
  39 H39            3.4941     1.0977     0.2798 H       
  40 H40            2.4383     2.9080    -0.9985 H       
  41 H41            1.5948     1.3713    -1.3006 H       
  42 H42            0.2262     3.5881    -0.7305 H       
  43 H43            0.6213     3.1299     0.9449 H       
  44 H44           -3.8774    -1.4401    -0.0978 H       
  45 H45            3.2385    -1.0557     1.2657 H       
  46 H46            3.2229     0.0455     2.6640 H       
  47 H47            1.9761    -1.2155     2.5104 H       
  48 H48           -4.3446     2.4407    -1.2884 H       
  49 H49           -1.9772     6.5713     0.0181 H       
  50 H50           -0.8964     4.3882     0.3553 H       
  51 H51           -2.6230    -4.0678    -0.3197 H       
  52 H52           -3.1537    -5.9739     1.2785 H       
  53 H53           -4.0079    -5.6227     2.8001 H       
  54 H54           -4.8750    -5.5216     1.2489 H       
  55 H55           -1.9006    -2.6028     2.2178 H       
  56 H56           -2.2505    -3.9243     3.3578 H       
  57 H57           -1.4204    -4.2703     1.8217 H       
  58 H58           -5.5569    -3.1777     1.8191 H       
  59 H59           -4.6661    -3.2862     3.3562 H       
  60 H60           -4.3163    -1.9647     2.2163 H       
  61 H61           -6.9972    -5.5302    -1.3155 H       
  62 H62           -6.0388    -5.5934    -2.8562 H       
  63 H63           -3.5966    -6.2227    -2.3163 H       
  64 H64           -3.4178    -6.4525    -0.5243 H       
@<TRIPOS>BOND
   1    1    2 1
   2    1    7 1
   3    1    8 1
   4    2    3 1
   5    2   10 2
   6    3    4 1
   7    3   36 1
   8    3   37 1
   9    4    5 1
  10    4   14 1
  11    5    6 1
  12    5   38 1
  13    5   39 1
  14    6    7 1
  15    6   40 1
  16    6   41 1
  17    7   42 1
  18    7   43 1
  19    8    9 2
  20    8   15 1
  21    9   10 1
  22   10   11 1
  23   11   12 2
  24   11   13 am
  25   13   22 1
  26   13   44 1
  27   14   45 1
  28   14   46 1
  29   14   47 1
  30   15   16 ar
  31   15   20 ar
  32   16   17 ar
  33   16   48 1
  34   17   18 ar
  35   17   34 1
  36   18   19 ar
  37   18   35 1
  38   19   20 ar
  39   19   49 1
  40   20   50 1
  41   21   27 am
  42   21   33 2
  43   21   22 1
  44   22   23 1
  45   22   51 1
  46   23   24 1
  47   23   25 1
  48   23   26 1
  49   24   52 1
  50   24   53 1
  51   24   54 1
  52   25   55 1
  53   25   56 1
  54   25   57 1
  55   26   58 1
  56   26   59 1
  57   26   60 1
  58   27   28 1
  59   27   30 1
  60   28   29 1
  61   28   61 1
  62   28   62 1
  63   29   30 1
  64   29   31 1
  65   29   32 1
  66   30   63 1
  67   30   64 1

#	End of record

