#	Name: ASD09740713
#	Creating user name:	WinNT
#	Creation time:	15. 06. 2019 21:23

#	Modifying user name:	WinNT
#	Modification time:	15. 06. 2019 21:23

#	Program:	/corina/corina34_cracker 3.40 0067  02.08.2006

@<TRIPOS>MOLECULE
ASD09740713
  69   72    0    0    0
SMALL
NO_CHARGES


@<TRIPOS>ATOM
   1 C1             0.0033     0.0606     0.4289 C.1     
   2 C2            -0.0174     1.4292     0.0082 C.ar    
   3 C3             1.1856     2.1184    -0.2050 C.ar    
   4 C4             1.1624     3.4440    -0.6123 C.ar    
   5 C5            -0.0401     4.0894    -0.8088 C.ar    
   6 C6            -1.2446     3.4127    -0.5994 C.ar    
   7 C7            -1.2335     2.0802    -0.1966 C.ar    
   8 N8             0.0196    -1.0252     0.7626 N.1     
   9 O9             2.3720     1.4883    -0.0122 O.3     
  10 C10            3.5546     2.2818    -0.1297 C.3     
  11 C11            4.6798     1.6444     0.6879 C.3     
  12 C12            3.9729     2.3591    -1.5994 C.3     
  13 C13           -2.5313     4.1102    -0.8118 C.2     
  14 C14           -2.6616     5.3895    -1.2044 C.2     
  15 C15           -3.9748     5.8252    -1.3368 C.2     
  16 C16           -4.9060     4.8947    -1.0504 C.2     
  17 S17           -4.1201     3.3889    -0.5963 S.3     
  18 C18           -6.5744     8.6495    -4.3042 C.3     
  19 C19           -7.1612     7.2225    -4.2661 C.3     
  20 C20           -6.0145     6.4108    -3.6268 C.3     
  21 C21           -5.2430     7.4079    -2.7894 C.ar    
  22 C22           -4.3231     7.2044    -1.7593 C.ar    
  23 C23           -3.7330     8.2961    -1.1283 C.ar    
  24 C24           -4.0607     9.5770    -1.5246 C.ar    
  25 C25           -4.9721     9.7744    -2.5444 C.ar    
  26 C26           -5.5639     8.6926    -3.1776 C.ar    
  27 O27           -5.9303     8.8875    -5.5574 O.3     
  28 Si28          -6.9035     9.5448    -6.6892 Si      
  29 C29           -8.3367     8.4004    -7.0163 C.3     
  30 C30           -7.5446    11.1847    -6.0805 C.3     
  31 C31           -5.9408     9.8002    -8.2636 C.3     
  32 C32           -5.4142     8.4534    -8.7635 C.3     
  33 C33           -6.8537    10.4167    -9.3253 C.3     
  34 C34           -4.7637    10.7400    -7.9949 C.3     
  35 H35            2.0898     3.9728    -0.7759 H       
  36 H36           -0.0511     5.1219    -1.1254 H       
  37 H37           -2.1633     1.5538    -0.0389 H       
  38 H38            3.3570     3.2861     0.2451 H       
  39 H39            4.8773     0.6401     0.3131 H       
  40 H40            5.5819     2.2497     0.5982 H       
  41 H41            4.3818     1.5893     1.7349 H       
  42 H42            3.1713     2.8132    -2.1819 H       
  43 H43            4.8750     2.9644    -1.6891 H       
  44 H44            4.1704     1.3549    -1.9743 H       
  45 H45           -1.8131     6.0282    -1.4008 H       
  46 H46           -5.9739     5.0492    -1.0964 H       
  47 H47           -7.3600     9.3861    -4.1359 H       
  48 H48           -8.0550     7.1874    -3.6432 H       
  49 H49           -7.3750     6.8643    -5.2731 H       
  50 H50           -6.4178     5.6187    -2.9958 H       
  51 H51           -5.3724     5.9893    -4.4002 H       
  52 H52           -3.0213     8.1412    -0.3309 H       
  53 H53           -3.6047    10.4259    -1.0370 H       
  54 H54           -5.2255    10.7788    -2.8500 H       
  55 H55           -8.8999     8.2510    -6.0952 H       
  56 H56           -8.9871     8.8397    -7.7727 H       
  57 H57           -7.9616     7.4410    -7.3725 H       
  58 H58           -6.7061    11.8543    -5.8891 H       
  59 H59           -8.1950    11.6240    -6.8369 H       
  60 H60           -8.1079    11.0353    -5.1593 H       
  61 H61           -6.2527     7.7838    -8.9549 H       
  62 H62           -4.8509     8.6028    -9.6847 H       
  63 H63           -4.7638     8.0141    -8.0071 H       
  64 H64           -7.2288    11.3762    -8.9692 H       
  65 H65           -6.2904    10.5661   -10.2465 H       
  66 H66           -7.6922     9.7472    -9.5167 H       
  67 H67           -4.1133    10.3007    -7.2385 H       
  68 H68           -4.2005    10.8894    -8.9161 H       
  69 H69           -5.1388    11.6995    -7.6388 H       
@<TRIPOS>BOND
   1    1    2 1
   2    1    8 3
   3    2    3 ar
   4    2    7 ar
   5    3    4 ar
   6    3    9 1
   7    4    5 ar
   8    4   35 1
   9    5    6 ar
  10    5   36 1
  11    6    7 ar
  12    6   13 1
  13    7   37 1
  14    9   10 1
  15   10   11 1
  16   10   12 1
  17   10   38 1
  18   11   39 1
  19   11   40 1
  20   11   41 1
  21   12   42 1
  22   12   43 1
  23   12   44 1
  24   13   14 2
  25   13   17 1
  26   14   15 1
  27   14   45 1
  28   15   16 2
  29   15   22 1
  30   16   17 1
  31   16   46 1
  32   18   19 1
  33   18   26 1
  34   18   27 1
  35   18   47 1
  36   19   20 1
  37   19   48 1
  38   19   49 1
  39   20   21 1
  40   20   50 1
  41   20   51 1
  42   21   22 ar
  43   21   26 ar
  44   22   23 ar
  45   23   24 ar
  46   23   52 1
  47   24   25 ar
  48   24   53 1
  49   25   26 ar
  50   25   54 1
  51   27   28 1
  52   28   29 1
  53   28   30 1
  54   28   31 1
  55   29   55 1
  56   29   56 1
  57   29   57 1
  58   30   58 1
  59   30   59 1
  60   30   60 1
  61   31   32 1
  62   31   34 1
  63   31   33 1
  64   32   61 1
  65   32   62 1
  66   32   63 1
  67   33   64 1
  68   33   65 1
  69   33   66 1
  70   34   67 1
  71   34   68 1
  72   34   69 1

#	End of record

