#	Name: ASD03090473
#	Creating user name:	WinNT
#	Creation time:	15. 06. 2019 20:28

#	Modifying user name:	WinNT
#	Modification time:	15. 06. 2019 20:28

#	Program:	/corina/corina34_cracker 3.40 0067  02.08.2006

@<TRIPOS>MOLECULE
ASD03090473
  46   49    0    0    0
SMALL
NO_CHARGES


@<TRIPOS>ATOM
   1 C1            -2.2018     1.4717     0.6087 C.2     
   2 C2            -2.1846    -0.0351     0.5975 C.3     
   3 O3            -3.1170     2.0639     1.1406 O.2     
   4 N4            -1.1974     2.1614     0.0324 N.am    
   5 C5            -0.1172     4.3269     0.0508 C.ar    
   6 C6            -1.2670     3.5582    -0.0558 C.ar    
   7 C7            -2.4919     4.1927    -0.2521 C.ar    
   8 C8            -2.5127     5.5737    -0.3335 C.ar    
   9 C9            -1.3207     6.2770    -0.2177 C.ar    
  10 N10           -0.1755     5.6421    -0.0317 N.ar    
  11 O11           -1.3311     7.6321    -0.2967 O.3     
  12 C12           -0.1643     8.2930    -0.0763 C.ar    
  13 C13            0.8255     8.2986    -1.0486 C.ar    
  14 C14            2.0107     8.9711    -0.8221 C.ar    
  15 C15            2.2110     9.6383     0.3723 C.ar    
  16 C16            1.2264     9.6339     1.3430 C.ar    
  17 C17            0.0369     8.9681     1.1191 C.ar    
  18 C18            3.5049    10.3712     0.6167 C.3     
  19 N19           -4.7518    -1.6043     4.6313 N.pl3   
  20 C20           -6.0441    -2.0383     4.7500 C.2     
  21 C21           -6.6489    -2.0076     3.5520 C.2     
  22 C22           -5.6634    -1.5136     2.5873 C.ar    
  23 C23           -5.6899    -1.2658     1.2134 C.ar    
  24 C24           -4.5708    -0.7937     0.5877 C.ar    
  25 C25           -3.4074    -0.5567     1.3072 C.ar    
  26 C26           -3.3594    -0.7940     2.6633 C.ar    
  27 C27           -4.4870    -1.2755     3.3208 C.ar    
  28 H28           -2.1831    -0.3908    -0.4328 H       
  29 H29           -1.2892    -0.3920     1.1064 H       
  30 H30           -0.4264     1.6909    -0.3212 H       
  31 H31            0.8357     3.8434     0.2076 H       
  32 H32           -3.4034     3.6200    -0.3391 H       
  33 H33           -3.4443     6.0984    -0.4856 H       
  34 H34            0.6697     7.7773    -1.9816 H       
  35 H35            2.7816     8.9755    -1.5785 H       
  36 H36            1.3856    10.1552     2.2754 H       
  37 H37           -0.7337     8.9690     1.8757 H       
  38 H38            3.4115    11.3996     0.2678 H       
  39 H39            3.7282    10.3683     1.6835 H       
  40 H40            4.3109     9.8757     0.0754 H       
  41 H41           -4.1180    -1.5348     5.3623 H       
  42 H42           -6.5085    -2.3584     5.6710 H       
  43 H43           -7.6686    -2.2929     3.3397 H       
  44 H44           -6.5913    -1.4478     0.6472 H       
  45 H45           -4.5917    -0.6026    -0.4751 H       
  46 H46           -2.4496    -0.6068     3.2142 H       
@<TRIPOS>BOND
   1    1    2 1
   2    1    3 2
   3    1    4 am
   4    2   25 1
   5    2   28 1
   6    2   29 1
   7    4    6 1
   8    4   30 1
   9    5    6 ar
  10    5   10 ar
  11    5   31 1
  12    6    7 ar
  13    7    8 ar
  14    7   32 1
  15    8    9 ar
  16    8   33 1
  17    9   10 ar
  18    9   11 1
  19   11   12 1
  20   12   13 ar
  21   12   17 ar
  22   13   14 ar
  23   13   34 1
  24   14   15 ar
  25   14   35 1
  26   15   16 ar
  27   15   18 1
  28   16   17 ar
  29   16   36 1
  30   17   37 1
  31   18   38 1
  32   18   39 1
  33   18   40 1
  34   19   20 1
  35   19   27 1
  36   19   41 1
  37   20   21 2
  38   20   42 1
  39   21   22 1
  40   21   43 1
  41   22   23 ar
  42   22   27 ar
  43   23   24 ar
  44   23   44 1
  45   24   25 ar
  46   24   45 1
  47   25   26 ar
  48   26   27 ar
  49   26   46 1

#	End of record

