#	Name: ASD08070074
#	Creating user name:	WinNT
#	Creation time:	15. 06. 2019 21:14

#	Modifying user name:	WinNT
#	Modification time:	15. 06. 2019 21:14

#	Program:	/corina/corina34_cracker 3.40 0067  02.08.2006

@<TRIPOS>MOLECULE
ASD08070074
  43   43    0    0    0
SMALL
NO_CHARGES


@<TRIPOS>ATOM
   1 C1            -0.0166     1.3754     0.0096 C.ar    
   2 C2             0.0021    -0.0041     0.0020 C.ar    
   3 C3             1.1702     2.0864     0.0021 C.ar    
   4 C4             2.3828     1.4202    -0.0131 C.ar    
   5 C5             2.4156     0.0411    -0.0213 C.ar    
   6 C6             1.2219    -0.6823    -0.0133 C.ar    
   7 C7             1.2495    -2.1605    -0.0216 C.2     
   8 O8             2.3132    -2.7484    -0.0354 O.2     
   9 C9            -1.1812    -4.8518    -0.6215 C.3     
  10 C10            0.1224    -4.3208    -0.0220 C.3     
  11 N11            0.0951    -2.8560    -0.0138 N.am    
  12 C12            0.2720    -4.8361     1.4109 C.3     
  13 C13            1.6318    -4.4090     1.9671 C.3     
  14 C14            1.1421     3.5931     0.0100 C.3     
  15 C15           -1.2709    -4.4405    -2.0924 C.3     
  16 C16            1.1461     4.0957     1.4551 C.3     
  17 C17            1.7813    -4.9243     3.4000 C.3     
  18 C18           -2.5746    -4.9715    -2.6919 C.3     
  19 H19           -0.9598     1.9014     0.0169 H       
  20 H20           -0.9251    -0.5579     0.0083 H       
  21 H21            3.3057     1.9812    -0.0189 H       
  22 H22            3.3627    -0.4777    -0.0339 H       
  23 H23           -1.1992    -5.9391    -0.5465 H       
  24 H24           -2.0281    -4.4360    -0.0756 H       
  25 H25            0.9649    -4.6651    -0.6217 H       
  26 H26           -0.7538    -2.3868    -0.0028 H       
  27 H27           -0.5215    -4.4196     2.0314 H       
  28 H28            0.2032    -5.9239     1.4148 H       
  29 H29            2.4252    -4.8254     1.3466 H       
  30 H30            1.7005    -3.3212     1.9632 H       
  31 H31            2.0203     3.9756    -0.5101 H       
  32 H32            0.2408     3.9424    -0.4936 H       
  33 H33           -1.2530    -3.3532    -2.1674 H       
  34 H34           -0.4241    -4.8563    -2.6383 H       
  35 H35            0.2680     3.7132     1.9752 H       
  36 H36            2.0475     3.7465     1.9587 H       
  37 H37            1.1258     5.1855     1.4608 H       
  38 H38            1.7126    -6.0121     3.4039 H       
  39 H39            2.7501    -4.6200     3.7962 H       
  40 H40            0.9878    -4.5078     4.0205 H       
  41 H41           -2.5925    -6.0588    -2.6170 H       
  42 H42           -3.4214    -4.5557    -2.1461 H       
  43 H43           -2.6384    -4.6785    -3.7398 H       
@<TRIPOS>BOND
   1    1    2 ar
   2    1    3 ar
   3    1   19 1
   4    2    6 ar
   5    2   20 1
   6    3    4 ar
   7    3   14 1
   8    4    5 ar
   9    4   21 1
  10    5    6 ar
  11    5   22 1
  12    6    7 1
  13    7    8 2
  14    7   11 am
  15    9   10 1
  16    9   15 1
  17    9   23 1
  18    9   24 1
  19   10   12 1
  20   10   11 1
  21   10   25 1
  22   11   26 1
  23   12   13 1
  24   12   27 1
  25   12   28 1
  26   13   17 1
  27   13   29 1
  28   13   30 1
  29   14   16 1
  30   14   31 1
  31   14   32 1
  32   15   18 1
  33   15   33 1
  34   15   34 1
  35   16   35 1
  36   16   36 1
  37   16   37 1
  38   17   38 1
  39   17   39 1
  40   17   40 1
  41   18   41 1
  42   18   42 1
  43   18   43 1

#	End of record

