#	Name: ASD01814275
#	Creating user name:	WinNT
#	Creation time:	15. 06. 2019 19:32

#	Modifying user name:	WinNT
#	Modification time:	15. 06. 2019 19:32

#	Program:	/corina/corina34_cracker 3.40 0067  02.08.2006

@<TRIPOS>MOLECULE
ASD01814275
  49   53    0    0    0
SMALL
NO_CHARGES


@<TRIPOS>ATOM
   1 C1            -0.0155     1.3854     0.0718 C.ar    
   2 C2             0.0024    -0.0045     0.0148 C.ar    
   3 C3             1.1794    -0.6889    -0.0504 C.ar    
   4 C4             2.3940     0.0137    -0.0609 C.ar    
   5 C5             2.3719     1.4287    -0.0032 C.ar    
   6 C6             1.1468     2.1000     0.0635 C.ar    
   7 C7             3.6275    -0.6674    -0.1282 C.ar    
   8 C8             4.8012     0.0084    -0.1385 C.ar    
   9 C9             4.8351     1.4106    -0.0832 C.ar    
  10 C10            3.6407     2.1509    -0.0147 C.ar    
  11 C11            6.1017     2.1530    -0.0938 C.2     
  12 N12            6.0338     3.5034    -0.0372 N.am    
  13 C13            4.8300     4.1309     0.0266 C.2     
  14 N14            3.6965     3.4925     0.0372 N.2     
  15 C15            3.6394    -2.1731    -0.1893 C.3     
  16 C16            3.4739    -2.6192    -1.6192 C.ar    
  17 C17            4.5876    -2.8083    -2.4165 C.ar    
  18 C18            4.4386    -3.2172    -3.7275 C.ar    
  19 C19            3.1701    -3.4382    -4.2441 C.ar    
  20 C20            2.0543    -3.2477    -3.4421 C.ar    
  21 C21            2.2089    -2.8442    -2.1299 C.ar    
  22 O22            7.1725     1.5757    -0.1509 O.2     
  23 C23            7.2104     4.2583    -0.0440 C.ar    
  24 C24            7.5292     5.0752    -1.1270 C.ar    
  25 C25            8.7002     5.8045    -1.0950 C.ar    
  26 N26            9.5121     5.7350    -0.0573 N.ar    
  27 C27            9.2454     4.9735     0.9867 C.ar    
  28 C28            8.0918     4.2177     1.0346 C.ar    
  29 O29            3.0209    -3.8400    -5.5337 O.3     
  30 C30            1.6855    -4.0483    -5.9979 C.3     
  31 H31           -0.9609     1.9053     0.1188 H       
  32 H32           -0.9301    -0.5492     0.0226 H       
  33 H33            1.1771    -1.7681    -0.0935 H       
  34 H34            1.1209     3.1788     0.1074 H       
  35 H35            5.7289    -0.5422    -0.1900 H       
  36 H36            4.8135     5.2099     0.0706 H       
  37 H37            4.5872    -2.5450     0.2000 H       
  38 H38            2.8200    -2.5676     0.4116 H       
  39 H39            5.5749    -2.6358    -2.0140 H       
  40 H40            5.3088    -3.3644    -4.3500 H       
  41 H41            1.0657    -3.4190    -3.8419 H       
  42 H42            1.3406    -2.6961    -1.5051 H       
  43 H43            6.8692     5.1364    -1.9797 H       
  44 H44            8.9555     6.4400    -1.9301 H       
  45 H45            9.9366     4.9445     1.8160 H       
  46 H46            7.8794     3.5967     1.8923 H       
  47 H47            1.2069    -4.8190    -5.3937 H       
  48 H48            1.1225    -3.1188    -5.9138 H       
  49 H49            1.7086    -4.3660    -7.0403 H       
@<TRIPOS>BOND
   1    1    2 ar
   2    1    6 ar
   3    1   31 1
   4    2    3 ar
   5    2   32 1
   6    3    4 ar
   7    3   33 1
   8    4    5 ar
   9    4    7 ar
  10    5    6 ar
  11    5   10 ar
  12    6   34 1
  13    7    8 ar
  14    7   15 1
  15    8    9 ar
  16    8   35 1
  17    9   10 ar
  18    9   11 1
  19   10   14 1
  20   11   12 am
  21   11   22 2
  22   12   13 1
  23   12   23 1
  24   13   14 2
  25   13   36 1
  26   15   16 1
  27   15   37 1
  28   15   38 1
  29   16   17 ar
  30   16   21 ar
  31   17   18 ar
  32   17   39 1
  33   18   19 ar
  34   18   40 1
  35   19   20 ar
  36   19   29 1
  37   20   21 ar
  38   20   41 1
  39   21   42 1
  40   23   24 ar
  41   23   28 ar
  42   24   25 ar
  43   24   43 1
  44   25   26 ar
  45   25   44 1
  46   26   27 ar
  47   27   28 ar
  48   27   45 1
  49   28   46 1
  50   29   30 1
  51   30   47 1
  52   30   48 1
  53   30   49 1

#	End of record

