#	Name: ASD01910480
#	Creating user name:	WinNT
#	Creation time:	15. 06. 2019 19:55

#	Modifying user name:	WinNT
#	Modification time:	15. 06. 2019 19:55

#	Program:	/corina/corina34_cracker 3.40 0067  02.08.2006

@<TRIPOS>MOLECULE
ASD01910480
  42   45    0    0    0
SMALL
NO_CHARGES


@<TRIPOS>ATOM
   1 C1             0.8027     1.9673    -1.0325 C.ar    
   2 C2             0.8583     0.5257    -0.6816 C.2     
   3 N3             1.8951    -0.3141    -0.9004 N.2     
   4 C4             1.5104    -1.4765    -0.4356 C.2     
   5 O5             0.2732    -1.3181     0.0451 O.3     
   6 N6            -0.0838    -0.1678    -0.0981 N.2     
   7 C7             2.3115    -2.7529    -0.4422 C.3     
   8 C8             2.5094    -3.2392     0.9953 C.3     
   9 C9             3.3508    -4.5176     0.9919 C.3     
  10 C10            2.6120    -5.6082     0.2100 C.3     
  11 N11            2.2895    -5.0945    -1.1283 N.am    
  12 C12            1.5609    -3.8236    -1.2404 C.3     
  13 C13            2.6550    -5.7762    -2.2320 C.2     
  14 C14            3.4593    -7.0089    -2.1062 C.ar    
  15 O15            2.3227    -5.3767    -3.3310 O.2     
  16 N16            1.8414     2.5504    -1.6216 N.ar    
  17 C17            1.7879     3.8320    -1.9324 C.ar    
  18 C18            0.6516     4.5697    -1.6457 C.ar    
  19 N19           -0.3844     3.9945    -1.0597 N.ar    
  20 C20           -0.3415     2.7119    -0.7502 C.ar    
  21 C21            3.0605    -8.0193    -1.2286 C.ar    
  22 C22            3.8144    -9.1677    -1.1155 C.ar    
  23 C23            4.9669    -9.3206    -1.8711 C.ar    
  24 C24            5.3676    -8.3203    -2.7437 C.ar    
  25 C25            4.6180    -7.1704    -2.8688 C.ar    
  26 F26            5.7022   -10.4482    -1.7564 F       
  27 H27            3.2830    -2.5703    -0.9015 H       
  28 H28            3.0216    -2.4690     1.5720 H       
  29 H29            1.5385    -3.4447     1.4461 H       
  30 H30            4.3125    -4.3189     0.5189 H       
  31 H31            3.5110    -4.8504     2.0174 H       
  32 H32            3.2488    -6.4882     0.1198 H       
  33 H33            1.6920    -5.8722     0.7315 H       
  34 H34            0.5552    -3.9420    -0.8371 H       
  35 H35            1.5043    -3.5260    -2.2875 H       
  36 H36            2.6320     4.3063    -2.4108 H       
  37 H37            0.6118     5.6183    -1.9012 H       
  38 H38           -1.1881     2.2423    -0.2715 H       
  39 H39            2.1632    -7.9011    -0.6393 H       
  40 H40            3.5072    -9.9496    -0.4368 H       
  41 H41            6.2663    -8.4444    -3.3297 H       
  42 H42            4.9308    -6.3920    -3.5490 H       
@<TRIPOS>BOND
   1    1    2 1
   2    1   16 ar
   3    1   20 ar
   4    2    3 1
   5    2    6 2
   6    3    4 2
   7    4    5 1
   8    4    7 1
   9    5    6 1
  10    7    8 1
  11    7   12 1
  12    7   27 1
  13    8    9 1
  14    8   28 1
  15    8   29 1
  16    9   10 1
  17    9   30 1
  18    9   31 1
  19   10   11 1
  20   10   32 1
  21   10   33 1
  22   11   12 1
  23   11   13 am
  24   12   34 1
  25   12   35 1
  26   13   14 1
  27   13   15 2
  28   14   21 ar
  29   14   25 ar
  30   16   17 ar
  31   17   18 ar
  32   17   36 1
  33   18   19 ar
  34   18   37 1
  35   19   20 ar
  36   20   38 1
  37   21   22 ar
  38   21   39 1
  39   22   23 ar
  40   22   40 1
  41   23   24 ar
  42   23   26 1
  43   24   25 ar
  44   24   41 1
  45   25   42 1

#	End of record

