#	Name: ASD00960147
#	Creating user name:	WinNT
#	Creation time:	15. 06. 2019 18:53

#	Modifying user name:	WinNT
#	Modification time:	15. 06. 2019 18:53

#	Program:	/corina/corina34_cracker 3.40 0067  02.08.2006

@<TRIPOS>MOLECULE
ASD00960147
  40   42    0    0    0
SMALL
NO_CHARGES


@<TRIPOS>ATOM
   1 C1             0.1200     1.2492    -0.7442 C.3     
   2 C2            -0.3896     1.7661     0.6194 C.3     
   3 O3            -1.7818     2.0801     0.3982 O.3     
   4 C4            -1.8294     2.7008    -0.9050 C.3     
   5 C5            -3.2444     2.6211    -1.4816 C.3     
   6 C6            -0.2540     0.6948     1.6706 C.2     
   7 C7             0.8629     0.4443     2.3887 C.2     
   8 N8            -1.2364    -0.1627     2.0456 N.pl3   
   9 C9            -0.7518    -0.9926     3.0234 C.2     
  10 C10            0.5798    -0.6305     3.2621 C.2     
  11 N11           -2.5663    -0.3290     1.6314 N.2     
  12 C12           -3.3098    -1.2562     2.1743 C.2     
  13 N13           -2.8505    -2.0663     3.1229 N.2     
  14 C14           -1.6081    -1.9740     3.5675 C.2     
  15 N15           -1.1540    -2.8279     4.5539 N.pl3   
  16 C16           -0.8463     1.8782    -1.7727 C.3     
  17 O17           -0.1382     2.7322    -2.6733 O.3     
  18 C18            0.0438    -0.2779    -0.8010 C.3     
  19 O19           -4.1262     3.4221    -0.6924 O.3     
  20 O20            1.4584     1.6915    -0.9789 O.3     
  21 C21            1.4985    -1.2446     4.2270 C.2     
  22 O22            1.4742    -2.4477     4.4097 O.2     
  23 N23            2.3695    -0.4766     4.9112 N.am    
  24 H24            0.1588     2.6606     0.9151 H       
  25 H25           -1.5019     3.7386    -0.8431 H       
  26 H26           -3.2399     2.9888    -2.5076 H       
  27 H27           -3.5843     1.5855    -1.4682 H       
  28 H28            1.8028     0.9703     2.3094 H       
  29 H29           -4.3312    -1.3678     1.8417 H       
  30 H30           -1.6188    -3.6618     4.7252 H       
  31 H31           -0.3702    -2.5935     5.0752 H       
  32 H32           -1.3790     1.1011    -2.3209 H       
  33 H33           -0.7063     3.1997    -3.3008 H       
  34 H34            0.6869    -0.7028    -0.0303 H       
  35 H35           -0.9848    -0.5968    -0.6325 H       
  36 H36            0.3749    -0.6220    -1.7809 H       
  37 H37           -5.0427     3.4186    -1.0007 H       
  38 H38            1.8181     1.4197    -1.8344 H       
  39 H39            2.3889     0.4822     4.7656 H       
  40 H40            2.9769    -0.8827     5.5492 H       
@<TRIPOS>BOND
   1    1   18 1
   2    1   20 1
   3    1    2 1
   4    1   16 1
   5    2    3 1
   6    2    6 1
   7    2   24 1
   8    3    4 1
   9    4   16 1
  10    4    5 1
  11    4   25 1
  12    5   19 1
  13    5   26 1
  14    5   27 1
  15    6    7 2
  16    6    8 1
  17    7   10 1
  18    7   28 1
  19    8    9 1
  20    8   11 1
  21    9   10 2
  22    9   14 1
  23   10   21 1
  24   11   12 2
  25   12   13 1
  26   12   29 1
  27   13   14 2
  28   14   15 1
  29   15   30 1
  30   15   31 1
  31   16   17 1
  32   16   32 1
  33   17   33 1
  34   18   34 1
  35   18   35 1
  36   18   36 1
  37   19   37 1
  38   20   38 1
  39   21   22 2
  40   21   23 am
  41   23   39 1
  42   23   40 1

#	End of record

