#	Name: ASD02770088
#	Creating user name:	WinNT
#	Creation time:	15. 06. 2019 20:26

#	Modifying user name:	WinNT
#	Modification time:	15. 06. 2019 20:26

#	Program:	/corina/corina34_cracker 3.40 0067  02.08.2006

@<TRIPOS>MOLECULE
ASD02770088
  34   33    0    0    0
SMALL
NO_CHARGES


@<TRIPOS>ATOM
   1 N1            -0.0166     1.3706     0.0096 N.pl3   
   2 C2             0.0021    -0.0041     0.0020 C.2     
   3 N3            -1.1791    -0.7076     0.0095 N.pl3   
   4 N4             1.1395    -0.6403    -0.0123 N.2     
   5 O5             1.2000     2.0953     0.0019 O.3     
   6 C6             1.0313     3.5142     0.0111 C.3     
   7 C7             2.3829     4.1808     0.0018 C.ar    
   8 C8             2.9904     4.4925    -1.2005 C.ar    
   9 C9             4.2293     5.1035    -1.2118 C.ar    
  10 C10            4.8639     5.4044    -0.0154 C.ar    
  11 C11            4.2522     5.0906     1.1897 C.ar    
  12 C12            3.0107     4.4847     1.1955 C.ar    
  13 O13            6.0829     6.0051    -0.0238 O.3     
  14 C14            6.6769     6.2852     1.2454 C.3     
  15 H15           -0.8631     1.8442     0.0162 H       
  16 H16           -2.0256    -0.2341     0.0201 H       
  17 H17           -1.1659    -1.6775     0.0042 H       
  18 H18            1.1527    -1.6102    -0.0176 H       
  19 H19            0.4697     3.8191    -0.8720 H       
  20 H20            0.4867     3.8096     0.9079 H       
  21 H21            2.4961     4.2577    -2.1316 H       
  22 H22            4.7036     5.3465    -2.1511 H       
  23 H23            4.7443     5.3238     2.1224 H       
  24 H24            2.5320     4.2446     2.1334 H       
  25 H25            6.0262     6.9512     1.8120 H       
  26 H26            6.8128     5.3545     1.7963 H       
  27 H27            7.6449     6.7636     1.0959 H       
  28 S28           13.4564    13.3720     9.1945 S.o2    
  29 O29           13.4757    11.9512     9.1867 O.2     
  30 O30           14.6353    14.1653     9.1875 O.2     
  31 O31           12.6449    13.7975     7.9793 O.3     
  32 O32           12.6683    13.7843    10.4295 O.3     
  33 H33           13.0600    13.5804     7.1334 H       
  34 H34           13.0995    13.5582    11.2650 H       
@<TRIPOS>BOND
   1    1    2 1
   2    1    5 1
   3    1   15 1
   4    2    3 1
   5    2    4 2
   6    3   16 1
   7    3   17 1
   8    4   18 1
   9    5    6 1
  10    6    7 1
  11    6   19 1
  12    6   20 1
  13    7    8 ar
  14    7   12 ar
  15    8    9 ar
  16    8   21 1
  17    9   10 ar
  18    9   22 1
  19   10   11 ar
  20   10   13 1
  21   11   12 ar
  22   11   23 1
  23   12   24 1
  24   13   14 1
  25   14   25 1
  26   14   26 1
  27   14   27 1
  28   28   29 2
  29   28   30 2
  30   28   31 1
  31   28   32 1
  32   31   33 1
  33   32   34 1

#	End of record

