#	Name: ASD05060070
#	Creating user name:	WinNT
#	Creation time:	15. 06. 2019 20:56

#	Modifying user name:	WinNT
#	Modification time:	15. 06. 2019 20:56

#	Program:	/corina/corina34_cracker 3.40 0067  02.08.2006

@<TRIPOS>MOLECULE
ASD05060070
  57   60    0    0    0
SMALL
NO_CHARGES


@<TRIPOS>ATOM
   1 C1            -0.0167     1.3774     0.0096 C.ar    
   2 C2             0.0021    -0.0041     0.0020 C.ar    
   3 C3             1.2162    -0.6893    -0.0169 C.ar    
   4 C4             2.4139     0.0266    -0.0282 C.ar    
   5 C5             2.3888     1.4031    -0.0189 C.ar    
   6 C6             1.1748     2.0859     0.0020 C.ar    
   7 O7             1.1984     3.4437     0.0206 O.3     
   8 C8             0.0008     4.1375    -0.3311 C.3     
   9 C9            -1.1609     3.5342     0.4687 C.3     
  10 C10           -1.3495     2.0826     0.0199 C.3     
  11 C11            1.2346    -2.1693    -0.0243 C.ar    
  12 C12            0.7164    -2.9028    -1.1221 C.ar    
  13 C13            0.7576    -4.3174    -1.0804 C.ar    
  14 N14            1.2785    -4.9399    -0.0175 N.ar    
  15 C15            1.7609    -4.2745     1.0050 C.ar    
  16 C16            1.7651    -2.8855     1.0411 C.ar    
  17 C17            0.1687    -2.2566    -2.2375 C.ar    
  18 C18           -0.3196    -2.9965    -3.2728 C.ar    
  19 C19           -0.2814    -4.3879    -3.2355 C.ar    
  20 C20            0.2449    -5.0472    -2.1668 C.ar    
  21 C21            2.3335    -5.0386     2.1708 C.3     
  22 C22            2.3296    -2.1603     2.2354 C.3     
  23 C23            1.3586    -2.2525     3.3842 C.2     
  24 O24            3.5717    -2.7580     2.6123 O.3     
  25 C25            4.4960    -1.8484     3.2125 C.3     
  26 C26            3.8776    -1.2549     4.4799 C.3     
  27 C27            5.7829    -2.5931     3.5735 C.3     
  28 C28            4.8173    -0.7233     2.2267 C.3     
  29 O29            0.1550    -1.6653     3.2943 O.3     
  30 O30            1.6636    -2.8550     4.3861 O.2     
  31 H31           -0.9268    -0.5550     0.0111 H       
  32 H32            3.3580    -0.4976    -0.0439 H       
  33 H33            3.3160     1.9569    -0.0275 H       
  34 H34            0.1041     5.1949    -0.0875 H       
  35 H35           -0.1898     4.0231    -1.3982 H       
  36 H36           -0.9282     3.5632     1.5332 H       
  37 H37           -2.0726     4.0996     0.2758 H       
  38 H38           -1.7781     2.0656    -0.9822 H       
  39 H39           -2.0225     1.5740     0.7102 H       
  40 H40            0.1333    -1.1779    -2.2769 H       
  41 H41           -0.7418    -2.4974    -4.1325 H       
  42 H42           -0.6747    -4.9530    -4.0676 H       
  43 H43            0.2674    -6.1269    -2.1534 H       
  44 H44            3.3975    -5.2091     2.0062 H       
  45 H45            2.1952    -4.4627     3.0859 H       
  46 H46            1.8222    -5.9967     2.2637 H       
  47 H47            2.4929    -1.1131     1.9808 H       
  48 H48            3.6487    -2.0565     5.1822 H       
  49 H49            4.5826    -0.5611     4.9377 H       
  50 H50            2.9608    -0.7244     4.2227 H       
  51 H51            6.2235    -3.0159     2.6706 H       
  52 H52            6.4879    -1.8993     4.0313 H       
  53 H53            5.5540    -3.3947     4.2758 H       
  54 H54            3.9005    -0.1927     1.9696 H       
  55 H55            5.5223    -0.0294     2.6845 H       
  56 H56            5.2579    -1.1461     1.3238 H       
  57 H57           -0.4337    -1.7517     4.0567 H       
@<TRIPOS>BOND
   1    1    2 ar
   2    1    6 ar
   3    1   10 1
   4    2    3 ar
   5    2   31 1
   6    3    4 ar
   7    3   11 1
   8    4    5 ar
   9    4   32 1
  10    5    6 ar
  11    5   33 1
  12    6    7 1
  13    7    8 1
  14    8    9 1
  15    8   34 1
  16    8   35 1
  17    9   10 1
  18    9   36 1
  19    9   37 1
  20   10   38 1
  21   10   39 1
  22   11   12 ar
  23   11   16 ar
  24   12   13 ar
  25   12   17 ar
  26   13   14 ar
  27   13   20 ar
  28   14   15 ar
  29   15   16 ar
  30   15   21 1
  31   16   22 1
  32   17   18 ar
  33   17   40 1
  34   18   19 ar
  35   18   41 1
  36   19   20 ar
  37   19   42 1
  38   20   43 1
  39   21   44 1
  40   21   45 1
  41   21   46 1
  42   22   23 1
  43   22   24 1
  44   22   47 1
  45   23   29 1
  46   23   30 2
  47   24   25 1
  48   25   26 1
  49   25   27 1
  50   25   28 1
  51   26   48 1
  52   26   49 1
  53   26   50 1
  54   27   51 1
  55   27   52 1
  56   27   53 1
  57   28   54 1
  58   28   55 1
  59   28   56 1
  60   29   57 1

#	End of record

