#	Name: ASD08150144
#	Creating user name:	WinNT
#	Creation time:	15. 06. 2019 21:15

#	Modifying user name:	WinNT
#	Modification time:	15. 06. 2019 21:15

#	Program:	/corina/corina34_cracker 3.40 0067  02.08.2006

@<TRIPOS>MOLECULE
ASD08150144
  43   47    0    0    0
SMALL
NO_CHARGES


@<TRIPOS>ATOM
   1 N1            -0.0155     1.2941     0.0092 N.2     
   2 C2             0.0021    -0.0041     0.0020 C.2     
   3 N3             1.1489    -0.7361    -0.0129 N.am    
   4 C4             2.3561    -0.1244    -0.0206 C.2     
   5 C5             2.3703     1.3456    -0.0129 C.ar    
   6 C6             3.5603     2.0707    -0.0194 C.ar    
   7 C7             3.5159     3.4486    -0.0112 C.ar    
   8 C8             2.2967     4.1160     0.0039 C.ar    
   9 C9             1.1107     3.4175     0.0111 C.ar    
  10 C10            1.1298     2.0211     0.0021 C.ar    
  11 O11            3.3902    -0.7666    -0.0331 O.2     
  12 C12            1.0794    -2.1353    -0.0197 C.ar    
  13 C13            1.0563    -2.8374     1.1796 C.ar    
  14 C14            0.9878    -4.2176     1.1688 C.ar    
  15 C15            0.9426    -4.8995    -0.0336 C.ar    
  16 C16            0.9659    -4.2035    -1.2279 C.ar    
  17 C17            1.0277    -2.8233    -1.2242 C.ar    
  18 Cl18           1.1141    -1.9818     2.6890 Cl      
  19 Cl19           4.9949     4.3577    -0.0193 Cl      
  20 C20           -1.3145    -0.7373     0.0112 C.3     
  21 N21           -3.9891     1.5403     0.7810 N.2     
  22 C22           -3.0701     0.6880     1.1311 C.2     
  23 N23           -2.4131     0.2318     0.0273 N.pl3   
  24 C24           -2.9690     0.8470    -1.0658 C.ar    
  25 N25           -2.7543     0.8049    -2.3766 N.ar    
  26 C26           -3.4770     1.5363    -3.1987 C.ar    
  27 N27           -4.4372     2.3382    -2.7761 N.ar    
  28 C28           -4.7243     2.4464    -1.4829 C.ar    
  29 C29           -3.9804     1.6848    -0.5660 C.ar    
  30 N30           -5.7322     3.2899    -1.0496 N.pl3   
  31 H31            4.5103     1.5570    -0.0305 H       
  32 H32            2.2798     5.1958     0.0105 H       
  33 H33            0.1695     3.9469     0.0229 H       
  34 H34            0.9698    -4.7643     2.1001 H       
  35 H35            0.8895    -5.9782    -0.0395 H       
  36 H36            0.9313    -4.7392    -2.1650 H       
  37 H37            1.0407    -2.2803    -2.1577 H       
  38 H38           -1.3908    -1.3582    -0.8815 H       
  39 H39           -1.3731    -1.3678     0.8984 H       
  40 H40           -2.8588     0.3868     2.1465 H       
  41 H41           -3.2767     1.4787    -4.2584 H       
  42 H42           -6.2386     3.8108    -1.6923 H       
  43 H43           -5.9323     3.3602    -0.1030 H       
@<TRIPOS>BOND
   1    1    2 2
   2    1   10 1
   3    2    3 1
   4    2   20 1
   5    3    4 am
   6    3   12 1
   7    4    5 1
   8    4   11 2
   9    5    6 ar
  10    5   10 ar
  11    6    7 ar
  12    6   31 1
  13    7    8 ar
  14    7   19 1
  15    8    9 ar
  16    8   32 1
  17    9   10 ar
  18    9   33 1
  19   12   13 ar
  20   12   17 ar
  21   13   14 ar
  22   13   18 1
  23   14   15 ar
  24   14   34 1
  25   15   16 ar
  26   15   35 1
  27   16   17 ar
  28   16   36 1
  29   17   37 1
  30   20   23 1
  31   20   38 1
  32   20   39 1
  33   21   22 2
  34   21   29 1
  35   22   23 1
  36   22   40 1
  37   23   24 1
  38   24   25 ar
  39   24   29 ar
  40   25   26 ar
  41   26   27 ar
  42   26   41 1
  43   27   28 ar
  44   28   29 ar
  45   28   30 1
  46   30   42 1
  47   30   43 1

#	End of record

