#	Name: ASD02038739
#	Creating user name:	WinNT
#	Creation time:	15. 06. 2019 20:17

#	Modifying user name:	WinNT
#	Modification time:	15. 06. 2019 20:17

#	Program:	/corina/corina34_cracker 3.40 0067  02.08.2006

@<TRIPOS>MOLECULE
ASD02038739
  57   59    0    0    0
SMALL
NO_CHARGES


@<TRIPOS>ATOM
   1 C1             0.0840     1.3305     0.2414 C.ar    
   2 C2             0.0804    -0.0519     0.2367 C.ar    
   3 C3             1.2758    -0.7461     0.2335 C.ar    
   4 C4             2.4747    -0.0580     0.2346 C.ar    
   5 C5             2.4783     1.3243     0.2383 C.ar    
   6 C6             1.2830     2.0185     0.2429 C.ar    
   7 C7             1.2719    -2.2531     0.2294 C.3     
   8 N8             2.3278    -2.7418    -0.6609 N.am    
   9 C9             1.5188    -2.7599     1.6270 C.2     
  10 N10            0.6694    -2.4348     2.6216 N.am    
  11 C11            0.8352    -2.9934     3.8938 C.ar    
  12 C12            1.2959    -4.2964     4.0269 C.ar    
  13 C13            1.4584    -4.8449     5.2842 C.ar    
  14 C14            1.1624    -4.0980     6.4094 C.ar    
  15 C15            0.7033    -2.7998     6.2802 C.ar    
  16 C16            0.5446    -2.2436     5.0263 C.ar    
  17 C17            1.9584    -6.2591     5.4295 C.3     
  18 C18            1.3400    -4.7000     7.7795 C.3     
  19 O19            2.4820    -3.4603     1.8568 O.2     
  20 C20            2.0913    -2.8663    -1.9819 C.2     
  21 N21            3.0626    -3.3158    -2.8009 N.am    
  22 O22            1.0016    -2.5730    -2.4347 O.2     
  23 C23            2.7829    -3.5582    -4.1529 C.ar    
  24 C24            3.8079    -3.5205    -5.0958 C.ar    
  25 C25            3.5257    -3.7608    -6.4304 C.ar    
  26 C26            2.2292    -4.0372    -6.8244 C.ar    
  27 C27            1.2119    -4.0747    -5.8893 C.ar    
  28 C28            1.4863    -3.8416    -4.5545 C.ar    
  29 O29            5.0822    -3.2482    -4.7070 O.3     
  30 C30            6.0815    -3.2262    -5.7282 C.3     
  31 N31           -0.1738    -4.3706    -6.3174 N.pl3   
  32 O32           -0.4165    -4.5807    -7.4924 O.2     
  33 O33           -1.0714    -4.4040    -5.4948 O.2     
  34 H34           -0.8499     1.8729     0.2393 H       
  35 H35           -0.8563    -0.5894     0.2359 H       
  36 H36            3.4087    -0.6005     0.2328 H       
  37 H37            3.4150     1.8619     0.2395 H       
  38 H38            1.2857     3.0985     0.2455 H       
  39 H39            0.3049    -2.6130    -0.1220 H       
  40 H40            3.1971    -2.9757    -0.2996 H       
  41 H41           -0.0569    -1.8136     2.4555 H       
  42 H42            1.5266    -4.8806     3.1483 H       
  43 H43            0.4726    -2.2191     7.1611 H       
  44 H44            0.1860    -1.2298     4.9261 H       
  45 H45            3.0468    -6.2553     5.4899 H       
  46 H46            1.5457    -6.6989     6.3375 H       
  47 H47            1.6445    -6.8460     4.5664 H       
  48 H48            2.3506    -4.5006     8.1358 H       
  49 H49            0.6186    -4.2579     8.4668 H       
  50 H50            1.1791    -5.7767     7.7269 H       
  51 H51            3.9553    -3.4716    -2.4548 H       
  52 H52            4.3182    -3.7319    -7.1635 H       
  53 H53            2.0110    -4.2239    -7.8655 H       
  54 H54            0.6896    -3.8718    -3.8260 H       
  55 H55            7.0502    -2.9976    -5.2838 H       
  56 H56            6.1256    -4.2008    -6.2144 H       
  57 H57            5.8308    -2.4634    -6.4654 H       
@<TRIPOS>BOND
   1    1    2 ar
   2    1    6 ar
   3    1   34 1
   4    2    3 ar
   5    2   35 1
   6    3    4 ar
   7    3    7 1
   8    4    5 ar
   9    4   36 1
  10    5    6 ar
  11    5   37 1
  12    6   38 1
  13    7    8 1
  14    7    9 1
  15    7   39 1
  16    8   20 am
  17    8   40 1
  18    9   10 am
  19    9   19 2
  20   10   11 1
  21   10   41 1
  22   11   12 ar
  23   11   16 ar
  24   12   13 ar
  25   12   42 1
  26   13   14 ar
  27   13   17 1
  28   14   15 ar
  29   14   18 1
  30   15   16 ar
  31   15   43 1
  32   16   44 1
  33   17   45 1
  34   17   46 1
  35   17   47 1
  36   18   48 1
  37   18   49 1
  38   18   50 1
  39   20   21 am
  40   20   22 2
  41   21   23 1
  42   21   51 1
  43   23   24 ar
  44   23   28 ar
  45   24   25 ar
  46   24   29 1
  47   25   26 ar
  48   25   52 1
  49   26   27 ar
  50   26   53 1
  51   27   28 ar
  52   27   31 1
  53   28   54 1
  54   29   30 1
  55   30   55 1
  56   30   56 1
  57   30   57 1
  58   31   32 2
  59   31   33 2

#	End of record

