#	Name: ASD04590234
#	Creating user name:	WinNT
#	Creation time:	15. 06. 2019 20:50

#	Modifying user name:	WinNT
#	Modification time:	15. 06. 2019 20:50

#	Program:	/corina/corina34_cracker 3.40 0067  02.08.2006

@<TRIPOS>MOLECULE
ASD04590234
  55   57    0    0    0
SMALL
NO_CHARGES


@<TRIPOS>ATOM
   1 N1            -0.0153     1.2802     0.0091 N.pl3   
   2 N2             0.0021    -0.0041     0.0020 N.2     
   3 C3             1.2455    -0.4440    -0.0122 C.2     
   4 C4             2.0903     0.6961    -0.0142 C.2     
   5 C5             1.2523     1.7667    -0.0004 C.2     
   6 C6             1.6764    -1.8547    -0.0235 C.2     
   7 N7             0.7570    -2.8402    -0.0200 N.am    
   8 N8             3.4928     0.7146    -0.0275 N.am    
   9 O9             2.8611    -2.1285    -0.0359 O.2     
  10 C10            4.1513     1.8906    -0.0274 C.2     
  11 C11            5.6293     1.9101    -0.0414 C.ar    
  12 O12            3.5296     2.9353    -0.0159 O.2     
  13 C13            1.1850    -4.2413    -0.0312 C.3     
  14 C14            1.9144    -6.1629     1.3892 C.3     
  15 C15            1.4675    -4.6997     1.4009 C.3     
  16 C16            6.3143     3.1264    -0.0414 C.ar    
  17 C17            7.6937     3.1376    -0.0541 C.ar    
  18 C18            8.3981     1.9468    -0.0667 C.ar    
  19 C19            7.7253     0.7378    -0.0668 C.ar    
  20 C20            6.3461     0.7124    -0.0489 C.ar    
  21 C21            0.0781    -5.1078    -0.6351 C.3     
  22 C22            0.5250    -6.5710    -0.6468 C.3     
  23 C23            0.8075    -7.0295     0.7853 C.3     
  24 C24            1.2545    -8.4927     0.7737 C.3     
  25 C25            2.5258    -8.6309    -0.0663 C.3     
  26 C26            1.5370    -8.9511     2.2058 C.3     
  27 C27            0.1475    -9.3592     0.1698 C.3     
  28 H28           -0.8184     1.8242     0.0160 H       
  29 H29            1.5405     2.8076     0.0024 H       
  30 H30           -0.1880    -2.6218    -0.0102 H       
  31 H31            3.9888    -0.1189    -0.0367 H       
  32 H32            2.0907    -4.3397    -0.6296 H       
  33 H33            2.8202    -6.2614     0.7908 H       
  34 H34            2.1157    -6.4895     2.4095 H       
  35 H35            2.2561    -4.0823     1.8311 H       
  36 H36            0.5618    -4.6012     1.9993 H       
  37 H37            5.7656     4.0566    -0.0319 H       
  38 H38            8.2249     4.0779    -0.0545 H       
  39 H39            9.4780     1.9611    -0.0769 H       
  40 H40            8.2811    -0.1882    -0.0767 H       
  41 H41            5.8221    -0.2319    -0.0490 H       
  42 H42           -0.8277    -5.0094    -0.0367 H       
  43 H43           -0.1232    -4.7813    -1.6554 H       
  44 H44           -0.2636    -7.1884    -1.0770 H       
  45 H45            1.4307    -6.6695    -1.2451 H       
  46 H46           -0.0982    -6.9310     1.3837 H       
  47 H47            3.3144    -8.0135     0.3640 H       
  48 H48            2.8442    -9.6733    -0.0746 H       
  49 H49            2.3246    -8.3043    -1.0865 H       
  50 H50            0.6313    -8.8526     2.8041 H       
  51 H51            1.8554    -9.9935     2.1975 H       
  52 H52            2.3256    -8.3337     2.6360 H       
  53 H53           -0.0537    -9.0327    -0.8505 H       
  54 H54            0.4660   -10.4017     0.1615 H       
  55 H55           -0.7582    -9.2608     0.7682 H       
@<TRIPOS>BOND
   1    1    2 1
   2    1    5 1
   3    1   28 1
   4    2    3 2
   5    3    4 1
   6    3    6 1
   7    4    5 2
   8    4    8 1
   9    5   29 1
  10    6    7 am
  11    6    9 2
  12    7   13 1
  13    7   30 1
  14    8   10 am
  15    8   31 1
  16   10   12 2
  17   10   11 1
  18   11   16 ar
  19   11   20 ar
  20   13   21 1
  21   13   15 1
  22   13   32 1
  23   14   15 1
  24   14   23 1
  25   14   33 1
  26   14   34 1
  27   15   35 1
  28   15   36 1
  29   16   17 ar
  30   16   37 1
  31   17   18 ar
  32   17   38 1
  33   18   19 ar
  34   18   39 1
  35   19   20 ar
  36   19   40 1
  37   20   41 1
  38   21   22 1
  39   21   42 1
  40   21   43 1
  41   22   23 1
  42   22   44 1
  43   22   45 1
  44   23   24 1
  45   23   46 1
  46   24   25 1
  47   24   26 1
  48   24   27 1
  49   25   47 1
  50   25   48 1
  51   25   49 1
  52   26   50 1
  53   26   51 1
  54   26   52 1
  55   27   53 1
  56   27   54 1
  57   27   55 1

#	End of record

