#	Name: ASD01816407
#	Creating user name:	WinNT
#	Creation time:	15. 06. 2019 19:35

#	Modifying user name:	WinNT
#	Modification time:	15. 06. 2019 19:35

#	Program:	/corina/corina34_cracker 3.40 0067  02.08.2006

@<TRIPOS>MOLECULE
ASD01816407
  51   56    0    0    0
SMALL
NO_CHARGES


@<TRIPOS>ATOM
   1 C1            -0.0167     1.3813     0.0096 C.ar    
   2 C2             0.0021    -0.0041     0.0020 C.ar    
   3 C3             1.1984    -0.6909    -0.0126 C.ar    
   4 C4             2.4015     0.0059    -0.0198 C.ar    
   5 C5             2.3790     1.4106    -0.0126 C.ar    
   6 C6             1.1663     2.0916     0.0022 C.ar    
   7 N7             3.6054    -0.6773    -0.0336 N.pl3   
   8 C8             4.7970    -0.0587    -0.0411 C.2     
   9 C9             4.9000     1.3102    -0.0351 C.2     
  10 C10            3.6670     2.1301    -0.0205 C.2     
  11 C11            5.9971     2.2728    -0.0397 C.2     
  12 N12            5.4246     3.4960    -0.0287 N.am    
  13 N13            4.0324     3.3799    -0.0174 N.2     
  14 O14            7.1917     2.0227    -0.0508 O.2     
  15 C15            3.5780    -2.1420    -0.0397 C.3     
  16 C16            3.5559    -2.6381    -1.4625 C.ar    
  17 C17            4.7439    -2.8876    -2.1248 C.ar    
  18 C18            4.7268    -3.3418    -3.4290 C.ar    
  19 C19            3.5153    -3.5484    -4.0749 C.ar    
  20 C20            2.3242    -3.2974    -3.4072 C.ar    
  21 C21            2.3476    -2.8482    -2.1013 C.ar    
  22 N22            3.4948    -4.0090    -5.3988 N.pl3   
  23 C23            2.3901    -4.2504    -6.1404 C.2     
  24 C24            2.7970    -4.6802    -7.3573 C.2     
  25 C25            4.1960    -4.7026    -7.3606 C.2     
  26 N26            4.6151    -4.2948    -6.1898 N.2     
  27 C27            6.1298     4.7135    -0.0291 C.2     
  28 C28            5.5816     5.9558    -0.0128 C.2     
  29 C29            7.5251     4.8610    -0.0403 C.2     
  30 N30            7.8010     6.1398    -0.0367 N.2     
  31 N31            6.5947     6.8512    -0.0196 N.pl3   
  32 C32            6.4552     8.3095    -0.0106 C.3     
  33 H33           -0.9602     1.9068     0.0169 H       
  34 H34           -0.9289    -0.5515     0.0079 H       
  35 H35            1.2004    -1.7709    -0.0181 H       
  36 H36            1.1506     3.1715     0.0074 H       
  37 H37            5.6983    -0.6537    -0.0518 H       
  38 H38            4.4656    -2.5241     0.4646 H       
  39 H39            2.6860    -2.4909     0.4806 H       
  40 H40            5.6860    -2.7267    -1.6218 H       
  41 H41            5.6550    -3.5359    -3.9460 H       
  42 H42            1.3803    -3.4568    -3.9072 H       
  43 H43            1.4214    -2.6528    -1.5814 H       
  44 H44            1.3669    -4.1236    -5.8190 H       
  45 H45            2.1552    -4.9572    -8.1806 H       
  46 H46            4.8223    -5.0006    -8.1885 H       
  47 H47            4.5267     6.1870     0.0025 H       
  48 H48            8.2467     4.0575    -0.0501 H       
  49 H49            6.4095     8.6764    -1.0359 H       
  50 H50            5.5402     8.5837     0.5146 H       
  51 H51            7.3120     8.7534     0.4964 H       
@<TRIPOS>BOND
   1    1    2 ar
   2    1    6 ar
   3    1   33 1
   4    2    3 ar
   5    2   34 1
   6    3    4 ar
   7    3   35 1
   8    4    5 ar
   9    4    7 1
  10    5    6 ar
  11    5   10 1
  12    6   36 1
  13    7    8 1
  14    7   15 1
  15    8    9 2
  16    8   37 1
  17    9   10 1
  18    9   11 1
  19   10   13 2
  20   11   12 am
  21   11   14 2
  22   12   13 1
  23   12   27 1
  24   15   16 1
  25   15   38 1
  26   15   39 1
  27   16   17 ar
  28   16   21 ar
  29   17   18 ar
  30   17   40 1
  31   18   19 ar
  32   18   41 1
  33   19   20 ar
  34   19   22 1
  35   20   21 ar
  36   20   42 1
  37   21   43 1
  38   22   23 1
  39   22   26 1
  40   23   24 2
  41   23   44 1
  42   24   25 1
  43   24   45 1
  44   25   26 2
  45   25   46 1
  46   27   29 1
  47   27   28 2
  48   28   31 1
  49   28   47 1
  50   29   30 2
  51   29   48 1
  52   30   31 1
  53   31   32 1
  54   32   49 1
  55   32   50 1
  56   32   51 1

#	End of record

