#	Name: ASD07930010
#	Creating user name:	WinNT
#	Creation time:	15. 06. 2019 21:11

#	Modifying user name:	WinNT
#	Modification time:	15. 06. 2019 21:11

#	Program:	/corina/corina34_cracker 3.40 0067  02.08.2006

@<TRIPOS>MOLECULE
ASD07930010
  50   53    0    0    0
SMALL
NO_CHARGES


@<TRIPOS>ATOM
   1 C1            -0.0167     1.3807     0.0096 C.2     
   2 N2             0.0021    -0.0041     0.0020 N.am    
   3 N3             1.2023     2.0320     0.0015 N.pl3   
   4 C4             2.2545     1.5040    -0.8785 C.3     
   5 C5             2.4301    -0.0046    -0.6026 C.3     
   6 C6             1.1260    -0.6674    -0.3006 C.2     
   7 C7             3.6038     2.1081    -0.4355 C.3     
   8 N8             4.2432     1.1401     0.4737 N.3     
   9 C9             3.3350    -0.0129     0.6493 C.3     
  10 C10            4.5422     1.7265     1.6923 C.ar    
  11 N11            5.1231     0.9979     2.6334 N.ar    
  12 C12            5.4251     1.5271     3.8146 C.ar    
  13 C13            5.1230     2.8638     4.0549 C.ar    
  14 C14            4.5129     3.5974     3.0422 C.ar    
  15 N15            4.2449     3.0027     1.8842 N.ar    
  16 F16            5.4147     3.4358     5.2435 F       
  17 O17            6.0193     0.7742     4.7730 O.3     
  18 O18            4.2005     4.9030     3.2325 O.3     
  19 C19            1.9625     1.7955    -2.3280 C.ar    
  20 C20            2.1426     3.2411    -4.2324 C.ar    
  21 C21            1.4266     2.3310    -4.9910 C.ar    
  22 C22            0.9730     1.1561    -4.4163 C.ar    
  23 C23            1.2412     0.8882    -3.0848 C.ar    
  24 N24           -1.1378     2.0425     0.0186 N.2     
  25 C25           -1.2164    -0.7493     0.3279 C.3     
  26 O26            1.0819    -1.8787    -0.3312 O.2     
  27 C27            3.5759     5.5860     2.1437 C.3     
  28 F28            0.7995    -0.2589    -2.5243 F       
  29 F29            1.1645     2.5925    -6.2902 F       
  30 C30            2.4108     2.9733    -2.9010 C.ar    
  31 F31            3.1095     3.8615    -2.1607 F       
  32 C32            6.2960    -0.5896     4.4479 C.3     
  33 H33            1.3581     2.8114     0.5575 H       
  34 H34            2.9183    -0.4925    -1.4462 H       
  35 H35            4.2388     2.2739    -1.3058 H       
  36 H36            3.4343     3.0500     0.0861 H       
  37 H37            2.7352     0.1114     1.5509 H       
  38 H38            3.9056    -0.9403     0.6980 H       
  39 H39            2.4965     4.1577    -4.6808 H       
  40 H40            0.4142     0.4461    -5.0079 H       
  41 H41           -1.9825     1.5657     0.0200 H       
  42 H42           -2.0230    -0.0493     0.5458 H       
  43 H43           -1.4972    -1.3749    -0.5194 H       
  44 H44           -1.0355    -1.3781     1.1996 H       
  45 H45            4.2353     5.5660     1.2760 H       
  46 H46            2.6357     5.0928     1.8969 H       
  47 H47            3.3803     6.6200     2.4276 H       
  48 H48            5.3643    -1.1022     4.2084 H       
  49 H49            6.9642    -0.6297     3.5877 H       
  50 H50            6.7704    -1.0771     5.2995 H       
@<TRIPOS>BOND
   1    1    2 1
   2    1    3 1
   3    1   24 2
   4    2   25 1
   5    2    6 am
   6    3    4 1
   7    3   33 1
   8    4    7 1
   9    4   19 1
  10    4    5 1
  11    5    6 1
  12    5    9 1
  13    5   34 1
  14    6   26 2
  15    7    8 1
  16    7   35 1
  17    7   36 1
  18    8    9 1
  19    8   10 1
  20    9   37 1
  21    9   38 1
  22   10   11 ar
  23   10   15 ar
  24   11   12 ar
  25   12   13 ar
  26   12   17 1
  27   13   14 ar
  28   13   16 1
  29   14   15 ar
  30   14   18 1
  31   17   32 1
  32   18   27 1
  33   19   30 ar
  34   19   23 ar
  35   20   21 ar
  36   20   30 ar
  37   20   39 1
  38   21   22 ar
  39   21   29 1
  40   22   23 ar
  41   22   40 1
  42   23   28 1
  43   24   41 1
  44   25   42 1
  45   25   43 1
  46   25   44 1
  47   27   45 1
  48   27   46 1
  49   27   47 1
  50   30   31 1
  51   32   48 1
  52   32   49 1
  53   32   50 1

#	End of record

