#	Name: ASD03330754
#	Creating user name:	WinNT
#	Creation time:	15. 06. 2019 20:37

#	Modifying user name:	WinNT
#	Modification time:	15. 06. 2019 20:37

#	Program:	/corina/corina34_cracker 3.40 0067  02.08.2006

@<TRIPOS>MOLECULE
ASD03330754
  58   61    0    0    0
SMALL
NO_CHARGES


@<TRIPOS>ATOM
   1 C1            -0.0027     1.3581    -0.1268 C.2     
   2 N2             0.0179     0.0075    -0.2185 N.pl3   
   3 C3             1.2716     1.7629     0.1341 C.2     
   4 N4             2.0520     0.6614     0.1805 N.2     
   5 C5             1.3078    -0.3976    -0.0361 C.2     
   6 C6             1.7873    -1.7968    -0.0750 C.ar    
   7 C7             1.7187     3.1534     0.3297 C.2     
   8 O8             0.9166     4.0652     0.2628 O.2     
   9 C9             3.4609     4.7971     0.7772 C.3     
  10 N10            3.0164     3.4147     0.5828 N.am    
  11 C11            4.9244     4.9070     0.4352 C.ar    
  12 C12            3.2498     5.1950     2.2154 C.2     
  13 O13            2.7749     4.4019     3.0005 O.2     
  14 C14           -1.1491    -0.8464    -0.4567 C.3     
  15 C15           -1.9664    -0.2694    -1.6166 C.3     
  16 C16           -2.9660     0.7525    -1.0842 C.3     
  17 N17           -2.4181     1.4730     0.0670 N.3     
  18 C18           -1.2158     2.2344    -0.3027 C.3     
  19 C19            3.0793    -2.0824    -0.5173 C.ar    
  20 C20            0.9513    -2.8354     0.3357 C.ar    
  21 C21            1.4044    -4.1381     0.2970 C.ar    
  22 C22            2.6847    -4.4153    -0.1480 C.ar    
  23 C23            3.5205    -3.3893    -0.5513 C.ar    
  24 C24           -3.4311     2.3490     0.6706 C.3     
  25 N25            3.5888     6.4321     2.6290 N.am    
  26 C26            3.3836     6.8189     4.0270 C.3     
  27 C27            5.3932     6.0130    -0.2488 C.ar    
  28 C28            5.7991     3.9045     0.8105 C.ar    
  29 C29            7.1416     4.0053     0.4968 C.ar    
  30 C30            7.6094     5.1084    -0.1926 C.ar    
  31 C31            6.7357     6.1138    -0.5625 C.ar    
  32 H32            2.8857     5.4582     0.1291 H       
  33 H33            3.6561     2.6875     0.6361 H       
  34 H34           -0.8179    -1.8535    -0.7101 H       
  35 H35           -1.7653    -0.8800     0.4418 H       
  36 H36           -1.2961     0.2151    -2.3266 H       
  37 H37           -2.5034    -1.0747    -2.1177 H       
  38 H38           -3.2029     1.4662    -1.8733 H       
  39 H39           -3.8782     0.2375    -0.7830 H       
  40 H40           -1.1281     3.1111     0.3391 H       
  41 H41           -1.2898     2.5495    -1.3435 H       
  42 H42            3.7326    -1.2823    -0.8327 H       
  43 H43           -0.0482    -2.6202     0.6836 H       
  44 H44            0.7583    -4.9430     0.6150 H       
  45 H45            3.0348    -5.4366    -0.1761 H       
  46 H46            4.5188    -3.6122    -0.8980 H       
  47 H47           -4.2778     1.7491     1.0044 H       
  48 H48           -2.9978     2.8719     1.5232 H       
  49 H49           -3.7694     3.0758    -0.0678 H       
  50 H50            3.9687     7.0663     2.0010 H       
  51 H51            3.7143     7.8474     4.1717 H       
  52 H52            2.3251     6.7394     4.2744 H       
  53 H53            3.9589     6.1577     4.6751 H       
  54 H54            4.7106     6.7981    -0.5384 H       
  55 H55            5.4337     3.0426     1.3491 H       
  56 H56            7.8251     3.2224     0.7906 H       
  57 H57            8.6583     5.1873    -0.4374 H       
  58 H58            7.1012     6.9756    -1.1011 H       
@<TRIPOS>BOND
   1    1    2 1
   2    1    3 2
   3    1   18 1
   4    2   14 1
   5    2    5 1
   6    3    4 1
   7    3    7 1
   8    4    5 2
   9    5    6 1
  10    6   20 ar
  11    6   19 ar
  12    7    8 2
  13    7   10 am
  14    9   10 1
  15    9   11 1
  16    9   12 1
  17    9   32 1
  18   10   33 1
  19   11   27 ar
  20   11   28 ar
  21   12   13 2
  22   12   25 am
  23   14   15 1
  24   14   34 1
  25   14   35 1
  26   15   16 1
  27   15   36 1
  28   15   37 1
  29   16   17 1
  30   16   38 1
  31   16   39 1
  32   17   18 1
  33   17   24 1
  34   18   40 1
  35   18   41 1
  36   19   23 ar
  37   19   42 1
  38   20   21 ar
  39   20   43 1
  40   21   22 ar
  41   21   44 1
  42   22   23 ar
  43   22   45 1
  44   23   46 1
  45   24   47 1
  46   24   48 1
  47   24   49 1
  48   25   26 1
  49   25   50 1
  50   26   51 1
  51   26   52 1
  52   26   53 1
  53   27   31 ar
  54   27   54 1
  55   28   29 ar
  56   28   55 1
  57   29   30 ar
  58   29   56 1
  59   30   31 ar
  60   30   57 1
  61   31   58 1

#	End of record

