#	Name: ASD01890177
#	Creating user name:	WinNT
#	Creation time:	15. 06. 2019 19:50

#	Modifying user name:	WinNT
#	Modification time:	15. 06. 2019 19:50

#	Program:	/corina/corina34_cracker 3.40 0067  02.08.2006

@<TRIPOS>MOLECULE
ASD01890177
  28   29    0    0    0
SMALL
NO_CHARGES


@<TRIPOS>ATOM
   1 C1            -0.0178     1.4579     0.0101 C.2     
   2 C2             0.0021    -0.0041     0.0020 C.2     
   3 C3             1.1809    -0.6635    -0.0128 C.2     
   4 O4             1.0280     2.0808     0.0034 O.2     
   5 C5            -1.3086     2.1800     0.0201 C.ar    
   6 C6            -1.3311     3.5759     0.0278 C.ar    
   7 C7            -2.5384     4.2431     0.0367 C.ar    
   8 C8            -3.7254     3.5319     0.0380 C.ar    
   9 C9            -3.7102     2.1482     0.0304 C.ar    
  10 C10           -2.5099     1.4687     0.0161 C.ar    
  11 C11            1.2009    -2.1344    -0.0209 C.ar    
  12 C12            2.4198    -2.8209    -0.0362 C.ar    
  13 C13            2.4297    -4.2005    -0.0432 C.ar    
  14 C14            1.2368    -4.9052    -0.0356 C.ar    
  15 C15            0.0276    -4.2324    -0.0209 C.ar    
  16 C16            0.0012    -2.8538    -0.0074 C.ar    
  17 Cl17           3.9405    -5.0556    -0.0622 Cl      
  18 H18           -0.9258    -0.5567     0.0079 H       
  19 H19            2.1088    -0.1108    -0.0187 H       
  20 H20           -0.4053     4.1321     0.0272 H       
  21 H21           -2.5572     5.3229     0.0430 H       
  22 H22           -4.6680     4.0591     0.0453 H       
  23 H23           -4.6403     1.5991     0.0318 H       
  24 H24           -2.4994     0.3887     0.0060 H       
  25 H25            3.3502    -2.2725    -0.0429 H       
  26 H26            1.2507    -5.9851    -0.0415 H       
  27 H27           -0.8980    -4.7888    -0.0157 H       
  28 H28           -0.9435    -2.3306     0.0089 H       
@<TRIPOS>BOND
   1    1    2 1
   2    1    4 2
   3    1    5 1
   4    2    3 2
   5    2   18 1
   6    3   11 1
   7    3   19 1
   8    5    6 ar
   9    5   10 ar
  10    6    7 ar
  11    6   20 1
  12    7    8 ar
  13    7   21 1
  14    8    9 ar
  15    8   22 1
  16    9   10 ar
  17    9   23 1
  18   10   24 1
  19   11   12 ar
  20   11   16 ar
  21   12   13 ar
  22   12   25 1
  23   13   14 ar
  24   13   17 1
  25   14   15 ar
  26   14   26 1
  27   15   16 ar
  28   15   27 1
  29   16   28 1

#	End of record

