#	Name: ASD06710031
#	Creating user name:	WinNT
#	Creation time:	15. 06. 2019 21:08

#	Modifying user name:	WinNT
#	Modification time:	15. 06. 2019 21:08

#	Program:	/corina/corina34_cracker 3.40 0067  02.08.2006

@<TRIPOS>MOLECULE
ASD06710031
  32   35    0    0    0
SMALL
NO_CHARGES


@<TRIPOS>ATOM
   1 C1            -0.0168     1.3866     0.0097 C.ar    
   2 C2             0.0021    -0.0041     0.0020 C.ar    
   3 C3            -1.1844    -0.7046     0.0090 C.ar    
   4 C4            -2.4009    -0.0365     0.0237 C.ar    
   5 C5            -2.4426     1.3294     0.0314 C.ar    
   6 C6            -1.2527     2.0592     0.0183 C.ar    
   7 N7             0.9687     2.3482     0.0054 N.pl3   
   8 C8             0.4031     3.5941     0.0170 C.2     
   9 C9            -0.9351     3.4892     0.0243 C.2     
  10 C10           -1.9234     4.6269     0.0336 C.3     
  11 N11           -1.2715     5.8629     0.4746 N.pl3   
  12 C12           -1.3345     6.8247    -0.5350 C.ar    
  13 C13           -1.9892     6.3443    -1.6587 C.ar    
  14 C14           -2.4153     4.9178    -1.3937 C.3     
  15 C15           -0.8449     8.1323    -0.5433 C.ar    
  16 C16           -1.0126     8.9304    -1.6549 C.ar    
  17 C17           -1.6670     8.4416    -2.7705 C.ar    
  18 C18           -2.1553     7.1480    -2.7698 C.ar    
  19 H19            0.9436    -0.5331    -0.0097 H       
  20 H20           -1.1677    -1.7844     0.0027 H       
  21 H21           -3.3218    -0.6006     0.0287 H       
  22 H22           -3.3929     1.8425     0.0425 H       
  23 H23            1.9220     2.1691    -0.0040 H       
  24 H24            0.9521     4.5242     0.0166 H       
  25 H25           -2.7652     4.3904     0.6844 H       
  26 H26           -0.8568     5.9937     1.3416 H       
  27 H27           -1.9414     4.2410    -2.1046 H       
  28 H28           -3.5003     4.8287    -1.4476 H       
  29 H29           -0.3331     8.5204     0.3250 H       
  30 H30           -0.6317     9.9410    -1.6543 H       
  31 H31           -1.7970     9.0689    -3.6400 H       
  32 H32           -2.6664     6.7646    -3.6405 H       
@<TRIPOS>BOND
   1    1    2 ar
   2    1    7 1
   3    1    6 ar
   4    2    3 ar
   5    2   19 1
   6    3    4 ar
   7    3   20 1
   8    4    5 ar
   9    4   21 1
  10    5    6 ar
  11    5   22 1
  12    6    9 1
  13    7    8 1
  14    7   23 1
  15    8    9 2
  16    8   24 1
  17    9   10 1
  18   10   11 1
  19   10   14 1
  20   10   25 1
  21   11   12 1
  22   11   26 1
  23   12   15 ar
  24   12   13 ar
  25   13   14 1
  26   13   18 ar
  27   14   27 1
  28   14   28 1
  29   15   16 ar
  30   15   29 1
  31   16   17 ar
  32   16   30 1
  33   17   18 ar
  34   17   31 1
  35   18   32 1

#	End of record

