#	Name: ASD03330097
#	Creating user name:	WinNT
#	Creation time:	15. 06. 2019 20:36

#	Modifying user name:	WinNT
#	Modification time:	15. 06. 2019 20:36

#	Program:	/corina/corina34_cracker 3.40 0067  02.08.2006

@<TRIPOS>MOLECULE
ASD03330097
  71   75    0    0    0
SMALL
NO_CHARGES


@<TRIPOS>ATOM
   1 C1             0.1332     1.4745     0.0175 C.2     
   2 C2             0.0272     0.2604     0.6271 C.2     
   3 C3             1.3327     2.1225     0.2281 C.2     
   4 C4             2.2192     1.4293     1.0202 C.2     
   5 S5             1.5021    -0.0981     1.5133 S.3     
   6 C6             3.5667     1.8970     1.3981 C.ar    
   7 C7             3.9711     1.8671     2.7362 C.ar    
   8 C8             4.4465     2.3663     0.4202 C.ar    
   9 C9             5.7047     2.8021     0.7806 C.ar    
  10 C10            6.0969     2.7748     2.1072 C.ar    
  11 C11            5.2333     2.3064     3.0817 C.ar    
  12 C12            1.6407     3.4524    -0.3502 C.ar    
  13 C13            1.5495     3.6538    -1.7268 C.ar    
  14 C14            2.0167     4.5060     0.4820 C.ar    
  15 C15            2.3022     5.7421    -0.0591 C.ar    
  16 C16            2.2155     5.9378    -1.4306 C.ar    
  17 C17            1.8364     4.8924    -2.2615 C.ar    
  18 C18           -1.1444    -0.6170     0.5547 C.2     
  19 O19           -2.2635    -0.1464     0.6416 O.2     
  20 O20            2.4970     7.1572    -1.9607 O.3     
  21 N21           -0.9826    -1.9451     0.3920 N.am    
  22 C22           -2.1462    -2.8252     0.2180 C.3     
  23 C23            0.3610    -2.5396     0.3791 C.3     
  24 C24            0.5207    -3.3695    -0.8986 C.3     
  25 C25           -0.6181    -4.3881    -0.9862 C.3     
  26 C26           -1.9531    -3.6513    -1.0576 C.3     
  27 C27           -0.4452    -5.2292    -2.2246 C.ar    
  28 C28           -1.3762    -5.1571    -3.2440 C.ar    
  29 C29           -1.2185    -5.9276    -4.3804 C.ar    
  30 C30           -0.1274    -6.7720    -4.4977 C.ar    
  31 C31            0.8044    -6.8433    -3.4761 C.ar    
  32 C32            0.6474    -6.0679    -2.3429 C.ar    
  33 Cl33           2.8887     1.2797     3.9597 Cl      
  34 C34           -0.5922    -5.2761     0.2311 C.2     
  35 N35           -1.5889    -6.1582     0.4431 N.am    
  36 O36            0.3256    -5.1970     1.0200 O.2     
  37 C37            2.3879     7.2889    -3.3794 C.3     
  38 C38            2.7404     8.7207    -3.7874 C.3     
  39 C39            2.6236     8.8616    -5.3064 C.3     
  40 O40            2.9528    10.1989    -5.6874 O.3     
  41 F41            0.0276    -7.5260    -5.6079 F       
  42 H42           -0.6577     1.8943    -0.5865 H       
  43 H43            4.1425     2.3878    -0.6159 H       
  44 H44            6.3857     3.1652     0.0251 H       
  45 H45            7.0834     3.1170     2.3830 H       
  46 H46            5.5460     2.2883     4.1152 H       
  47 H47            1.2550     2.8407    -2.3738 H       
  48 H48            2.0840     4.3545     1.5492 H       
  49 H49            2.5931     6.5587     0.5850 H       
  50 H50            1.7699     5.0479    -3.3281 H       
  51 H51           -2.2314    -3.4922     1.0759 H       
  52 H52           -3.0502    -2.2226     0.1297 H       
  53 H53            1.1107    -1.7485     0.3972 H       
  54 H54            0.4844    -3.1827     1.2504 H       
  55 H55            0.4875    -2.7111    -1.7666 H       
  56 H56            1.4763    -3.8933    -0.8750 H       
  57 H57           -2.7638    -4.3749    -1.1436 H       
  58 H58           -1.9591    -2.9926    -1.9260 H       
  59 H59           -2.2274    -4.4987    -3.1521 H       
  60 H60           -1.9462    -5.8715    -5.1764 H       
  61 H61            1.6559    -7.5015    -3.5665 H       
  62 H62            1.3741    -6.1234    -1.5459 H       
  63 H63           -2.2842    -6.2736    -0.2233 H       
  64 H64           -1.6109    -6.6775     1.2621 H       
  65 H65            3.0745     6.5938    -3.8627 H       
  66 H66            1.3668     7.0642    -3.6876 H       
  67 H67            2.0538     9.4157    -3.3041 H       
  68 H68            3.7615     8.9454    -3.4791 H       
  69 H69            3.3102     8.1666    -5.7896 H       
  70 H70            1.6025     8.6370    -5.6146 H       
  71 H71            2.8999    10.3610    -6.6393 H       
@<TRIPOS>BOND
   1    1    2 2
   2    1    3 1
   3    1   42 1
   4    2   18 1
   5    2    5 1
   6    3    4 2
   7    3   12 1
   8    4    5 1
   9    4    6 1
  10    6    7 ar
  11    6    8 ar
  12    7   33 1
  13    7   11 ar
  14    8    9 ar
  15    8   43 1
  16    9   10 ar
  17    9   44 1
  18   10   11 ar
  19   10   45 1
  20   11   46 1
  21   12   13 ar
  22   12   14 ar
  23   13   17 ar
  24   13   47 1
  25   14   15 ar
  26   14   48 1
  27   15   16 ar
  28   15   49 1
  29   16   17 ar
  30   16   20 1
  31   17   50 1
  32   18   19 2
  33   18   21 am
  34   20   37 1
  35   21   22 1
  36   21   23 1
  37   22   26 1
  38   22   51 1
  39   22   52 1
  40   23   24 1
  41   23   53 1
  42   23   54 1
  43   24   25 1
  44   24   55 1
  45   24   56 1
  46   25   26 1
  47   25   27 1
  48   25   34 1
  49   26   57 1
  50   26   58 1
  51   27   28 ar
  52   27   32 ar
  53   28   29 ar
  54   28   59 1
  55   29   30 ar
  56   29   60 1
  57   30   31 ar
  58   30   41 1
  59   31   32 ar
  60   31   61 1
  61   32   62 1
  62   34   35 am
  63   34   36 2
  64   35   63 1
  65   35   64 1
  66   37   38 1
  67   37   65 1
  68   37   66 1
  69   38   39 1
  70   38   67 1
  71   38   68 1
  72   39   40 1
  73   39   69 1
  74   39   70 1
  75   40   71 1

#	End of record

