#	Name: ASD01813074
#	Creating user name:	WinNT
#	Creation time:	15. 06. 2019 19:29

#	Modifying user name:	WinNT
#	Modification time:	15. 06. 2019 19:29

#	Program:	/corina/corina34_cracker 3.40 0067  02.08.2006

@<TRIPOS>MOLECULE
ASD01813074
  63   67    0    0    0
SMALL
NO_CHARGES


@<TRIPOS>ATOM
   1 C1            -0.9130     1.3608    -0.0464 C.2     
   2 C2            -0.7116     0.0324    -0.0376 C.2     
   3 N3            -1.7541    -0.8317     0.1447 N.pl3   
   4 C4            -3.0209    -0.4334     0.3106 C.2     
   5 C5            -3.3312     0.9122     0.3065 C.2     
   6 C6            -2.2314     1.8681     0.1236 C.2     
   7 O7            -2.4445     3.0701     0.1103 O.2     
   8 C8            -1.4704    -2.2689     0.1590 C.3     
   9 C9            -1.6796    -2.8359    -1.2216 C.ar    
  10 C10            0.1961     2.3635    -0.2228 C.3     
  11 C11            1.4379     1.6992    -0.8132 C.3     
  12 C12            1.7512     0.4486     0.0176 C.3     
  13 C13            0.6530    -0.5809    -0.2354 C.3     
  14 C14           -0.6027    -2.9807    -2.0774 C.ar    
  15 C15           -0.7885    -3.4994    -3.3429 C.ar    
  16 C16           -2.0639    -3.8775    -3.7576 C.ar    
  17 C17           -3.1451    -3.7294    -2.8914 C.ar    
  18 C18           -2.9469    -3.2148    -1.6261 C.ar    
  19 N19           -0.2563     3.4311    -1.1247 N.3     
  20 C20           -2.2699    -4.4354    -5.1172 C.ar    
  21 C21           -3.5453    -4.8134    -5.5320 C.ar    
  22 C22           -3.7312    -5.3317    -6.7975 C.ar    
  23 C23           -2.6543    -5.4766    -7.6534 C.ar    
  24 C24           -1.3860    -5.1034    -7.2467 C.ar    
  25 C25           -1.1897    -4.5777    -5.9857 C.ar    
  26 C26           -0.6118     2.8908    -2.4431 C.3     
  27 C27           -1.2136     4.0022    -3.3060 C.3     
  28 C28           -0.1936     5.1344    -3.4558 C.3     
  29 C29            0.1962     5.6467    -2.0665 C.3     
  30 C30            0.7571     4.4876    -1.2395 C.3     
  31 C31           -4.7172     1.3731     0.4841 C.2     
  32 O32           -5.6116     0.5646     0.6377 O.2     
  33 O33           -4.9950     2.6920     0.4764 O.3     
  34 H34           -3.8025    -1.1660     0.4476 H       
  35 H35           -0.4375    -2.4324     0.4662 H       
  36 H36           -2.1411    -2.7647     0.8608 H       
  37 H37            0.4466     2.7955     0.7461 H       
  38 H38            1.2465     1.4151    -1.8480 H       
  39 H39            2.2801     2.3898    -0.7705 H       
  40 H40            2.7154     0.0392    -0.2837 H       
  41 H41            1.7757     0.7072     1.0762 H       
  42 H42            0.7758    -1.4138     0.4569 H       
  43 H43            0.7357    -0.9498    -1.2577 H       
  44 H44            0.3853    -2.6871    -1.7550 H       
  45 H45            0.0530    -3.6118    -4.0105 H       
  46 H46           -4.1357    -4.0209    -3.2078 H       
  47 H47           -3.7843    -3.0996    -0.9538 H       
  48 H48           -4.3867    -4.7014    -4.8642 H       
  49 H49           -4.7193    -5.6251    -7.1201 H       
  50 H50           -2.8042    -5.8830    -8.6427 H       
  51 H51           -0.5486    -5.2189    -7.9188 H       
  52 H52           -0.1991    -4.2863    -5.6692 H       
  53 H53            0.2821     2.4984    -2.9279 H       
  54 H54           -1.3408     2.0895    -2.3226 H       
  55 H55           -1.4630     3.6045    -4.2897 H       
  56 H56           -2.1154     4.3857    -2.8285 H       
  57 H57            0.6929     4.7605    -3.9681 H       
  58 H58           -0.6338     5.9471    -4.0335 H       
  59 H59            0.9541     6.4239    -2.1647 H       
  60 H60           -0.6834     6.0560    -1.5696 H       
  61 H61            1.0224     4.8461    -0.2449 H       
  62 H62            1.6447     4.0878    -1.7299 H       
  63 H63           -5.9201     2.9464     0.5968 H       
@<TRIPOS>BOND
   1    1    2 2
   2    1   10 1
   3    1    6 1
   4    2    3 1
   5    2   13 1
   6    3    4 1
   7    3    8 1
   8    4    5 2
   9    4   34 1
  10    5    6 1
  11    5   31 1
  12    6    7 2
  13    8    9 1
  14    8   35 1
  15    8   36 1
  16    9   14 ar
  17    9   18 ar
  18   10   11 1
  19   10   19 1
  20   10   37 1
  21   11   12 1
  22   11   38 1
  23   11   39 1
  24   12   13 1
  25   12   40 1
  26   12   41 1
  27   13   42 1
  28   13   43 1
  29   14   15 ar
  30   14   44 1
  31   15   16 ar
  32   15   45 1
  33   16   17 ar
  34   16   20 1
  35   17   18 ar
  36   17   46 1
  37   18   47 1
  38   19   26 1
  39   19   30 1
  40   20   21 ar
  41   20   25 ar
  42   21   22 ar
  43   21   48 1
  44   22   23 ar
  45   22   49 1
  46   23   24 ar
  47   23   50 1
  48   24   25 ar
  49   24   51 1
  50   25   52 1
  51   26   27 1
  52   26   53 1
  53   26   54 1
  54   27   28 1
  55   27   55 1
  56   27   56 1
  57   28   29 1
  58   28   57 1
  59   28   58 1
  60   29   30 1
  61   29   59 1
  62   29   60 1
  63   30   61 1
  64   30   62 1
  65   31   32 2
  66   31   33 1
  67   33   63 1

#	End of record

