#	Name: ASD01881230
#	Creating user name:	WinNT
#	Creation time:	15. 06. 2019 19:42

#	Modifying user name:	WinNT
#	Modification time:	15. 06. 2019 19:42

#	Program:	/corina/corina34_cracker 3.40 0067  02.08.2006

@<TRIPOS>MOLECULE
ASD01881230
  52   55    0    0    0
SMALL
NO_CHARGES


@<TRIPOS>ATOM
   1 N1            -0.0312     1.2645    -0.1626 N.ar    
   2 C2             0.0462    -0.0489    -0.2012 C.ar    
   3 N3             1.1909    -0.6850    -0.0497 N.ar    
   4 C4             2.3224    -0.0176     0.1498 C.ar    
   5 C5             2.2876     1.3730     0.1979 C.ar    
   6 C6             1.0582     2.0079     0.0334 C.ar    
   7 C7             3.5462     2.1708     0.4225 C.3     
   8 O8             4.2280     2.3452    -0.8212 O.3     
   9 C9             5.3891     3.0472    -0.7942 C.ar    
  10 C10            6.1037     3.2540    -1.9706 C.ar    
  11 C11            7.2777     3.9644    -1.9432 C.ar    
  12 C12            7.7630     4.4838    -0.7381 C.ar    
  13 C13            7.0413     4.2734     0.4417 C.ar    
  14 C14            5.8598     3.5633     0.4064 C.ar    
  15 C15            8.2706     4.3601    -3.0076 C.3     
  16 N16            9.3222     5.1214    -2.3238 N.am    
  17 C17            9.0250     5.1901    -1.0148 C.2     
  18 O18            9.7020     5.7556    -0.1780 O.2     
  19 C19           -1.2110    -0.8493    -0.4246 C.3     
  20 Cl20           7.6289     4.9102     1.9460 Cl      
  21 C21            0.9629     3.4875     0.0752 C.ar    
  22 C22            1.8918     4.2678    -0.6108 C.ar    
  23 C23            1.7983     5.6441    -0.5684 C.ar    
  24 C24            0.7854     6.2492     0.1535 C.ar    
  25 C25           -0.1393     5.4797     0.8363 C.ar    
  26 C26           -0.0592     4.1025     0.7959 C.ar    
  27 C27           10.1785     7.1356    -3.4154 C.3     
  28 C28           10.5017     5.7102    -2.9628 C.3     
  29 O29            3.4937    -0.6816     0.3047 O.3     
  30 C30            3.4438    -2.1084     0.2427 C.3     
  31 H31            3.2892     3.1461     0.8359 H       
  32 H32            4.1935     1.6396     1.1203 H       
  33 H33            5.7349     2.8555    -2.9042 H       
  34 H34            5.3023     3.4011     1.3171 H       
  35 H35            8.6946     3.4707    -3.4737 H       
  36 H36            7.7857     4.9829    -3.7594 H       
  37 H37           -1.3585    -1.0032    -1.4936 H       
  38 H38           -1.1200    -1.8151     0.0724 H       
  39 H39           -2.0637    -0.3084    -0.0143 H       
  40 H40            2.6835     3.7964    -1.1743 H       
  41 H41            2.5176     6.2498    -1.0997 H       
  42 H42            0.7165     7.3266     0.1845 H       
  43 H43           -0.9279     5.9575     1.3987 H       
  44 H44           -0.7817     3.5026     1.3293 H       
  45 H45            9.3532     7.1125    -4.1270 H       
  46 H46            9.8959     7.7360    -2.5507 H       
  47 H47           11.0561     7.5736    -3.8908 H       
  48 H48           11.3270     5.7333    -2.2511 H       
  49 H49           10.7843     5.1097    -3.8275 H       
  50 H50            4.4462    -2.5134     0.3815 H       
  51 H51            2.7883    -2.4836     1.0286 H       
  52 H52            3.0588    -2.4166    -0.7294 H       
@<TRIPOS>BOND
   1    1    2 ar
   2    1    6 ar
   3    2    3 ar
   4    2   19 1
   5    3    4 ar
   6    4    5 ar
   7    4   29 1
   8    5    6 ar
   9    5    7 1
  10    6   21 1
  11    7    8 1
  12    7   31 1
  13    7   32 1
  14    8    9 1
  15    9   10 ar
  16    9   14 ar
  17   10   11 ar
  18   10   33 1
  19   11   12 ar
  20   11   15 1
  21   12   13 ar
  22   12   17 1
  23   13   14 ar
  24   13   20 1
  25   14   34 1
  26   15   16 1
  27   15   35 1
  28   15   36 1
  29   16   17 am
  30   16   28 1
  31   17   18 2
  32   19   37 1
  33   19   38 1
  34   19   39 1
  35   21   22 ar
  36   21   26 ar
  37   22   23 ar
  38   22   40 1
  39   23   24 ar
  40   23   41 1
  41   24   25 ar
  42   24   42 1
  43   25   26 ar
  44   25   43 1
  45   26   44 1
  46   27   28 1
  47   27   45 1
  48   27   46 1
  49   27   47 1
  50   28   48 1
  51   28   49 1
  52   29   30 1
  53   30   50 1
  54   30   51 1
  55   30   52 1

#	End of record

