#	Name: ASD04882480
#	Creating user name:	WinNT
#	Creation time:	15. 06. 2019 20:54

#	Modifying user name:	WinNT
#	Modification time:	15. 06. 2019 20:54

#	Program:	/corina/corina34_cracker 3.40 0067  02.08.2006

@<TRIPOS>MOLECULE
ASD04882480
  76   80    0    0    0
SMALL
NO_CHARGES


@<TRIPOS>ATOM
   1 C1            -0.0215     1.4013    -0.0094 C.ar    
   2 C2            -0.0117     0.0037    -0.0051 C.ar    
   3 C3            -1.2095    -0.7018    -0.0165 C.ar    
   4 C4            -2.4098    -0.0266    -0.0315 C.ar    
   5 C5            -2.4268     1.3710    -0.0354 C.ar    
   6 C6            -1.2240     2.0827    -0.0192 C.ar    
   7 N7             1.1996    -0.6831     0.0100 N.3     
   8 C8             1.3065    -1.5360     1.2020 C.3     
   9 C9             1.3723    -1.4734    -1.2168 C.3     
  10 C10            2.7461    -2.1477    -1.1969 C.3     
  11 N11            2.8530    -3.0007    -0.0050 N.3     
  12 C12            2.6803    -2.2103     1.2219 C.3     
  13 C13           -3.7127     2.0940    -0.0514 C.2     
  14 O14           -3.7266     3.3099    -0.0548 O.2     
  15 N15           -4.8721     1.4068    -0.0624 N.am    
  16 N16            1.1863     2.1109     0.0021 N.am    
  17 C17            4.0636    -3.6870     0.0102 C.ar    
  18 C18            4.0956    -5.0812     0.0147 C.ar    
  19 C19            5.3160    -5.7234     0.0299 C.ar    
  20 N20            6.4424    -5.0356     0.0405 N.ar    
  21 C21            6.4540    -3.7156     0.0367 C.ar    
  22 C22            5.2767    -2.9983     0.0155 C.ar    
  23 C23            1.2294     3.3599     0.5068 C.2     
  24 C24            2.5092     4.0695     0.5995 C.2     
  25 O25            0.2059     3.8988     0.8856 O.2     
  26 C26            2.6935     5.3314     1.0877 C.2     
  27 C27            4.0665     5.6058     0.9887 C.2     
  28 C28            4.6527     4.5133     0.4513 C.2     
  29 O29            3.7118     3.5878     0.2228 O.3     
  30 C30            2.8146    -5.8749     0.0036 C.3     
  31 C31            6.1236     4.3596     0.1615 C.3     
  32 C32           -6.1490     2.1247    -0.0783 C.3     
  33 C33           -7.3004     1.1173    -0.0883 C.3     
  34 C34           -8.6340     1.8671    -0.1049 C.3     
  35 N35           -9.7365     0.9024    -0.1145 N.am    
  36 C36          -10.3730     0.3603     1.0917 C.3     
  37 C37          -11.1406    -0.8959     0.6236 C.3     
  38 C38          -11.3961    -0.5721    -0.8667 C.3     
  39 C39          -10.2989     0.4044    -1.2292 C.2     
  40 O40           -9.9698     0.6907    -2.3609 O.2     
  41 H41           -1.1988    -1.7817    -0.0139 H       
  42 H42           -3.3386    -0.5775    -0.0406 H       
  43 H43           -1.2341     3.1627    -0.0218 H       
  44 H44            1.1878    -0.9260     2.0975 H       
  45 H45            0.5277    -2.2981     1.1748 H       
  46 H46            0.5943    -2.2348    -1.2714 H       
  47 H47            1.3016    -0.8178    -2.0847 H       
  48 H48            2.8648    -2.7577    -2.0924 H       
  49 H49            3.5249    -1.3856    -1.1697 H       
  50 H50            3.4584    -1.4489     1.2765 H       
  51 H51            2.7511    -2.8659     2.0898 H       
  52 H52           -4.8610     0.4369    -0.0597 H       
  53 H53            1.9917     1.7034    -0.3532 H       
  54 H54            5.3504    -6.8028     0.0335 H       
  55 H55            7.3979    -3.1907     0.0458 H       
  56 H56            5.2933    -1.9185     0.0126 H       
  57 H57            1.9306     5.9908     1.4744 H       
  58 H58            4.5614     6.5185     1.2862 H       
  59 H59            2.5165    -6.0693    -1.0266 H       
  60 H60            2.9690    -6.8213     0.5219 H       
  61 H61            2.0316    -5.3082     0.5076 H       
  62 H62            6.6235     3.9373     1.0333 H       
  63 H63            6.2582     3.6951    -0.6919 H       
  64 H64            6.5529     5.3352    -0.0663 H       
  65 H65           -6.2237     2.7531     0.8093 H       
  66 H66           -6.2041     2.7483    -0.9706 H       
  67 H67           -7.2258     0.4890    -0.9758 H       
  68 H68           -7.2453     0.4937     0.8040 H       
  69 H69           -8.7087     2.4954     0.7826 H       
  70 H70           -8.6891     2.4907    -0.9972 H       
  71 H71           -9.6164     0.0877     1.8274 H       
  72 H72          -11.0647     1.0896     1.5134 H       
  73 H73          -10.5263    -1.7901     0.7287 H       
  74 H74          -12.0800    -1.0037     1.1659 H       
  75 H75          -11.3214    -1.4758    -1.4716 H       
  76 H76          -12.3733    -0.1064    -0.9939 H       
@<TRIPOS>BOND
   1    1    2 ar
   2    1   16 1
   3    1    6 ar
   4    2    3 ar
   5    2    7 1
   6    3    4 ar
   7    3   41 1
   8    4    5 ar
   9    4   42 1
  10    5    6 ar
  11    5   13 1
  12    6   43 1
  13    7    8 1
  14    7    9 1
  15    8   12 1
  16    8   44 1
  17    8   45 1
  18    9   10 1
  19    9   46 1
  20    9   47 1
  21   10   11 1
  22   10   48 1
  23   10   49 1
  24   11   12 1
  25   11   17 1
  26   12   50 1
  27   12   51 1
  28   13   14 2
  29   13   15 am
  30   15   32 1
  31   15   52 1
  32   16   23 am
  33   16   53 1
  34   17   18 ar
  35   17   22 ar
  36   18   19 ar
  37   18   30 1
  38   19   20 ar
  39   19   54 1
  40   20   21 ar
  41   21   22 ar
  42   21   55 1
  43   22   56 1
  44   23   24 1
  45   23   25 2
  46   24   26 2
  47   24   29 1
  48   26   27 1
  49   26   57 1
  50   27   28 2
  51   27   58 1
  52   28   29 1
  53   28   31 1
  54   30   59 1
  55   30   60 1
  56   30   61 1
  57   31   62 1
  58   31   63 1
  59   31   64 1
  60   32   33 1
  61   32   65 1
  62   32   66 1
  63   33   34 1
  64   33   67 1
  65   33   68 1
  66   34   35 1
  67   34   69 1
  68   34   70 1
  69   35   36 1
  70   35   39 am
  71   36   37 1
  72   36   71 1
  73   36   72 1
  74   37   38 1
  75   37   73 1
  76   37   74 1
  77   38   39 1
  78   38   75 1
  79   38   76 1
  80   39   40 2

#	End of record

