#	Name: ASD01190068
#	Creating user name:	WinNT
#	Creation time:	15. 06. 2019 19:07

#	Modifying user name:	WinNT
#	Modification time:	15. 06. 2019 19:07

#	Program:	/corina/corina34_cracker 3.40 0067  02.08.2006

@<TRIPOS>MOLECULE
ASD01190068
  46   49    0    0    0
SMALL
NO_CHARGES


@<TRIPOS>ATOM
   1 N1            -0.0169     1.3951     0.0097 N.pl3   
   2 N2            -0.2047    -4.1251    -0.0203 N.pl3   
   3 N3            -1.5925    -4.2987    -0.0075 N.2     
   4 C4            -2.1886    -3.1401     0.0054 C.2     
   5 C5            -1.1579    -2.1066     0.0014 C.ar    
   6 C6            -1.1861    -0.7073     0.0096 C.ar    
   7 C7             0.0021    -0.0041     0.0020 C.ar    
   8 C8             1.2218    -0.6818    -0.0137 C.ar    
   9 C9             1.2619    -2.0464    -0.0224 C.ar    
  10 C10            0.0785    -2.7797    -0.0150 C.ar    
  11 C11            0.7438    -5.1558    -0.0307 C.ar    
  12 C12            0.4963    -6.3355     0.6589 C.ar    
  13 C13            1.4327    -7.3504     0.6474 C.ar    
  14 C14            2.6179    -7.1924    -0.0513 C.ar    
  15 C15            2.8667    -6.0168    -0.7397 C.ar    
  16 C16            1.9304    -5.0017    -0.7355 C.ar    
  17 F17            3.5329    -8.1864    -0.0610 F       
  18 C18            1.2417     2.1448     0.0017 C.3     
  19 C19            1.7305     2.3055    -1.4392 C.3     
  20 F20            0.7698     2.9992    -2.1829 F       
  21 F21            2.9324     3.0214    -1.4468 F       
  22 F22            1.9362     1.0429    -2.0054 F       
  23 C23            1.0168     3.5257     0.6209 C.3     
  24 C24            0.6541     3.3710     2.0755 C.ar    
  25 C25            1.6467     3.3565     3.0375 C.ar    
  26 C26            1.3140     3.2145     4.3717 C.ar    
  27 C27           -0.0112     3.0874     4.7439 C.ar    
  28 C28           -1.0038     3.1028     3.7819 C.ar    
  29 C29           -0.6715     3.2491     2.4481 C.ar    
  30 H30           -0.8634     1.8687     0.0163 H       
  31 H31           -3.2557    -2.9740     0.0170 H       
  32 H32           -2.1296    -0.1818     0.0209 H       
  33 H33            2.1445    -0.1205    -0.0195 H       
  34 H34            2.2131    -2.5578    -0.0353 H       
  35 H35           -0.4277    -6.4590     1.2042 H       
  36 H36            1.2408    -8.2679     1.1839 H       
  37 H37            3.7916    -5.8956    -1.2840 H       
  38 H38            2.1227    -4.0869    -1.2764 H       
  39 H39            1.9902     1.6044     0.5811 H       
  40 H40            1.9293     4.1156     0.5348 H       
  41 H41            0.2062     4.0315     0.0962 H       
  42 H42            2.6820     3.4558     2.7467 H       
  43 H43            2.0895     3.2025     5.1233 H       
  44 H44           -0.2710     2.9758     5.7862 H       
  45 H45           -2.0392     3.0032     4.0727 H       
  46 H46           -1.4472     3.2648     1.6969 H       
@<TRIPOS>BOND
   1    1    7 1
   2    1   18 1
   3    1   30 1
   4    2    3 1
   5    2   10 1
   6    2   11 1
   7    3    4 2
   8    4    5 1
   9    4   31 1
  10    5    6 ar
  11    5   10 ar
  12    6    7 ar
  13    6   32 1
  14    7    8 ar
  15    8    9 ar
  16    8   33 1
  17    9   10 ar
  18    9   34 1
  19   11   12 ar
  20   11   16 ar
  21   12   13 ar
  22   12   35 1
  23   13   14 ar
  24   13   36 1
  25   14   15 ar
  26   14   17 1
  27   15   16 ar
  28   15   37 1
  29   16   38 1
  30   18   19 1
  31   18   23 1
  32   18   39 1
  33   19   20 1
  34   19   21 1
  35   19   22 1
  36   23   24 1
  37   23   40 1
  38   23   41 1
  39   24   25 ar
  40   24   29 ar
  41   25   26 ar
  42   25   42 1
  43   26   27 ar
  44   26   43 1
  45   27   28 ar
  46   27   44 1
  47   28   29 ar
  48   28   45 1
  49   29   46 1

#	End of record

