#	Name: ASD01900615
#	Creating user name:	WinNT
#	Creation time:	15. 06. 2019 19:52

#	Modifying user name:	WinNT
#	Modification time:	15. 06. 2019 19:52

#	Program:	/corina/corina34_cracker 3.40 0067  02.08.2006

@<TRIPOS>MOLECULE
ASD01900615
  39   41    0    0    0
SMALL
NO_CHARGES


@<TRIPOS>ATOM
   1 O1            -0.0814     1.4334     0.0232 O.3     
   2 C2            -1.1954     1.6315     0.7579 C.2     
   3 C3            -1.0306     2.7830     1.4733 C.2     
   4 C4             0.2384     3.2845     1.1440 C.2     
   5 C5             0.7856     2.4281     0.2533 C.2     
   6 C6            -2.3765     0.7631     0.7832 C.2     
   7 O7            -3.3260     1.0475     1.4895 O.2     
   8 N8            -2.4108    -0.3501     0.0242 N.am    
   9 C9            -3.4940    -1.2290     0.1208 C.ar    
  10 C10           -4.7738    -0.7352     0.3390 C.ar    
  11 C11           -5.8415    -1.6060     0.4339 C.ar    
  12 C12           -5.6375    -2.9683     0.3124 C.ar    
  13 C13           -4.3646    -3.4633     0.0952 C.ar    
  14 C14           -3.2935    -2.5975    -0.0069 C.ar    
  15 S15           -7.0023    -4.0759     0.4354 S.o2    
  16 O16           -6.4251    -5.2950     0.8824 O.2     
  17 O17           -7.9493    -3.3781     1.2325 O.2     
  18 C18           -7.6041    -4.2434    -1.2677 C.3     
  19 C19           -8.7858    -5.1783    -1.2932 C.ar    
  20 C20          -10.0666    -4.6792    -1.1354 C.ar    
  21 C21          -11.1509    -5.5379    -1.1594 C.ar    
  22 C22          -10.9542    -6.8941    -1.3411 C.ar    
  23 C23           -9.6745    -7.3922    -1.4982 C.ar    
  24 C24           -8.5908    -6.5336    -1.4800 C.ar    
  25 Cl25         -10.3128    -2.9760    -0.9067 Cl      
  26 H26           -1.7394     3.2229     2.1592 H       
  27 H27            0.6919     4.1856     1.5296 H       
  28 H28            1.7614     2.5290    -0.1983 H       
  29 H29           -1.6841    -0.5416    -0.5890 H       
  30 H30           -4.9337     0.3286     0.4346 H       
  31 H31           -6.8368    -1.2226     0.6036 H       
  32 H32           -4.2086    -4.5278     0.0011 H       
  33 H33           -2.3003    -2.9844    -0.1811 H       
  34 H34           -7.9059    -3.2660    -1.6442 H       
  35 H35           -6.8092    -4.6453    -1.8961 H       
  36 H36          -12.1508    -5.1489    -1.0359 H       
  37 H37          -11.8006    -7.5646    -1.3599 H       
  38 H38           -9.5213    -8.4519    -1.6394 H       
  39 H39           -7.5915    -6.9228    -1.6073 H       
@<TRIPOS>BOND
   1    1    2 1
   2    1    5 1
   3    2    3 2
   4    2    6 1
   5    3    4 1
   6    3   26 1
   7    4    5 2
   8    4   27 1
   9    5   28 1
  10    6    7 2
  11    6    8 am
  12    8    9 1
  13    8   29 1
  14    9   10 ar
  15    9   14 ar
  16   10   11 ar
  17   10   30 1
  18   11   12 ar
  19   11   31 1
  20   12   13 ar
  21   12   15 1
  22   13   14 ar
  23   13   32 1
  24   14   33 1
  25   15   16 2
  26   15   17 2
  27   15   18 1
  28   18   19 1
  29   18   34 1
  30   18   35 1
  31   19   20 ar
  32   19   24 ar
  33   20   21 ar
  34   20   25 1
  35   21   22 ar
  36   21   36 1
  37   22   23 ar
  38   22   37 1
  39   23   24 ar
  40   23   38 1
  41   24   39 1

#	End of record

