#	Name: ASD01140740
#	Creating user name:	WinNT
#	Creation time:	15. 06. 2019 19:01

#	Modifying user name:	WinNT
#	Modification time:	15. 06. 2019 19:01

#	Program:	/corina/corina34_cracker 3.40 0067  02.08.2006

@<TRIPOS>MOLECULE
ASD01140740
  46   48    0    0    0
SMALL
NO_CHARGES


@<TRIPOS>ATOM
   1 C1            -0.0187     1.5258     0.0104 C.3     
   2 C2             0.0021    -0.0041     0.0020 C.3     
   3 N3             0.6878    -0.4765    -1.2033 N.am    
   4 C4             0.8268    -1.7986    -1.4250 C.2     
   5 O5             0.3832    -2.5992    -0.6247 O.2     
   6 C6             1.5178    -2.2747    -2.6395 C.ar    
   7 C7             1.6633    -3.6480    -2.8835 C.ar    
   8 C8             2.3168    -4.0440    -4.0327 C.ar    
   9 C9             2.8060    -3.0764    -4.9045 C.ar    
  10 O10            3.4485    -3.4593    -6.0344 O.3     
  11 C11            3.9288    -2.4212    -6.8911 C.3     
  12 C12            4.6104    -3.0328    -8.0879 C.2     
  13 C13            5.9127    -3.3715    -8.2222 C.2     
  14 C14            6.9955    -3.2113    -7.1863 C.3     
  15 O15            6.0534    -3.8779    -9.4555 O.3     
  16 N16            5.0076    -3.8813   -10.0622 N.2     
  17 C17            4.0320    -3.3936    -9.3368 C.2     
  18 C18            2.6107    -3.2445    -9.7378 C.ar    
  19 C19            2.2743    -2.9352   -11.0581 C.ar    
  20 C20            0.9342    -2.8073   -11.3817 C.ar    
  21 C21           -0.0195    -2.9881   -10.3970 C.ar    
  22 C22           -1.4795    -2.8505   -10.7442 C.3     
  23 N23            0.3287    -3.2797    -9.1585 N.ar    
  24 C24            1.5902    -3.4165    -8.8050 C.ar    
  25 N25            2.6524    -1.7866    -4.6463 N.ar    
  26 C26            2.0310    -1.3649    -3.5651 C.ar    
  27 H27            1.0039     1.9031     0.0027 H       
  28 H28           -0.5459     1.8868    -0.8726 H       
  29 H29           -0.5289     1.8773     0.9072 H       
  30 H30            0.5293    -0.3651     0.8851 H       
  31 H31           -1.0205    -0.3814     0.0098 H       
  32 H32            1.0417     0.1622    -1.8418 H       
  33 H33            1.2738    -4.3778    -2.1891 H       
  34 H34            2.4473    -5.0932    -4.2526 H       
  35 H35            3.0912    -1.8082    -7.2239 H       
  36 H36            4.6396    -1.8001    -6.3460 H       
  37 H37            7.0496    -4.1120    -6.5749 H       
  38 H38            7.9526    -3.0513    -7.6829 H       
  39 H39            6.7676    -2.3547    -6.5520 H       
  40 H40            3.0403    -2.7989   -11.8072 H       
  41 H41            0.6370    -2.5685   -12.3922 H       
  42 H42           -1.8727    -3.8195   -11.0518 H       
  43 H43           -2.0286    -2.4960    -9.8718 H       
  44 H44           -1.5933    -2.1366   -11.5599 H       
  45 H45            1.8359    -3.6599    -7.7819 H       
  46 H46            1.9209    -0.3048    -3.3906 H       
@<TRIPOS>BOND
   1    1    2 1
   2    1   27 1
   3    1   28 1
   4    1   29 1
   5    2    3 1
   6    2   30 1
   7    2   31 1
   8    3    4 am
   9    3   32 1
  10    4    5 2
  11    4    6 1
  12    6   26 ar
  13    6    7 ar
  14    7    8 ar
  15    7   33 1
  16    8    9 ar
  17    8   34 1
  18    9   10 1
  19    9   25 ar
  20   10   11 1
  21   11   12 1
  22   11   35 1
  23   11   36 1
  24   12   17 1
  25   12   13 2
  26   13   14 1
  27   13   15 1
  28   14   37 1
  29   14   38 1
  30   14   39 1
  31   15   16 1
  32   16   17 2
  33   17   18 1
  34   18   24 ar
  35   18   19 ar
  36   19   20 ar
  37   19   40 1
  38   20   21 ar
  39   20   41 1
  40   21   22 1
  41   21   23 ar
  42   22   42 1
  43   22   43 1
  44   22   44 1
  45   23   24 ar
  46   24   45 1
  47   25   26 ar
  48   26   46 1

#	End of record

