#	Name: ASD08170347
#	Creating user name:	WinNT
#	Creation time:	15. 06. 2019 21:17

#	Modifying user name:	WinNT
#	Modification time:	15. 06. 2019 21:17

#	Program:	/corina/corina34_cracker 3.40 0067  02.08.2006

@<TRIPOS>MOLECULE
ASD08170347
  67   70    0    0    0
SMALL
NO_CHARGES


@<TRIPOS>ATOM
   1 C1            -0.0167     1.3772     0.0096 C.ar    
   2 C2             0.0021    -0.0041     0.0020 C.ar    
   3 C3             1.2080    -0.6802    -0.0131 C.ar    
   4 C4             2.3980     0.0239    -0.0207 C.ar    
   5 C5             2.3846     1.4052    -0.0127 C.ar    
   6 C6             1.1759     2.0860     0.0020 C.ar    
   7 C7             1.2256    -2.1871    -0.0209 C.3     
   8 C8             1.2176    -2.6822    -1.4442 C.2     
   9 N9             1.2306    -4.0059    -1.6973 N.am    
  10 C10            1.2232    -4.4629    -3.0108 C.2     
  11 S11            1.2376    -6.1056    -3.4967 S.3     
  12 C12            1.2153    -5.5865    -5.1824 C.2     
  13 N13            1.2001    -4.2914    -5.1957 N.2     
  14 N14            1.1985    -3.7149    -4.0725 N.2     
  15 O15            1.1994    -1.8895    -2.3619 O.2     
  16 C16            1.2146    -6.4878    -6.3901 C.3     
  17 C17            2.6567    -6.7756    -6.8126 C.3     
  18 C18            2.6559    -7.6907    -8.0387 C.3     
  19 C19            4.0980    -7.9784    -8.4612 C.3     
  20 C20            4.0973    -8.8798    -9.6689 C.2     
  21 N21            4.0813    -8.4893   -10.9026 N.2     
  22 S22            4.1250   -10.5915    -9.6380 S.3     
  23 C23            4.1051   -10.6178   -11.3498 C.2     
  24 N24            4.0844    -9.3979   -11.7813 N.2     
  25 C25            4.1155   -11.8548   -12.2105 C.3     
  26 C26            5.5395   -12.2435   -12.5142 C.2     
  27 O27            6.4517   -11.5841   -12.0770 O.2     
  28 C28            5.8250   -13.4551   -13.3636 C.3     
  29 C29            7.3150   -13.6226   -13.5151 C.ar    
  30 C30            8.0204   -14.3833   -12.6011 C.ar    
  31 C31            7.9734   -13.0201   -14.5711 C.ar    
  32 C32            9.3391   -13.1725   -14.7125 C.ar    
  33 C33           10.0500   -13.9309   -13.7937 C.ar    
  34 C34            9.3863   -14.5384   -12.7377 C.ar    
  35 O35           11.3935   -14.0826   -13.9308 O.3     
  36 O36            1.1601     3.4449     0.0095 O.3     
  37 C37           -0.1205     4.0787     0.0246 C.3     
  38 C38           12.0604   -14.8769   -12.9477 C.3     
  39 H39           -0.9589     1.9049     0.0169 H       
  40 H40           -0.9260    -0.5563     0.0083 H       
  41 H41            3.3387    -0.5065    -0.0325 H       
  42 H42            3.3144     1.9547    -0.0179 H       
  43 H43            2.1247    -2.5426     0.4824 H       
  44 H44            0.3449    -2.5634     0.4997 H       
  45 H45            1.2451    -4.6399    -0.9633 H       
  46 H46            0.7143    -7.4245    -6.1441 H       
  47 H47            0.6870    -5.9982    -7.2086 H       
  48 H48            3.1569    -5.8389    -7.0586 H       
  49 H49            3.1843    -7.2652    -5.9940 H       
  50 H50            2.1556    -8.6274    -7.7927 H       
  51 H51            2.1283    -7.2011    -8.8572 H       
  52 H52            4.5983    -7.0418    -8.7072 H       
  53 H53            4.6256    -8.4681    -7.6427 H       
  54 H54            3.6214   -12.6697   -11.6813 H       
  55 H55            3.5871   -11.6536   -13.1423 H       
  56 H56            5.4065   -14.3408   -12.8855 H       
  57 H57            5.3722   -13.3247   -14.3465 H       
  58 H58            7.5032   -14.8563   -11.7794 H       
  59 H59            7.4194   -12.4301   -15.2863 H       
  60 H60            9.8529   -12.7019   -15.5377 H       
  61 H61            9.9375   -15.1293   -12.0212 H       
  62 H62           -0.6822     3.7842    -0.8618 H       
  63 H63           -0.6659     3.7746     0.9180 H       
  64 H64            0.0097     5.1609     0.0292 H       
  65 H65           11.9147   -14.4337   -11.9626 H       
  66 H66           11.6492   -15.8864   -12.9563 H       
  67 H67           13.1258   -14.9166   -13.1743 H       
@<TRIPOS>BOND
   1    1    2 ar
   2    1    6 ar
   3    1   39 1
   4    2    3 ar
   5    2   40 1
   6    3    4 ar
   7    3    7 1
   8    4    5 ar
   9    4   41 1
  10    5    6 ar
  11    5   42 1
  12    6   36 1
  13    7    8 1
  14    7   43 1
  15    7   44 1
  16    8    9 am
  17    8   15 2
  18    9   10 1
  19    9   45 1
  20   10   11 1
  21   10   14 2
  22   11   12 1
  23   12   13 2
  24   12   16 1
  25   13   14 1
  26   16   17 1
  27   16   46 1
  28   16   47 1
  29   17   18 1
  30   17   48 1
  31   17   49 1
  32   18   19 1
  33   18   50 1
  34   18   51 1
  35   19   20 1
  36   19   52 1
  37   19   53 1
  38   20   21 2
  39   20   22 1
  40   21   24 1
  41   22   23 1
  42   23   24 2
  43   23   25 1
  44   25   26 1
  45   25   54 1
  46   25   55 1
  47   26   27 2
  48   26   28 1
  49   28   29 1
  50   28   56 1
  51   28   57 1
  52   29   30 ar
  53   29   31 ar
  54   30   34 ar
  55   30   58 1
  56   31   32 ar
  57   31   59 1
  58   32   33 ar
  59   32   60 1
  60   33   34 ar
  61   33   35 1
  62   34   61 1
  63   35   38 1
  64   36   37 1
  65   37   62 1
  66   37   63 1
  67   37   64 1
  68   38   65 1
  69   38   66 1
  70   38   67 1

#	End of record

