#	Name: ASD01915623
#	Creating user name:	WinNT
#	Creation time:	15. 06. 2019 20:05

#	Modifying user name:	WinNT
#	Modification time:	15. 06. 2019 20:05

#	Program:	/corina/corina34_cracker 3.40 0067  02.08.2006

@<TRIPOS>MOLECULE
ASD01915623
  43   46    0    0    0
SMALL
NO_CHARGES


@<TRIPOS>ATOM
   1 C1            -0.0085     1.4184     0.1022 C.2     
   2 N2             0.0292     0.0470    -0.0151 N.pl3   
   3 C3            -1.2039    -0.7386    -0.1461 C.3     
   4 C4            -2.3387    -0.0228     0.5845 C.3     
   5 N5            -2.4044     1.3988     0.2637 N.am    
   6 C6            -1.2834     2.1503     0.1423 C.2     
   7 C7             1.2863     1.8491     0.1766 C.2     
   8 C8             2.0609     0.6832     0.1100 C.2     
   9 N9             1.2448    -0.3394     0.0027 N.2     
  10 C10            3.5657     0.6152     0.1540 C.3     
  11 O11            4.0988     1.9355     0.2755 O.3     
  12 C12            5.4517     2.0521     0.3290 C.ar    
  13 O13           -1.3292     3.3637     0.0703 O.2     
  14 C14            6.0371     3.3044     0.4469 C.ar    
  15 C15            6.2496     0.9187     0.2716 C.ar    
  16 C16            7.6246     1.0399     0.3261 C.ar    
  17 C17            8.2058     2.2895     0.4379 C.ar    
  18 C18            7.4126     3.4202     0.5011 C.ar    
  19 C19           -3.6507     1.9986     0.0771 C.ar    
  20 C20           -4.2310     2.0339    -1.1963 C.ar    
  21 C21           -5.4748     2.6435    -1.3260 C.ar    
  22 C22           -6.0596     3.1767    -0.1867 C.ar    
  23 N23           -5.4368     3.0972     0.9743 N.ar    
  24 N24           -4.2922     2.5318     1.1033 N.ar    
  25 Cl25          -7.6108     3.9495    -0.2881 Cl      
  26 O26           -3.6003     1.4912    -2.2699 O.3     
  27 C27           -4.2721     1.5763    -3.5282 C.3     
  28 H28           -1.4587    -0.8426    -1.2008 H       
  29 H29           -1.0547    -1.7256     0.2917 H       
  30 H30           -3.2844    -0.4899     0.3096 H       
  31 H31           -2.1920    -0.1350     1.6588 H       
  32 H32            1.6364     2.8668     0.2670 H       
  33 H33            3.8776     0.0173     1.0103 H       
  34 H34            3.9357     0.1570    -0.7632 H       
  35 H35            5.4179     4.1879     0.4959 H       
  36 H36            5.7961    -0.0577     0.1847 H       
  37 H37            8.2462     0.1578     0.2818 H       
  38 H38            9.2810     2.3821     0.4804 H       
  39 H39            7.8689     4.3952     0.5880 H       
  40 H40           -5.9696     2.7002    -2.2843 H       
  41 H41           -5.2322     1.0644    -3.4629 H       
  42 H42           -4.4353     2.6235    -3.7829 H       
  43 H43           -3.6612     1.1059    -4.2988 H       
@<TRIPOS>BOND
   1    1    2 1
   2    1    7 2
   3    1    6 1
   4    2    3 1
   5    2    9 1
   6    3    4 1
   7    3   28 1
   8    3   29 1
   9    4    5 1
  10    4   30 1
  11    4   31 1
  12    5    6 am
  13    5   19 1
  14    6   13 2
  15    7    8 1
  16    7   32 1
  17    8    9 2
  18    8   10 1
  19   10   11 1
  20   10   33 1
  21   10   34 1
  22   11   12 1
  23   12   14 ar
  24   12   15 ar
  25   14   18 ar
  26   14   35 1
  27   15   16 ar
  28   15   36 1
  29   16   17 ar
  30   16   37 1
  31   17   18 ar
  32   17   38 1
  33   18   39 1
  34   19   20 ar
  35   19   24 ar
  36   20   21 ar
  37   20   26 1
  38   21   22 ar
  39   21   40 1
  40   22   23 ar
  41   22   25 1
  42   23   24 ar
  43   26   27 1
  44   27   41 1
  45   27   42 1
  46   27   43 1

#	End of record

