#	Name: ASD01870417
#	Creating user name:	WinNT
#	Creation time:	15. 06. 2019 19:39

#	Modifying user name:	WinNT
#	Modification time:	15. 06. 2019 19:39

#	Program:	/corina/corina34_cracker 3.40 0067  02.08.2006

@<TRIPOS>MOLECULE
ASD01870417
  36   38    0    0    0
SMALL
NO_CHARGES


@<TRIPOS>ATOM
   1 C1            -0.1259     1.3692     0.4264 C.2     
   2 N2            -0.1523     0.0320     0.5926 N.am    
   3 O3             0.8117     2.0163     0.8514 O.2     
   4 C4             0.8890    -0.6053     1.2476 C.2     
   5 O5             1.9749    -0.0064     1.7605 O.3     
   6 C6             2.7500    -0.9636     2.3140 C.2     
   7 C7             2.1252    -2.1368     2.1309 C.2     
   8 N8             0.9754    -1.8924     1.4746 N.2     
   9 C9            -1.2314     2.0468    -0.2761 C.ar    
  10 C10           -2.3110     1.3072    -0.7660 C.ar    
  11 C11           -3.3434     1.9471    -1.4165 C.ar    
  12 C12           -3.3167     3.3218    -1.5876 C.ar    
  13 C13           -2.2564     4.0649    -1.1086 C.ar    
  14 C14           -1.2082     3.4376    -0.4512 C.ar    
  15 O15           -0.1660     4.1664     0.0203 O.3     
  16 C16           -0.2387     5.5199    -0.0759 C.ar    
  17 C17           -0.8213     6.2588     0.9439 C.ar    
  18 C18           -0.8939     7.6346     0.8436 C.ar    
  19 C19           -0.3868     8.2754    -0.2718 C.ar    
  20 C20            0.1938     7.5414    -1.2896 C.ar    
  21 C21            0.2746     6.1659    -1.1915 C.ar    
  22 C22            2.6195    -3.4865     2.5839 C.3     
  23 F23            2.1439    -3.7486     3.8732 F       
  24 F24            2.1551    -4.4719     1.7062 F       
  25 F25            4.0185    -3.4917     2.5929 F       
  26 H26           -0.9003    -0.4843     0.2536 H       
  27 H27            3.6969    -0.8129     2.8110 H       
  28 H28           -2.3359     0.2355    -0.6353 H       
  29 H29           -4.1771     1.3744    -1.7951 H       
  30 H30           -4.1302     3.8149    -2.0990 H       
  31 H31           -2.2428     5.1361    -1.2462 H       
  32 H32           -1.2178     5.7587     1.8151 H       
  33 H33           -1.3476     8.2102     1.6369 H       
  34 H34           -0.4446     9.3512    -0.3483 H       
  35 H35            0.5885     8.0443    -2.1601 H       
  36 H36            0.7325     5.5934    -1.9846 H       
@<TRIPOS>BOND
   1    1    2 am
   2    1    3 2
   3    1    9 1
   4    2    4 1
   5    2   26 1
   6    4    5 1
   7    4    8 2
   8    5    6 1
   9    6    7 2
  10    6   27 1
  11    7    8 1
  12    7   22 1
  13    9   14 ar
  14    9   10 ar
  15   10   11 ar
  16   10   28 1
  17   11   12 ar
  18   11   29 1
  19   12   13 ar
  20   12   30 1
  21   13   14 ar
  22   13   31 1
  23   14   15 1
  24   15   16 1
  25   16   17 ar
  26   16   21 ar
  27   17   18 ar
  28   17   32 1
  29   18   19 ar
  30   18   33 1
  31   19   20 ar
  32   19   34 1
  33   20   21 ar
  34   20   35 1
  35   21   36 1
  36   22   23 1
  37   22   24 1
  38   22   25 1

#	End of record

