#	Name: ASD02030498
#	Creating user name:	WinNT
#	Creation time:	15. 06. 2019 20:15

#	Modifying user name:	WinNT
#	Modification time:	15. 06. 2019 20:15

#	Program:	/corina/corina34_cracker 3.40 0067  02.08.2006

@<TRIPOS>MOLECULE
ASD02030498
  58   62    0    0    0
SMALL
NO_CHARGES


@<TRIPOS>ATOM
   1 N1            -0.0330     1.2429     0.3467 N.am    
   2 C2            -0.2588    -0.2091     0.3693 C.3     
   3 C3            -1.3002    -0.5264     1.4497 C.3     
   4 N4            -2.4529     0.3669     1.2675 N.am    
   5 C5            -2.2271     1.8190     1.2449 C.3     
   6 C6            -1.1864     2.1364     0.1702 C.3     
   7 C7             1.2089     1.7463     0.4909 C.2     
   8 C8             2.3400     0.8461     0.8003 C.2     
   9 N9             3.5692     1.2182     1.0858 N.2     
  10 N10            2.2925    -0.4980     0.8451 N.2     
  11 C11            3.4928    -0.9196     1.1519 C.2     
  12 N12            4.2806     0.1653     1.2995 N.pl3   
  13 O13            1.3989     2.9405     0.3665 O.2     
  14 C14           -3.6948    -0.1364     1.1234 C.2     
  15 C15           -3.8935    -1.5905     1.0418 C.2     
  16 O16           -4.6513     0.6127     1.0608 O.2     
  17 C17           -0.7356     3.5922     0.3060 C.3     
  18 C18           -1.7941     1.9105    -1.2157 C.3     
  19 C19            5.6427     0.1499     1.6290 C.ar    
  20 C20            6.3421     1.3427     1.7509 C.ar    
  21 C21            7.6856     1.3241     2.0766 C.ar    
  22 C22            8.3324     0.1179     2.2802 C.ar    
  23 C23            7.6373    -1.0714     2.1591 C.ar    
  24 C24            6.2938    -1.0585     1.8397 C.ar    
  25 Cl25           8.5618     2.8149     2.2295 Cl      
  26 C26           -5.0730    -2.2039     0.7642 C.2     
  27 C27           -4.7983    -3.6401     0.7883 C.ar    
  28 C28           -3.4296    -3.7616     1.0889 C.ar    
  29 O29           -2.9303    -2.5175     1.2258 O.3     
  30 C30           -5.5756    -4.7838     0.5856 C.ar    
  31 C31           -5.0012    -6.0195     0.6806 C.ar    
  32 C32           -3.6508    -6.1472     0.9770 C.ar    
  33 C33           -2.8655    -5.0312     1.1808 C.ar    
  34 C34           -6.3968    -1.5391     0.4875 C.3     
  35 F35           -1.5529    -5.1700     1.4690 F       
  36 H36           -0.6281    -0.5371    -0.6023 H       
  37 H37            0.6754    -0.7210     0.6002 H       
  38 H38           -1.6222    -1.5633     1.3540 H       
  39 H39           -0.8648    -0.3654     2.4359 H       
  40 H40           -3.1613     2.3309     1.0141 H       
  41 H41           -1.8577     2.1469     2.2166 H       
  42 H42            3.7967    -1.9493     1.2689 H       
  43 H43           -0.1964     3.7195     1.2446 H       
  44 H44           -0.0810     3.8490    -0.5269 H       
  45 H45           -1.6084     4.2451     0.2968 H       
  46 H46           -2.6580     2.5627    -1.3443 H       
  47 H47           -1.0506     2.1374    -1.9798 H       
  48 H48           -2.1067     0.8706    -1.3102 H       
  49 H49            5.8374     2.2841     1.5913 H       
  50 H50            9.3821     0.1053     2.5338 H       
  51 H51            8.1449    -2.0114     2.3183 H       
  52 H52            5.7518    -1.9879     1.7457 H       
  53 H53           -6.6266    -4.6909     0.3551 H       
  54 H54           -5.6017    -6.9034     0.5244 H       
  55 H55           -3.2104    -7.1307     1.0490 H       
  56 H56           -6.4935    -1.3534    -0.5822 H       
  57 H57           -7.2063    -2.1899     0.8180 H       
  58 H58           -6.4480    -0.5931     1.0266 H       
@<TRIPOS>BOND
   1    1    2 1
   2    1    7 am
   3    1    6 1
   4    2    3 1
   5    2   36 1
   6    2   37 1
   7    3    4 1
   8    3   38 1
   9    3   39 1
  10    4    5 1
  11    4   14 am
  12    5    6 1
  13    5   40 1
  14    5   41 1
  15    6   17 1
  16    6   18 1
  17    7    8 1
  18    7   13 2
  19    8    9 2
  20    8   10 1
  21    9   12 1
  22   10   11 2
  23   11   12 1
  24   11   42 1
  25   12   19 1
  26   14   15 1
  27   14   16 2
  28   15   26 2
  29   15   29 1
  30   17   43 1
  31   17   44 1
  32   17   45 1
  33   18   46 1
  34   18   47 1
  35   18   48 1
  36   19   20 ar
  37   19   24 ar
  38   20   21 ar
  39   20   49 1
  40   21   22 ar
  41   21   25 1
  42   22   23 ar
  43   22   50 1
  44   23   24 ar
  45   23   51 1
  46   24   52 1
  47   26   27 1
  48   26   34 1
  49   27   28 ar
  50   27   30 ar
  51   28   29 1
  52   28   33 ar
  53   30   31 ar
  54   30   53 1
  55   31   32 ar
  56   31   54 1
  57   32   33 ar
  58   32   55 1
  59   33   35 1
  60   34   56 1
  61   34   57 1
  62   34   58 1

#	End of record

