#	Name: ASD03092979
#	Creating user name:	WinNT
#	Creation time:	15. 06. 2019 20:33

#	Modifying user name:	WinNT
#	Modification time:	15. 06. 2019 20:33

#	Program:	/corina/corina34_cracker 3.40 0067  02.08.2006

@<TRIPOS>MOLECULE
ASD03092979
  39   42    0    0    0
SMALL
NO_CHARGES


@<TRIPOS>ATOM
   1 N1            -0.0204     1.6518     0.0111 N.am    
   2 S2             0.0021    -0.0041     0.0020 S.o2    
   3 O3            -0.5249    -0.4194     1.2546 O.2     
   4 O4            -0.5488    -0.4060    -1.2447 O.2     
   5 C5             1.6920    -0.5027    -0.0168 C.ar    
   6 C6             2.3450    -0.6864    -1.2212 C.ar    
   7 C7             3.6708    -1.0775    -1.2360 C.ar    
   8 C8             4.3436    -1.2846    -0.0463 C.ar    
   9 C9             3.6908    -1.1000     1.1581 C.ar    
  10 C10            2.3663    -0.7047     1.1729 C.ar    
  11 C11            5.7886    -1.7120    -0.0624 C.3     
  12 H12            6.1115    -2.2443    -0.9571 H       
  13 C13            6.4188    -2.1226     1.2699 C.3     
  14 C14            6.8049    -0.7926     0.6179 C.3     
  15 H15            6.4283     0.1214     1.0771 H       
  16 C16            8.1758    -0.6928     0.0000 C.2     
  17 N17            8.7468     0.3947    -0.4547 N.2     
  18 C18            9.9589     0.0051    -0.9102 C.2     
  19 N19           10.0517    -1.2833    -0.7074 N.2     
  20 O20            9.0398    -1.6964    -0.1816 O.3     
  21 C21           10.9906     0.8767    -1.5258 C.ar    
  22 C22           10.7542     2.2416    -1.6745 C.ar    
  23 C23           11.7163     3.0488    -2.2476 C.ar    
  24 C24           12.9141     2.5058    -2.6742 C.ar    
  25 C25           13.1555     1.1491    -2.5297 C.ar    
  26 F26           14.3275     0.6238    -2.9488 F       
  27 C27           12.2008     0.3336    -1.9515 C.ar    
  28 H28            0.8130     2.1481     0.0058 H       
  29 H29           -0.8669     2.1253     0.0177 H       
  30 H30            1.8193    -0.5246    -2.1507 H       
  31 H31            4.1808    -1.2217    -2.1770 H       
  32 H32            4.2164    -1.2621     2.0876 H       
  33 H33            1.8573    -0.5568     2.1139 H       
  34 H34            5.7882    -2.0836     2.1581 H       
  35 H35            7.1565    -2.9248     1.2518 H       
  36 H36            9.8190     2.6676    -1.3422 H       
  37 H37           11.5328     4.1068    -2.3632 H       
  38 H38           13.6639     3.1412    -3.1220 H       
  39 H39           12.3908    -0.7231    -1.8344 H       
@<TRIPOS>BOND
   1    1    2 am
   2    1   28 1
   3    1   29 1
   4    2    3 2
   5    2    4 2
   6    2    5 1
   7    5   10 ar
   8    5    6 ar
   9    6    7 ar
  10    6   30 1
  11    7    8 ar
  12    7   31 1
  13    8    9 ar
  14    8   11 1
  15    9   10 ar
  16    9   32 1
  17   10   33 1
  18   11   12 1
  19   11   14 1
  20   11   13 1
  21   13   14 1
  22   13   34 1
  23   13   35 1
  24   14   15 1
  25   14   16 1
  26   16   20 1
  27   16   17 2
  28   17   18 1
  29   18   19 2
  30   18   21 1
  31   19   20 1
  32   21   27 ar
  33   21   22 ar
  34   22   23 ar
  35   22   36 1
  36   23   24 ar
  37   23   37 1
  38   24   25 ar
  39   24   38 1
  40   25   26 1
  41   25   27 ar
  42   27   39 1

#	End of record

