#	Name: ASD01916368
#	Creating user name:	WinNT
#	Creation time:	15. 06. 2019 20:07

#	Modifying user name:	WinNT
#	Modification time:	15. 06. 2019 20:07

#	Program:	/corina/corina34_cracker 3.40 0067  02.08.2006

@<TRIPOS>MOLECULE
ASD01916368
  46   48    0    0    0
SMALL
NO_CHARGES


@<TRIPOS>ATOM
   1 C1            -0.0187     1.5301     0.0105 C.3     
   2 C2             0.0021    -0.0041     0.0020 C.3     
   3 C3             0.8354    -0.5086     1.1777 C.3     
   4 C4             0.3456     0.0671     2.4763 C.ar    
   5 C5            -0.3970     1.2523     2.5193 C.ar    
   6 C6            -0.7244     1.9679     1.2782 C.2     
   7 N7             0.6155    -0.5499     3.6138 N.ar    
   8 C8             0.1945    -0.0568     4.7713 C.ar    
   9 N9            -0.5099     1.0654     4.8497 N.ar    
  10 C10           -0.8231     1.7432     3.7605 C.ar    
  11 N11            0.4987    -0.7337     5.9327 N.pl3   
  12 C12            0.0463    -0.2117     7.2246 C.3     
  13 O13           -1.5301     2.8746     1.2687 O.2     
  14 C14           -0.0611    -1.3605     8.2294 C.3     
  15 C15           -0.5335    -0.8154     9.5787 C.3     
  16 C16            0.4714     0.2182    10.0913 C.3     
  17 C17            0.5789     1.3670     9.0865 C.3     
  18 C18            1.0513     0.8219     7.7372 C.3     
  19 C19            1.4130     2.0694    -0.0003 C.3     
  20 C20           -0.7777     2.0464    -1.2136 C.3     
  21 C21           -0.0010     0.7634    11.4406 C.3     
  22 H22           -1.0166    -0.3817     0.0902 H       
  23 H23            0.4405    -0.3563    -0.9317 H       
  24 H24            0.7701    -1.5958     1.2216 H       
  25 H25            1.8757    -0.2198     1.0285 H       
  26 H26           -1.3959     2.6565     3.8250 H       
  27 H27            1.0123    -1.5557     5.8946 H       
  28 H28           -0.9296     0.2587     7.1049 H       
  29 H29           -0.7770    -2.0968     7.8643 H       
  30 H30            0.9148    -1.8309     8.3492 H       
  31 H31           -1.5094    -0.3449     9.4590 H       
  32 H32           -0.6101    -1.6338    10.2946 H       
  33 H33            1.4474    -0.2522    10.2110 H       
  34 H34           -0.3971     1.8374     8.9667 H       
  35 H35            1.2948     2.1034     9.4516 H       
  36 H36            2.0272     0.3514     7.8569 H       
  37 H37            1.1278     1.6403     7.0213 H       
  38 H38            1.9256     1.7215    -0.8971 H       
  39 H39            1.3908     3.1592     0.0057 H       
  40 H40            1.9426     1.7119     0.8827 H       
  41 H41           -1.8013     1.6725    -1.1907 H       
  42 H42           -0.7886     3.1363    -1.2012 H       
  43 H43           -0.2839     1.6982    -2.1208 H       
  44 H44           -0.0775    -0.0550    12.1564 H       
  45 H45            0.7149     1.4997    11.8057 H       
  46 H46           -0.9769     1.2338    11.3208 H       
@<TRIPOS>BOND
   1    1    2 1
   2    1   19 1
   3    1   20 1
   4    1    6 1
   5    2    3 1
   6    2   22 1
   7    2   23 1
   8    3    4 1
   9    3   24 1
  10    3   25 1
  11    4    5 ar
  12    4    7 ar
  13    5    6 1
  14    5   10 ar
  15    6   13 2
  16    7    8 ar
  17    8    9 ar
  18    8   11 1
  19    9   10 ar
  20   10   26 1
  21   11   12 1
  22   11   27 1
  23   12   14 1
  24   12   18 1
  25   12   28 1
  26   14   15 1
  27   14   29 1
  28   14   30 1
  29   15   16 1
  30   15   31 1
  31   15   32 1
  32   16   17 1
  33   16   21 1
  34   16   33 1
  35   17   18 1
  36   17   34 1
  37   17   35 1
  38   18   36 1
  39   18   37 1
  40   19   38 1
  41   19   39 1
  42   19   40 1
  43   20   41 1
  44   20   42 1
  45   20   43 1
  46   21   44 1
  47   21   45 1
  48   21   46 1

#	End of record

