#	Name: ASD07030065
#	Creating user name:	WinNT
#	Creation time:	15. 06. 2019 21:08

#	Modifying user name:	WinNT
#	Modification time:	15. 06. 2019 21:08

#	Program:	/corina/corina34_cracker 3.40 0067  02.08.2006

@<TRIPOS>MOLECULE
ASD07030065
  36   36    0    0    0
SMALL
NO_CHARGES


@<TRIPOS>ATOM
   1 C1            -0.0187     1.5258     0.0104 C.3     
   2 C2             0.0021    -0.0041     0.0020 C.3     
   3 C3             1.3165     0.7789    -0.0063 C.3     
   4 N4            -0.4313     2.2053    -1.2248 N.3     
   5 C5            -0.3780    -0.7121     1.2769 C.ar    
   6 C6            -1.4563    -1.5770     1.2921 C.ar    
   7 C7            -1.8049    -2.2265     2.4615 C.ar    
   8 C8            -1.0750    -2.0114     3.6156 C.ar    
   9 C9             0.0038    -1.1472     3.6001 C.ar    
  10 C10            0.3551    -0.5011     2.4297 C.ar    
  11 C11           -0.9675     3.5422    -0.9364 C.3     
  12 C12           -1.3855     4.2172    -2.2442 C.3     
  13 O13           -2.4700     3.4929    -2.8286 O.3     
  14 C14           -2.9391     4.0431    -4.0612 C.3     
  15 C15           -4.0940     3.1919    -4.5929 C.3     
  16 H16           -0.3072     2.0201     0.9381 H       
  17 H17           -0.2904    -0.5063    -0.9201 H       
  18 H18            1.8888     0.7918    -0.9339 H       
  19 H19            1.9064     0.7818     0.9103 H       
  20 H20            0.3326     2.2562    -1.8820 H       
  21 H21           -2.0265    -1.7450     0.3904 H       
  22 H22           -2.6478    -2.9017     2.4735 H       
  23 H23           -1.3479    -2.5183     4.5294 H       
  24 H24            0.5738    -0.9789     4.5019 H       
  25 H25            1.2002     0.1713     2.4167 H       
  26 H26           -1.8336     3.4526    -0.2807 H       
  27 H27           -0.2014     4.1429    -0.4462 H       
  28 H28           -1.7001     5.2407    -2.0405 H       
  29 H29           -0.5416     4.2269    -2.9340 H       
  30 H30           -3.2859     5.0630    -3.8951 H       
  31 H31           -2.1274     4.0493    -4.7886 H       
  32 H32           -4.4518     3.6116    -5.5330 H       
  33 H33           -3.7471     2.1720    -4.7589 H       
  34 H34           -4.9057     3.1858    -3.8654 H       
  35 Cl35           6.9064    10.2407     9.5294 Cl      
  36 H36            6.9064    11.6107     9.5294 H       
@<TRIPOS>BOND
   1    1    2 1
   2    1    3 1
   3    1    4 1
   4    1   16 1
   5    2    3 1
   6    2    5 1
   7    2   17 1
   8    3   18 1
   9    3   19 1
  10    4   11 1
  11    4   20 1
  12    5    6 ar
  13    5   10 ar
  14    6    7 ar
  15    6   21 1
  16    7    8 ar
  17    7   22 1
  18    8    9 ar
  19    8   23 1
  20    9   10 ar
  21    9   24 1
  22   10   25 1
  23   11   12 1
  24   11   26 1
  25   11   27 1
  26   12   13 1
  27   12   28 1
  28   12   29 1
  29   13   14 1
  30   14   15 1
  31   14   30 1
  32   14   31 1
  33   15   32 1
  34   15   33 1
  35   15   34 1
  36   35   36 1

#	End of record

