#	Name: ASD02039396
#	Creating user name:	WinNT
#	Creation time:	15. 06. 2019 20:18

#	Modifying user name:	WinNT
#	Modification time:	15. 06. 2019 20:18

#	Program:	/corina/corina34_cracker 3.40 0067  02.08.2006

@<TRIPOS>MOLECULE
ASD02039396
  51   53    0    0    0
SMALL
NO_CHARGES


@<TRIPOS>ATOM
   1 C1            -0.1214     1.5192    -0.1782 C.ar    
   2 C2            -0.1114     0.1411    -0.0695 C.ar    
   3 C3            -1.2934    -0.5712    -0.1574 C.ar    
   4 C4            -2.5029     1.4811    -0.4536 C.ar    
   5 C5            -1.3138     2.1908    -0.3700 C.ar    
   6 N6            -3.7150     2.1605    -0.6487 N.pl3   
   7 C7             1.1693     2.2909    -0.0813 C.3     
   8 N8             1.8245     2.3133    -1.3914 N.am    
   9 C9             1.4056     3.2863    -2.4034 C.3     
  10 C10            2.8126     1.4388    -1.6658 C.2     
  11 C11            3.1753     0.4045    -0.6812 C.2     
  12 C12            4.1867    -0.5032    -0.8007 C.2     
  13 N13            2.5677     0.1850     0.5128 N.2     
  14 C14            3.1596    -0.8089     1.1098 C.2     
  15 N15            4.1699    -1.2601     0.3216 N.pl3   
  16 O16            3.4049     1.5034    -2.7261 O.2     
  17 C17            5.0777    -2.3676     0.6303 C.3     
  18 C18           -4.7534     2.2260     0.2241 C.2     
  19 C19           -2.4896     0.0942    -0.3549 C.ar    
  20 C20            2.5621     4.2429    -2.7006 C.3     
  21 C21            1.0099     2.5506    -3.6852 C.3     
  22 F22           -3.6445    -0.6014    -0.4413 F       
  23 C23           -4.0723     2.8884    -1.7540 C.2     
  24 C24           -5.3103     3.3657    -1.5232 C.2     
  25 N25           -5.7011     2.9469    -0.3105 N.2     
  26 C26           -4.8032     1.5752     1.5825 C.3     
  27 C27           -6.1153     4.2256    -2.4632 C.3     
  28 H28            0.8218    -0.3804     0.0841 H       
  29 H29           -1.2824    -1.6477    -0.0720 H       
  30 H30           -1.3211     3.2681    -0.4459 H       
  31 H31            0.9592     3.3119     0.2373 H       
  32 H32            1.8256     1.8115     0.6450 H       
  33 H33            0.5520     3.8528    -2.0313 H       
  34 H34            4.8698    -0.5997    -1.6316 H       
  35 H35            2.8926    -1.2082     2.0771 H       
  36 H36            4.6555    -3.2993     0.2538 H       
  37 H37            6.0432    -2.1888     0.1570 H       
  38 H38            5.2100    -2.4389     1.7099 H       
  39 H39            3.3829     3.6898    -3.1572 H       
  40 H40            2.2233     5.0209    -3.3848 H       
  41 H41            2.9039     4.6995    -1.7718 H       
  42 H42            0.2518     1.8020    -3.4552 H       
  43 H43            0.6090     3.2645    -4.4048 H       
  44 H44            1.8870     2.0614    -4.1088 H       
  45 H45           -3.4754     3.0489    -2.6396 H       
  46 H46           -4.4089     2.2638     2.3299 H       
  47 H47           -5.8352     1.3247     1.8278 H       
  48 H48           -4.2013     0.6665     1.5723 H       
  49 H49           -6.7140     3.5894    -3.1151 H       
  50 H50           -6.7730     4.8764    -1.8870 H       
  51 H51           -5.4414     4.8330    -3.0673 H       
@<TRIPOS>BOND
   1    1    2 ar
   2    1    7 1
   3    1    5 ar
   4    2    3 ar
   5    2   28 1
   6    3   19 ar
   7    3   29 1
   8    4    5 ar
   9    4    6 1
  10    4   19 ar
  11    5   30 1
  12    6   18 1
  13    6   23 1
  14    7    8 1
  15    7   31 1
  16    7   32 1
  17    8    9 1
  18    8   10 am
  19    9   20 1
  20    9   21 1
  21    9   33 1
  22   10   11 1
  23   10   16 2
  24   11   12 2
  25   11   13 1
  26   12   15 1
  27   12   34 1
  28   13   14 2
  29   14   15 1
  30   14   35 1
  31   15   17 1
  32   17   36 1
  33   17   37 1
  34   17   38 1
  35   18   26 1
  36   18   25 2
  37   19   22 1
  38   20   39 1
  39   20   40 1
  40   20   41 1
  41   21   42 1
  42   21   43 1
  43   21   44 1
  44   23   24 2
  45   23   45 1
  46   24   25 1
  47   24   27 1
  48   26   46 1
  49   26   47 1
  50   26   48 1
  51   27   49 1
  52   27   50 1
  53   27   51 1

#	End of record

