#	Name: ASD05790016
#	Creating user name:	WinNT
#	Creation time:	15. 06. 2019 21:03

#	Modifying user name:	WinNT
#	Modification time:	15. 06. 2019 21:03

#	Program:	/corina/corina34_cracker 3.40 0067  02.08.2006

@<TRIPOS>MOLECULE
ASD05790016
  45   48    0    0    0
SMALL
NO_CHARGES


@<TRIPOS>ATOM
   1 C1            -0.1753     1.4725    -0.5693 C.2     
   2 C2            -0.1532    -0.0033    -0.5731 C.ar    
   3 C3             0.9000    -0.6889    -1.1883 C.ar    
   4 C4             0.9132    -2.0709    -1.1875 C.ar    
   5 C5            -0.1125    -2.7746    -0.5805 C.ar    
   6 C6            -1.1577    -2.1001     0.0300 C.ar    
   7 C7            -1.1806    -0.7220     0.0423 C.ar    
   8 O8             0.7231     2.0953    -1.1016 O.2     
   9 N9            -1.1942     2.1297     0.0193 N.am    
  10 C10           -1.1619     3.5221     0.1191 C.ar    
  11 C11           -2.3411     4.2523     0.0191 C.ar    
  12 C12           -2.3126     5.6262     0.1167 C.ar    
  13 C13           -1.0978     6.2855     0.3168 C.ar    
  14 C14            0.0846     5.5491     0.4174 C.ar    
  15 C15            0.0486     4.1751     0.3241 C.ar    
  16 O16           -2.1299     8.5736     0.3412 O.3     
  17 C17           -1.0636     7.7587     0.4215 C.2     
  18 N18            0.0118     8.4856     0.6087 N.2     
  19 C19           -0.3496     9.7850     0.6517 C.2     
  20 C20           -1.6948     9.8407     0.4836 C.2     
  21 C21           -2.5431    11.0861     0.4607 C.3     
  22 F22           -2.6393    11.5607    -0.8518 F       
  23 F23           -3.8218    10.7883     0.9438 F       
  24 F24           -1.9556    12.0654     1.2688 F       
  25 C25            0.5587    10.9421     0.8471 C.ar    
  26 C26            1.6703    10.8257     1.6792 C.ar    
  27 C27            2.5117    11.9052     1.8574 C.ar    
  28 C28            2.2532    13.1008     1.2117 C.ar    
  29 C29            1.1512    13.2219     0.3845 C.ar    
  30 C30            0.3063    12.1472     0.1946 C.ar    
  31 F31            1.9008    -0.0021    -1.7816 F       
  32 Cl32          -0.0897    -4.5104    -0.5845 Cl      
  33 H33            1.7249    -2.6026    -1.6615 H       
  34 H34           -1.9548    -2.6559     0.5014 H       
  35 H35           -1.9942    -0.1987     0.5227 H       
  36 H36           -1.9499     1.6354     0.3736 H       
  37 H37           -3.2802     3.7419    -0.1357 H       
  38 H38           -3.2287     6.1928     0.0382 H       
  39 H39            1.0256     6.0560     0.5718 H       
  40 H40            0.9620     3.6048     0.4061 H       
  41 H41            1.8729     9.8928     2.1841 H       
  42 H42            3.3734    11.8162     2.5024 H       
  43 H43            2.9141    13.9431     1.3542 H       
  44 H44            0.9538    14.1578    -0.1169 H       
  45 H45           -0.5511    12.2413    -0.4552 H       
@<TRIPOS>BOND
   1    1    2 1
   2    1    8 2
   3    1    9 am
   4    2    3 ar
   5    2    7 ar
   6    3    4 ar
   7    3   31 1
   8    4    5 ar
   9    4   33 1
  10    5    6 ar
  11    5   32 1
  12    6    7 ar
  13    6   34 1
  14    7   35 1
  15    9   10 1
  16    9   36 1
  17   10   11 ar
  18   10   15 ar
  19   11   12 ar
  20   11   37 1
  21   12   13 ar
  22   12   38 1
  23   13   14 ar
  24   13   17 1
  25   14   15 ar
  26   14   39 1
  27   15   40 1
  28   16   17 1
  29   16   20 1
  30   17   18 2
  31   18   19 1
  32   19   20 2
  33   19   25 1
  34   20   21 1
  35   21   22 1
  36   21   23 1
  37   21   24 1
  38   25   26 ar
  39   25   30 ar
  40   26   27 ar
  41   26   41 1
  42   27   28 ar
  43   27   42 1
  44   28   29 ar
  45   28   43 1
  46   29   30 ar
  47   29   44 1
  48   30   45 1

#	End of record

