#	Name: ASD04591122
#	Creating user name:	WinNT
#	Creation time:	15. 06. 2019 20:52

#	Modifying user name:	WinNT
#	Modification time:	15. 06. 2019 20:52

#	Program:	/corina/corina34_cracker 3.40 0067  02.08.2006

@<TRIPOS>MOLECULE
ASD04591122
  66   71    0    0    0
SMALL
NO_CHARGES


@<TRIPOS>ATOM
   1 N1            -2.2078    -2.4453     1.1717 N.ar    
   2 C2            -1.1251    -1.9416     0.5928 C.ar    
   3 N3             0.0247    -2.5956     0.5530 N.ar    
   4 C4             0.1370    -3.8015     1.1019 C.ar    
   5 C5            -0.9953    -4.3639     1.7250 C.ar    
   6 C6            -2.1826    -3.6388     1.7415 C.ar    
   7 N7             1.1779    -4.6901     1.2099 N.pl3   
   8 C8             0.7739    -5.8282     1.8863 C.ar    
   9 C9            -0.5807    -5.6779     2.2331 C.ar    
  10 C10            1.4248    -6.9993     2.2519 C.ar    
  11 N11            0.7843    -7.9453     2.9081 N.ar    
  12 C12           -0.4876    -7.8353     3.2487 C.ar    
  13 C13           -1.2136    -6.7079     2.9280 C.ar    
  14 N14           -1.2012    -0.6884     0.0098 N.pl3   
  15 C15           -2.4332    -0.0253    -0.0676 C.ar    
  16 C16            2.5263    -4.4656     0.6830 C.3     
  17 C17           -2.4958     1.3547     0.0483 C.ar    
  18 N18           -3.6524     1.9862    -0.0236 N.ar    
  19 C19           -4.7898     1.3352    -0.2074 C.ar    
  20 C20           -4.8041    -0.0501    -0.3323 C.ar    
  21 C21           -3.6105    -0.7449    -0.2679 C.ar    
  22 N22           -5.9860     2.0451    -0.2762 N.3     
  23 C23           -5.7522     3.4865    -0.1216 C.3     
  24 C24           -7.0947     4.2183    -0.0564 C.3     
  25 C25           -7.8824     3.9449    -1.3406 C.3     
  26 C26           -8.0703     2.4340    -1.5029 C.3     
  27 C27           -6.6996     1.7540    -1.5262 C.3     
  28 C28            2.4622    -4.1929    -0.8340 C.3     
  29 C29            3.1429    -3.2127     1.3292 C.3     
  30 C30            3.4320    -2.2222     0.1824 C.3     
  31 C31            2.4556    -2.6478    -0.9422 C.3     
  32 N32           -9.1962     4.5971    -1.2589 N.3     
  33 C33           -9.9335     4.4557    -2.5216 C.3     
  34 C34           -9.9766     4.0696    -0.1317 C.3     
  35 H35           -3.0672    -4.0426     2.2115 H       
  36 H36            2.4651    -7.1358     1.9958 H       
  37 H37           -0.9659    -8.6407     3.7862 H       
  38 H38           -2.2528    -6.6241     3.2097 H       
  39 H39           -0.4017    -0.2692    -0.3451 H       
  40 H40            3.1536    -5.3348     0.8806 H       
  41 H41           -1.5877     1.9195     0.1995 H       
  42 H42           -5.7354    -0.5760    -0.4822 H       
  43 H43           -3.5914    -1.8207    -0.3620 H       
  44 H44           -5.1949     3.6675     0.7975 H       
  45 H45           -5.1788     3.8548    -0.9723 H       
  46 H46           -7.6629     3.8604     0.8022 H       
  47 H47           -6.9207     5.2898     0.0427 H       
  48 H48           -7.3324     4.3375    -2.1959 H       
  49 H49           -8.6539     2.0480    -0.6671 H       
  50 H50           -8.5934     2.2306    -2.4373 H       
  51 H51           -6.1217     2.1303    -2.3703 H       
  52 H52           -6.8303     0.6766    -1.6273 H       
  53 H53            3.3384    -4.6065    -1.3333 H       
  54 H54            1.5483    -4.6088    -1.2582 H       
  55 H55            2.4389    -2.7716     2.0349 H       
  56 H56            4.0699    -3.4737     1.8398 H       
  57 H57            3.2259    -1.2001     0.5000 H       
  58 H58            4.4648    -2.3176    -0.1528 H       
  59 H59            2.8250    -2.3271    -1.9163 H       
  60 H60            1.4571    -2.2518    -0.7571 H       
  61 H61          -10.0813     3.3980    -2.7396 H       
  62 H62          -10.9023     4.9474    -2.4336 H       
  63 H63           -9.3640     4.9168    -3.3285 H       
  64 H64           -9.4384     4.2501     0.7988 H       
  65 H65          -10.9445     4.5695    -0.0944 H       
  66 H66          -10.1259     2.9979    -0.2631 H       
@<TRIPOS>BOND
   1    1    2 ar
   2    1    6 ar
   3    2    3 ar
   4    2   14 1
   5    3    4 ar
   6    4    5 ar
   7    4    7 1
   8    5    6 ar
   9    5    9 1
  10    6   35 1
  11    7    8 1
  12    7   16 1
  13    8    9 ar
  14    8   10 ar
  15    9   13 ar
  16   10   11 ar
  17   10   36 1
  18   11   12 ar
  19   12   13 ar
  20   12   37 1
  21   13   38 1
  22   14   15 1
  23   14   39 1
  24   15   17 ar
  25   15   21 ar
  26   16   29 1
  27   16   28 1
  28   16   40 1
  29   17   18 ar
  30   17   41 1
  31   18   19 ar
  32   19   20 ar
  33   19   22 1
  34   20   21 ar
  35   20   42 1
  36   21   43 1
  37   22   23 1
  38   22   27 1
  39   23   24 1
  40   23   44 1
  41   23   45 1
  42   24   25 1
  43   24   46 1
  44   24   47 1
  45   25   26 1
  46   25   32 1
  47   25   48 1
  48   26   27 1
  49   26   49 1
  50   26   50 1
  51   27   51 1
  52   27   52 1
  53   28   31 1
  54   28   53 1
  55   28   54 1
  56   29   30 1
  57   29   55 1
  58   29   56 1
  59   30   31 1
  60   30   57 1
  61   30   58 1
  62   31   59 1
  63   31   60 1
  64   32   33 1
  65   32   34 1
  66   33   61 1
  67   33   62 1
  68   33   63 1
  69   34   64 1
  70   34   65 1
  71   34   66 1

#	End of record

