#	Name: ASD07301003
#	Creating user name:	WinNT
#	Creation time:	15. 06. 2019 21:10

#	Modifying user name:	WinNT
#	Modification time:	15. 06. 2019 21:10

#	Program:	/corina/corina34_cracker 3.40 0067  02.08.2006

@<TRIPOS>MOLECULE
ASD07301003
  27   27    0    0    0
SMALL
NO_CHARGES


@<TRIPOS>ATOM
   1 C1            -0.0092     1.5032     0.1334 C.3     
   2 C2             0.0094    -0.0036     0.1188 C.2     
   3 C3             1.2796    -0.7185    -0.0132 C.2     
   4 C4             1.2977    -2.1819    -0.0274 C.2     
   5 C5             1.2889    -2.9228    -1.3396 C.3     
   6 O6            -1.0289    -0.6242     0.2164 O.2     
   7 O7             1.3197    -2.7986     1.0176 O.2     
   8 N8             2.4123    -0.0415    -0.1198 N.2     
   9 N9             3.5397    -0.6683    -0.1320 N.pl3   
  10 C10            4.7364     0.0487    -0.1377 C.ar    
  11 C11            5.9546    -0.6259    -0.1508 C.ar    
  12 C12            7.1377     0.0894    -0.1570 C.ar    
  13 C13            7.1113     1.4722    -0.1501 C.ar    
  14 C14            5.9030     2.1446    -0.1370 C.ar    
  15 C15            4.7163     1.4380    -0.1361 C.ar    
  16 F16            5.9802    -1.9766    -0.1571 F       
  17 H17            1.0089     1.8801     0.0356 H       
  18 H18           -0.6127     1.8672    -0.6981 H       
  19 H19           -0.4371     1.8522     1.0731 H       
  20 H20            2.1180    -2.5777    -1.9573 H       
  21 H21            1.3945    -3.9917    -1.1540 H       
  22 H22            0.3479    -2.7351    -1.8567 H       
  23 H23            3.5553    -1.6381    -0.1371 H       
  24 H24            8.0834    -0.4321    -0.1668 H       
  25 H25            8.0371     2.0284    -0.1545 H       
  26 H26            5.8872     3.2245    -0.1313 H       
  27 H27            3.7735     1.9648    -0.1304 H       
@<TRIPOS>BOND
   1    1    2 1
   2    1   17 1
   3    1   18 1
   4    1   19 1
   5    2    3 1
   6    2    6 2
   7    3    4 1
   8    3    8 2
   9    4    5 1
  10    4    7 2
  11    5   20 1
  12    5   21 1
  13    5   22 1
  14    8    9 1
  15    9   10 1
  16    9   23 1
  17   10   11 ar
  18   10   15 ar
  19   11   12 ar
  20   11   16 1
  21   12   13 ar
  22   12   24 1
  23   13   14 ar
  24   13   25 1
  25   14   15 ar
  26   14   26 1
  27   15   27 1

#	End of record

