#	Name: ASD01148195
#	Creating user name:	WinNT
#	Creation time:	15. 06. 2019 19:02

#	Modifying user name:	WinNT
#	Modification time:	15. 06. 2019 19:02

#	Program:	/corina/corina34_cracker 3.40 0067  02.08.2006

@<TRIPOS>MOLECULE
ASD01148195
  55   58    0    0    0
SMALL
NO_CHARGES


@<TRIPOS>ATOM
   1 C1             0.0849     2.6501     0.7023 C.ar    
   2 C2            -0.3631     1.3430     0.7619 C.ar    
   3 C3             0.5237     0.2982     0.5621 C.ar    
   4 C4             1.8562     0.5631     0.3031 C.ar    
   5 C5             2.3022     1.8703     0.2438 C.ar    
   6 C6             1.4172     2.9131     0.4433 C.ar    
   7 C7             3.7542     2.1585    -0.0384 C.3     
   8 O8             4.3252     1.1456    -0.8913 O.3     
   9 C9             3.9077     3.4277    -0.9102 C.3     
  10 C10            3.9677     2.8575    -2.3146 C.2     
  11 N11            4.1978     1.5903    -2.2274 N.2     
  12 C12            3.7931     3.6206    -3.5660 C.ar    
  13 C13            3.8730     2.9683    -4.7990 C.ar    
  14 C14            3.5421     4.9943    -3.5173 C.ar    
  15 C15            3.3787     5.7059    -4.6842 C.ar    
  16 C16            3.4639     5.0545    -5.9174 C.ar    
  17 C17            3.7097     3.6798    -5.9659 C.ar    
  18 C18            3.2887     5.8180    -7.1697 C.2     
  19 O19            2.2662     6.4464    -7.3601 O.2     
  20 N20            4.2629     5.8178    -8.1010 N.am    
  21 C21            4.5470     2.2886     1.2638 C.3     
  22 F22            4.4440     1.0992     1.9931 F       
  23 F23            5.8912     2.5396     0.9683 F       
  24 F24            4.0305     3.3458     2.0205 F       
  25 Cl25          -0.0368    -1.3431     0.6371 Cl      
  26 Cl26          -2.0358     1.0121     1.0876 Cl      
  27 C27            4.0363     6.4599    -9.3982 C.3     
  28 C28            4.4557     7.9054    -9.3233 C.ar    
  29 N29            3.6082     8.8071    -8.8679 N.ar    
  30 C30            5.4456     5.2270    -7.8390 C.2     
  31 C31            3.9314    10.0830    -8.7845 C.ar    
  32 C32            5.1817    10.5224    -9.1759 C.ar    
  33 C33            6.1001     9.6032    -9.6602 C.ar    
  34 C34            5.7263     8.2699    -9.7275 C.ar    
  35 O35            5.6734     4.7900    -6.7288 O.2     
  36 O36            6.3742     5.1211    -8.8076 O.3     
  37 C37            7.6245     4.4731    -8.4540 C.3     
  38 H38           -0.6070     3.4655     0.8537 H       
  39 H39            2.5483    -0.2512     0.1475 H       
  40 H40            1.7666     3.9340     0.3968 H       
  41 H41            3.0443     4.0829    -0.7952 H       
  42 H42            4.8301     3.9550    -0.6670 H       
  43 H43            4.0632     1.9058    -4.8365 H       
  44 H44            3.4759     5.4977    -2.5641 H       
  45 H45            3.1844     6.7676    -4.6465 H       
  46 H46            3.7755     3.1763    -6.9191 H       
  47 H47            4.6226     5.9506   -10.1630 H       
  48 H48            2.9780     6.4013    -9.6527 H       
  49 H49            3.2105    10.7926    -8.4062 H       
  50 H50            5.4402    11.5687    -9.1059 H       
  51 H51            7.0845     9.9179    -9.9738 H       
  52 H52            6.4162     7.5267   -10.0991 H       
  53 H53            8.2823     4.4539    -9.3230 H       
  54 H54            8.1049     5.0262    -7.6469 H       
  55 H55            7.4251     3.4527    -8.1267 H       
@<TRIPOS>BOND
   1    1    2 ar
   2    1    6 ar
   3    1   38 1
   4    2    3 ar
   5    2   26 1
   6    3    4 ar
   7    3   25 1
   8    4    5 ar
   9    4   39 1
  10    5    6 ar
  11    5    7 1
  12    6   40 1
  13    7    8 1
  14    7    9 1
  15    7   21 1
  16    8   11 1
  17    9   10 1
  18    9   41 1
  19    9   42 1
  20   10   11 2
  21   10   12 1
  22   12   13 ar
  23   12   14 ar
  24   13   17 ar
  25   13   43 1
  26   14   15 ar
  27   14   44 1
  28   15   16 ar
  29   15   45 1
  30   16   17 ar
  31   16   18 1
  32   17   46 1
  33   18   19 2
  34   18   20 am
  35   20   27 1
  36   20   30 am
  37   21   22 1
  38   21   23 1
  39   21   24 1
  40   27   28 1
  41   27   47 1
  42   27   48 1
  43   28   29 ar
  44   28   34 ar
  45   29   31 ar
  46   30   35 2
  47   30   36 1
  48   31   32 ar
  49   31   49 1
  50   32   33 ar
  51   32   50 1
  52   33   34 ar
  53   33   51 1
  54   34   52 1
  55   36   37 1
  56   37   53 1
  57   37   54 1
  58   37   55 1

#	End of record

