#	Name: ASD03180055
#	Creating user name:	WinNT
#	Creation time:	15. 06. 2019 20:33

#	Modifying user name:	WinNT
#	Modification time:	15. 06. 2019 20:33

#	Program:	/corina/corina34_cracker 3.40 0067  02.08.2006

@<TRIPOS>MOLECULE
ASD03180055
  35   37    0    0    0
SMALL
NO_CHARGES


@<TRIPOS>ATOM
   1 C1             0.4074     1.0203    -1.5066 C.ar    
   2 C2             0.0934    -0.0508    -0.6874 C.ar    
   3 C3             0.9377    -0.4002     0.3534 C.ar    
   4 C4             2.0950     0.3194     0.5762 C.ar    
   5 C5             2.4121     1.3944    -0.2444 C.ar    
   6 C6             1.5641     1.7429    -1.2874 C.ar    
   7 N7             3.5837     2.1251    -0.0202 N.pl3   
   8 C8             3.0131    -0.0610     1.7092 C.3     
   9 F9            -1.0386    -0.7559    -0.9034 F       
  10 N10            4.6100     4.2760    -0.0412 N.2     
  11 C11            4.4013     5.5871    -0.1572 C.2     
  12 C12            3.5675     3.5077    -0.1173 C.2     
  13 S13            2.1288     4.4926    -0.3628 S.3     
  14 C14            3.1184     5.9501    -0.3407 C.2     
  15 C15            5.5015     6.5734    -0.0885 C.2     
  16 S16            5.3382     8.3223    -0.2276 S.3     
  17 C17            7.0264     8.5057    -0.0311 C.2     
  18 N18            7.5894     7.3539     0.1169 N.2     
  19 C19            6.8094     6.2946     0.0978 C.2     
  20 C20            7.7542     9.8253    -0.0316 C.3     
  21 C21            7.3313     4.8908     0.2650 C.3     
  22 H22           -0.2502     1.2882    -2.3203 H       
  23 H23            0.6906    -1.2358     0.9913 H       
  24 H24            1.8086     2.5784    -1.9266 H       
  25 H25            4.4075     1.6642     0.2031 H       
  26 H26            3.7477    -0.7838     1.3544 H       
  27 H27            3.5259     0.8284     2.0755 H       
  28 H28            2.4296    -0.5026     2.5170 H       
  29 H29            2.7574     6.9616    -0.4551 H       
  30 H30            7.8036    10.2132     0.9858 H       
  31 H31            8.7643     9.6830    -0.4157 H       
  32 H32            7.2210    10.5340    -0.6652 H       
  33 H33            7.5864     4.4793    -0.7116 H       
  34 H34            8.2199     4.9062     0.8961 H       
  35 H35            6.5651     4.2714     0.7313 H       
@<TRIPOS>BOND
   1    1    2 ar
   2    1    6 ar
   3    1   22 1
   4    2    3 ar
   5    2    9 1
   6    3    4 ar
   7    3   23 1
   8    4    5 ar
   9    4    8 1
  10    5    6 ar
  11    5    7 1
  12    6   24 1
  13    7   12 1
  14    7   25 1
  15    8   26 1
  16    8   27 1
  17    8   28 1
  18   10   12 2
  19   10   11 1
  20   11   14 2
  21   11   15 1
  22   12   13 1
  23   13   14 1
  24   14   29 1
  25   15   16 1
  26   15   19 2
  27   16   17 1
  28   17   18 2
  29   17   20 1
  30   18   19 1
  31   19   21 1
  32   20   30 1
  33   20   31 1
  34   20   32 1
  35   21   33 1
  36   21   34 1
  37   21   35 1

#	End of record

