#	Name: ASD02500160
#	Creating user name:	WinNT
#	Creation time:	15. 06. 2019 20:22

#	Modifying user name:	WinNT
#	Modification time:	15. 06. 2019 20:22

#	Program:	/corina/corina34_cracker 3.40 0067  02.08.2006

@<TRIPOS>MOLECULE
ASD02500160
  66   70    0    0    0
SMALL
NO_CHARGES


@<TRIPOS>ATOM
   1 N1             1.4894     0.8788     0.4908 N.am    
   2 C2             1.6433    -0.5819     0.4145 C.3     
   3 C3             2.4943    -0.9182    -0.8147 C.3     
   4 N4             3.7531    -0.1632    -0.7562 N.3     
   5 C5             3.5094     1.2844    -0.8125 C.3     
   6 C6             2.6999     1.7109     0.4167 C.3     
   7 C7             0.2709     1.4402     0.6195 C.2     
   8 S8            -1.1327     0.4615     0.5647 S.2     
   9 N9             0.1574     2.7722     0.7913 N.am    
  10 C10            4.6698    -0.5846    -1.8239 C.3     
  11 C11            5.8367     0.3668    -1.8887 C.ar    
  12 C12            6.9699     0.1211    -1.1351 C.ar    
  13 C13            8.0410     0.9909    -1.1921 C.ar    
  14 C14            7.9792     2.1138    -2.0076 C.ar    
  15 C15            6.8394     2.3576    -2.7633 C.ar    
  16 C16            5.7741     1.4806    -2.7059 C.ar    
  17 S17            9.6117     3.5321    -3.5340 S.o2    
  18 O18            8.4822     4.0534    -4.2208 O.2     
  19 O19           10.7805     4.2955    -3.2687 O.2     
  20 N20            9.0606     2.9958    -2.0673 N.am    
  21 N21           11.9165     1.7120    -2.9024 N.ar    
  22 C22           12.9496     1.0181    -2.4907 C.ar    
  23 C23           13.3990    -0.1066    -3.1795 C.ar    
  24 C24           12.7580    -0.5116    -4.3154 C.ar    
  25 C25           11.6486     0.2358    -4.7543 C.ar    
  26 C26           10.9401    -0.1193    -5.9131 C.ar    
  27 C27            9.8724     0.6296    -6.3050 C.ar    
  28 C28            9.4727     1.7439    -5.5705 C.ar    
  29 C29           10.1372     2.1171    -4.4428 C.ar    
  30 C30           11.2447     1.3696    -4.0063 C.ar    
  31 C31            0.3795     3.3365     2.0526 C.ar    
  32 C32            0.3677     4.7175     2.2097 C.ar    
  33 C33            0.5869     5.2710     3.4567 C.ar    
  34 C34            0.8182     4.4521     4.5471 C.ar    
  35 C35            0.8309     3.0782     4.3935 C.ar    
  36 C36            0.6063     2.5181     3.1507 C.ar    
  37 C37            1.0839     2.1902     5.5845 C.3     
  38 F38            1.2757     2.9804     6.7229 F       
  39 F39           -0.0164     1.3488     5.7809 F       
  40 F40            2.2271     1.4172     5.3553 F       
  41 Cl41           0.0785     5.7456     0.8411 Cl      
  42 H42            2.1399    -0.9453     1.3142 H       
  43 H43            0.6630    -1.0489     0.3200 H       
  44 H44            2.7111    -1.9864    -0.8259 H       
  45 H45            1.9496    -0.6477    -1.7193 H       
  46 H46            4.4622     1.8135    -0.8221 H       
  47 H47            2.9505     1.5242    -1.7171 H       
  48 H48            2.4182     2.7597     0.3237 H       
  49 H49            3.2981     1.5679     1.3166 H       
  50 H50           -0.0783     3.3397     0.0408 H       
  51 H51            5.0327    -1.5910    -1.6150 H       
  52 H52            4.1431    -0.5791    -2.7782 H       
  53 H53            7.0171    -0.7519    -0.5010 H       
  54 H54            8.9256     0.7986    -0.6031 H       
  55 H55            6.7882     3.2297    -3.3984 H       
  56 H56            4.8895     1.6671    -3.2967 H       
  57 H57            9.4887     3.2943    -1.2497 H       
  58 H58           13.4663     1.3266    -1.5939 H       
  59 H59           14.2538    -0.6574    -2.8156 H       
  60 H60           13.0931    -1.3807    -4.8619 H       
  61 H61           11.2403    -0.9811    -6.4906 H       
  62 H62            9.3279     0.3558    -7.1966 H       
  63 H63            8.6230     2.3221    -5.9024 H       
  64 H64            0.5779     6.3439     3.5800 H       
  65 H65            0.9896     4.8870     5.5207 H       
  66 H66            0.6117     1.4445     3.0327 H       
@<TRIPOS>BOND
   1    1    2 1
   2    1    6 1
   3    1    7 am
   4    2    3 1
   5    2   42 1
   6    2   43 1
   7    3    4 1
   8    3   44 1
   9    3   45 1
  10    4    5 1
  11    4   10 1
  12    5    6 1
  13    5   46 1
  14    5   47 1
  15    6   48 1
  16    6   49 1
  17    7    8 2
  18    7    9 am
  19    9   31 1
  20    9   50 1
  21   10   11 1
  22   10   51 1
  23   10   52 1
  24   11   12 ar
  25   11   16 ar
  26   12   13 ar
  27   12   53 1
  28   13   14 ar
  29   13   54 1
  30   14   15 ar
  31   14   20 1
  32   15   16 ar
  33   15   55 1
  34   16   56 1
  35   17   18 2
  36   17   19 2
  37   17   20 am
  38   17   29 1
  39   20   57 1
  40   21   22 ar
  41   21   30 ar
  42   22   23 ar
  43   22   58 1
  44   23   24 ar
  45   23   59 1
  46   24   25 ar
  47   24   60 1
  48   25   26 ar
  49   25   30 ar
  50   26   27 ar
  51   26   61 1
  52   27   28 ar
  53   27   62 1
  54   28   29 ar
  55   28   63 1
  56   29   30 ar
  57   31   32 ar
  58   31   36 ar
  59   32   33 ar
  60   32   41 1
  61   33   34 ar
  62   33   64 1
  63   34   35 ar
  64   34   65 1
  65   35   36 ar
  66   35   37 1
  67   36   66 1
  68   37   38 1
  69   37   39 1
  70   37   40 1

#	End of record

