#	Name: ASD01881351
#	Creating user name:	WinNT
#	Creation time:	15. 06. 2019 19:42

#	Modifying user name:	WinNT
#	Modification time:	15. 06. 2019 19:42

#	Program:	/corina/corina34_cracker 3.40 0067  02.08.2006

@<TRIPOS>MOLECULE
ASD01881351
  57   58    0    0    0
SMALL
NO_CHARGES


@<TRIPOS>ATOM
   1 C1            -0.0179     1.4705     0.0101 C.2     
   2 C2             0.0021    -0.0041     0.0020 C.ar    
   3 C3             1.2212    -0.6885    -0.0133 C.ar    
   4 C4             1.2351    -2.0659    -0.0203 C.ar    
   5 C5             0.0383    -2.7753    -0.0127 C.ar    
   6 C6            -1.1750    -2.0982     0.0020 C.ar    
   7 C7            -1.1975    -0.7212     0.0155 C.ar    
   8 O8             1.0260     2.0923     0.0035 O.2     
   9 O9            -1.1939     2.1283     0.0193 O.3     
  10 O10            0.0558    -4.1324    -0.0201 O.3     
  11 C11           -1.2089    -4.7976    -0.0116 C.3     
  12 C12           -0.9888    -6.3117    -0.0218 C.3     
  13 C13           -2.3429    -7.0239    -0.0127 C.3     
  14 C14           -2.1228    -8.5380    -0.0229 C.3     
  15 O15           -3.3875    -9.2032    -0.0144 O.3     
  16 C16           -3.3700   -10.5598    -0.0218 C.ar    
  17 C17           -4.5648   -11.2657    -0.0142 C.ar    
  18 C18           -4.5493   -12.6495    -0.0217 C.ar    
  19 C19           -3.3184   -13.3305    -0.0371 C.ar    
  20 C20           -2.1220   -12.6009    -0.0447 C.ar    
  21 C21           -2.1534   -11.2367    -0.0428 C.ar    
  22 C22           -3.2875   -14.7951    -0.0448 C.2     
  23 C23           -1.9669   -15.5208    -0.0613 C.3     
  24 C24           -2.2146   -17.0306    -0.0665 C.3     
  25 C25           -0.8805   -17.7659    -0.2089 C.3     
  26 O26           -4.3252   -15.4238    -0.0378 O.2     
  27 C27           -2.8861   -17.4417     1.2454 C.3     
  28 C28           -5.8777   -10.5262     0.0028 C.3     
  29 O29           -5.7135   -13.3447    -0.0139 O.3     
  30 Cl30           2.7477    -2.9176    -0.0394 Cl      
  31 H31            2.1504    -0.1381    -0.0199 H       
  32 H32           -2.1018    -2.6526     0.0072 H       
  33 H33           -2.1411    -0.1960     0.0315 H       
  34 H34           -1.1564     3.0945     0.0244 H       
  35 H35           -1.7611    -4.5168     0.8852 H       
  36 H36           -1.7781    -4.5073    -0.8947 H       
  37 H37           -0.4366    -6.5925    -0.9186 H       
  38 H38           -0.4196    -6.6021     0.8612 H       
  39 H39           -2.8951    -6.7431     0.8841 H       
  40 H40           -2.9121    -6.7336    -0.8957 H       
  41 H41           -1.5706    -8.8188    -0.9197 H       
  42 H42           -1.5536    -8.8284     0.8601 H       
  43 H43           -1.1743   -13.1187    -0.0565 H       
  44 H44           -1.2288   -10.6785    -0.0534 H       
  45 H45           -1.4097   -15.2410    -0.9554 H       
  46 H46           -1.3923   -15.2500     0.8245 H       
  47 H47           -2.8633   -17.2895    -0.9033 H       
  48 H48           -0.2318   -17.5070     0.6280 H       
  49 H49           -1.0570   -18.8415    -0.2126 H       
  50 H50           -0.4022   -17.4730    -1.1435 H       
  51 H51           -3.8365   -16.9179     1.3469 H       
  52 H52           -3.0626   -18.5174     1.2418 H       
  53 H53           -2.2374   -17.1829     2.0823 H       
  54 H54           -6.2043   -10.3421    -1.0207 H       
  55 H55           -6.6260   -11.1263     0.5206 H       
  56 H56           -5.7525    -9.5754     0.5209 H       
  57 H57           -6.0600   -13.5416    -0.8949 H       
@<TRIPOS>BOND
   1    1    2 1
   2    1    8 2
   3    1    9 1
   4    2    3 ar
   5    2    7 ar
   6    3    4 ar
   7    3   31 1
   8    4    5 ar
   9    4   30 1
  10    5    6 ar
  11    5   10 1
  12    6    7 ar
  13    6   32 1
  14    7   33 1
  15    9   34 1
  16   10   11 1
  17   11   12 1
  18   11   35 1
  19   11   36 1
  20   12   13 1
  21   12   37 1
  22   12   38 1
  23   13   14 1
  24   13   39 1
  25   13   40 1
  26   14   15 1
  27   14   41 1
  28   14   42 1
  29   15   16 1
  30   16   17 ar
  31   16   21 ar
  32   17   18 ar
  33   17   28 1
  34   18   19 ar
  35   18   29 1
  36   19   20 ar
  37   19   22 1
  38   20   21 ar
  39   20   43 1
  40   21   44 1
  41   22   23 1
  42   22   26 2
  43   23   24 1
  44   23   45 1
  45   23   46 1
  46   24   25 1
  47   24   27 1
  48   24   47 1
  49   25   48 1
  50   25   49 1
  51   25   50 1
  52   27   51 1
  53   27   52 1
  54   27   53 1
  55   28   54 1
  56   28   55 1
  57   28   56 1
  58   29   57 1

#	End of record

