#	Name: ASD07932075
#	Creating user name:	WinNT
#	Creation time:	15. 06. 2019 21:14

#	Modifying user name:	WinNT
#	Modification time:	15. 06. 2019 21:14

#	Program:	/corina/corina34_cracker 3.40 0067  02.08.2006

@<TRIPOS>MOLECULE
ASD07932075
  48   50    0    0    0
SMALL
NO_CHARGES


@<TRIPOS>ATOM
   1 N1            -0.0142     1.4462     0.0288 N.pl3   
   2 C2             0.0009    -0.0204     0.0211 C.3     
   3 C3             0.7670    -0.5250     1.2518 C.3     
   4 S4             2.4325     0.2099     1.2287 S.o2    
   5 N5             2.1159     1.8289     0.9938 N.am    
   6 C6             1.1750     2.1461     0.0245 C.2     
   7 N7             1.4069     3.0741    -0.8610 N.2     
   8 O8             3.0300     0.1456     2.5163 O.2     
   9 O9             3.1432    -0.1880     0.0643 O.2     
  10 C10           -1.4136    -0.5385     0.0616 C.ar    
  11 C11            0.6919    -0.5176    -1.2502 C.3     
  12 C12           -2.4675     0.3430     0.1997 C.ar    
  13 C13           -3.7711    -0.1351     0.2370 C.ar    
  14 C14           -4.0115    -1.4988     0.1353 C.ar    
  15 C15           -2.9543    -2.3771    -0.0027 C.ar    
  16 C16           -1.6560    -1.8979    -0.0453 C.ar    
  17 N17           -4.8406     0.7565     0.3773 N.am    
  18 C18           -6.0109     0.5079    -0.2432 C.2     
  19 O19           -6.1081    -0.4371    -1.0017 O.2     
  20 C20           -7.1768     1.3847    -0.0014 C.ar    
  21 N21           -7.0710     2.4203     0.8295 N.ar    
  22 F22           -0.6234    -2.7586    -0.1803 F       
  23 C23           -8.1088     3.1999     1.0441 C.ar    
  24 C24           -9.3211     2.9422     0.4019 C.ar    
  25 N25           -9.4285     1.9114    -0.4254 N.ar    
  26 C26           -8.3864     1.1314    -0.6475 C.ar    
  27 C27            2.7974     2.8662     1.7722 C.3     
  28 H28            3.7101     3.1661     1.2573 H       
  29 H29            2.1408     3.7295     1.8804 H       
  30 H30            3.0483     2.4747     2.7580 H       
  31 O31          -10.3890     3.7458     0.6243 O.3     
  32 C32          -11.5981     3.4238    -0.0659 C.3     
  33 H33           -0.8587     1.9233     0.0329 H       
  34 H34            0.2446    -0.2227     2.1593 H       
  35 H35            0.8444    -1.6117     1.2164 H       
  36 H36            2.2487     3.5559    -0.8494 H       
  37 H37            1.7155    -0.1438    -1.2772 H       
  38 H38            0.7028    -1.6075    -1.2553 H       
  39 H39            0.1497    -0.1556    -2.1237 H       
  40 H40           -2.2783     1.4033     0.2790 H       
  41 H41           -5.0243    -1.8726     0.1644 H       
  42 H42           -3.1409    -3.4379    -0.0815 H       
  43 H43           -4.7397     1.5533     0.9211 H       
  44 H44           -8.0228     4.0395     1.7179 H       
  45 H45           -8.4737     0.2918    -1.3212 H       
  46 H46          -11.4233     3.4599    -1.1412 H       
  47 H47          -11.9217     2.4219     0.2161 H       
  48 H48          -12.3716     4.1439     0.2009 H       
@<TRIPOS>BOND
   1    1    2 1
   2    1    6 1
   3    1   33 1
   4    2    3 1
   5    2   10 1
   6    2   11 1
   7    3    4 1
   8    3   34 1
   9    3   35 1
  10    4    5 am
  11    4    8 2
  12    4    9 2
  13    5    6 1
  14    5   27 1
  15    6    7 2
  16    7   36 1
  17   10   12 ar
  18   10   16 ar
  19   11   37 1
  20   11   38 1
  21   11   39 1
  22   12   13 ar
  23   12   40 1
  24   13   14 ar
  25   13   17 1
  26   14   15 ar
  27   14   41 1
  28   15   16 ar
  29   15   42 1
  30   16   22 1
  31   17   18 am
  32   17   43 1
  33   18   19 2
  34   18   20 1
  35   20   21 ar
  36   20   26 ar
  37   21   23 ar
  38   23   24 ar
  39   23   44 1
  40   24   25 ar
  41   24   31 1
  42   25   26 ar
  43   26   45 1
  44   27   28 1
  45   27   29 1
  46   27   30 1
  47   31   32 1
  48   32   46 1
  49   32   47 1
  50   32   48 1

#	End of record

