#	Name: ASD09080149
#	Creating user name:	WinNT
#	Creation time:	15. 06. 2019 21:20

#	Modifying user name:	WinNT
#	Modification time:	15. 06. 2019 21:20

#	Program:	/corina/corina34_cracker 3.40 0067  02.08.2006

@<TRIPOS>MOLECULE
ASD09080149
  62   65    0    0    0
SMALL
NO_CHARGES


@<TRIPOS>ATOM
   1 C1             1.1596     0.1117    -0.8310 C.3     
   2 C2             0.5275   -10.2457    -3.0080 C.ar    
   3 C3             1.2714   -10.3905    -4.1662 C.ar    
   4 C4             1.5171    -9.2965    -4.9777 C.ar    
   5 C5             1.0196    -8.0540    -4.6353 C.ar    
   6 C6             0.2703    -7.9031    -3.4704 C.ar    
   7 C7             0.0213    -9.0084    -2.6596 C.ar    
   8 Cl8            0.2241   -11.6226    -1.9951 Cl      
   9 Cl9            2.4520    -9.4859    -6.4281 Cl      
  10 C10           -0.2655    -6.5705    -3.0974 C.ar    
  11 C11           -1.0149    -6.4193    -1.9326 C.ar    
  12 C12           -1.5108    -5.1775    -1.5904 C.ar    
  13 C13           -1.2643    -4.0842    -2.4011 C.ar    
  14 C14           -0.5209    -4.2286    -3.5586 C.ar    
  15 C15           -0.0161    -5.4648    -3.9078 C.ar    
  16 C16           -1.8080    -2.7308    -2.0220 C.3     
  17 C17           -0.7856    -1.9956    -1.1530 C.3     
  18 N18           -0.6144    -2.7150     0.1163 N.3     
  19 C19           -1.2823    -0.5761    -0.8716 C.3     
  20 C20           -0.2071     0.1983    -0.1068 C.3     
  21 O21            0.0897    -0.4396     1.1586 O.3     
  22 C22            1.4376    -0.0433     1.4629 C.3     
  23 O23            2.1083     0.2893     0.2402 O.3     
  24 C24            1.4188     1.1760     2.3870 C.3     
  25 C25            2.1690    -1.1963     2.1532 C.3     
  26 O26           -1.5576     0.0860    -2.1077 O.3     
  27 C27           -2.8464     1.6524    -3.3862 C.ar    
  28 C28           -3.8256     1.0781    -4.1750 C.ar    
  29 C29           -4.0898     1.5905    -5.4313 C.ar    
  30 C30           -3.3751     2.6775    -5.8987 C.ar    
  31 C31           -2.3965     3.2524    -5.1096 C.ar    
  32 C32           -2.1313     2.7391    -3.8538 C.ar    
  33 C33           -2.5626     1.0976    -2.0140 C.3     
  34 H34            1.2860    -0.8642    -1.2997 H       
  35 H35            1.2565     0.9094    -1.5675 H       
  36 H36            1.6617   -11.3603    -4.4375 H       
  37 H37            1.2122    -7.2009    -5.2689 H       
  38 H38           -0.5593    -8.8965    -1.7559 H       
  39 H39           -1.2080    -7.2723    -1.2989 H       
  40 H40           -2.0921    -5.0592    -0.6879 H       
  41 H41           -0.3320    -3.3718    -4.1883 H       
  42 H42            0.5642    -5.5765    -4.8118 H       
  43 H43           -2.0014    -2.1511    -2.9246 H       
  44 H44           -2.7362    -2.8553    -1.4643 H       
  45 H45            0.1695    -1.9493    -1.6761 H       
  46 H46            0.1563    -2.3357     0.6458 H       
  47 H47           -1.4660    -2.7017     0.6572 H       
  48 H48           -2.1923    -0.6214    -0.2733 H       
  49 H49           -0.5061     1.2362     0.0395 H       
  50 H50            0.8985     0.9236     3.3109 H       
  51 H51            2.4419     1.4742     2.6159 H       
  52 H52            0.9025     1.9988     1.8924 H       
  53 H53            2.1870    -2.0628     1.4922 H       
  54 H54            3.1905    -0.8930     2.3827 H       
  55 H55            1.6506    -1.4545     3.0766 H       
  56 H56           -4.3840     0.2288    -3.8098 H       
  57 H57           -4.8544     1.1414    -6.0479 H       
  58 H58           -3.5811     3.0775    -6.8806 H       
  59 H59           -1.8377     4.1013    -5.4750 H       
  60 H60           -1.3663     3.1878    -3.2375 H       
  61 H61           -3.4744     0.6667    -1.6006 H       
  62 H62           -2.2120     1.8989    -1.3635 H       
@<TRIPOS>BOND
   1    1   20 1
   2    1   23 1
   3    1   34 1
   4    1   35 1
   5    2    3 ar
   6    2    8 1
   7    2    7 ar
   8    3    4 ar
   9    3   36 1
  10    4    5 ar
  11    4    9 1
  12    5    6 ar
  13    5   37 1
  14    6    7 ar
  15    6   10 1
  16    7   38 1
  17   10   11 ar
  18   10   15 ar
  19   11   12 ar
  20   11   39 1
  21   12   13 ar
  22   12   40 1
  23   13   14 ar
  24   13   16 1
  25   14   15 ar
  26   14   41 1
  27   15   42 1
  28   16   17 1
  29   16   43 1
  30   16   44 1
  31   17   18 1
  32   17   19 1
  33   17   45 1
  34   18   46 1
  35   18   47 1
  36   19   26 1
  37   19   20 1
  38   19   48 1
  39   20   21 1
  40   20   49 1
  41   21   22 1
  42   22   23 1
  43   22   24 1
  44   22   25 1
  45   24   50 1
  46   24   51 1
  47   24   52 1
  48   25   53 1
  49   25   54 1
  50   25   55 1
  51   26   33 1
  52   27   28 ar
  53   27   32 ar
  54   27   33 1
  55   28   29 ar
  56   28   56 1
  57   29   30 ar
  58   29   57 1
  59   30   31 ar
  60   30   58 1
  61   31   32 ar
  62   31   59 1
  63   32   60 1
  64   33   61 1
  65   33   62 1

#	End of record

