#	Name: ASD01150436
#	Creating user name:	WinNT
#	Creation time:	15. 06. 2019 19:04

#	Modifying user name:	WinNT
#	Modification time:	15. 06. 2019 19:04

#	Program:	/corina/corina34_cracker 3.40 0067  02.08.2006

@<TRIPOS>MOLECULE
ASD01150436
  42   44    0    0    0
SMALL
NO_CHARGES


@<TRIPOS>ATOM
   1 C1            -0.0167     1.3811     0.0096 C.ar    
   2 C2             0.0021    -0.0041     0.0020 C.ar    
   3 C3            -1.1856    -0.7120     0.0096 C.ar    
   4 C4            -2.3947    -0.0414     0.0247 C.ar    
   5 C5            -2.4227     1.3402     0.0324 C.ar    
   6 C6            -1.2352     2.0578     0.0307 C.ar    
   7 N7            -1.2607     3.4578     0.0390 N.am    
   8 C8            -1.9390     4.1026     1.0044 C.2     
   9 N9            -1.9849     5.4474     1.0424 N.am    
  10 C10           -1.3437     6.1723     0.1024 C.2     
  11 C11           -0.5997     5.4734    -0.9559 C.2     
  12 N12           -0.5750     4.1663    -0.9548 N.2     
  13 O13           -1.3809     7.3885     0.1298 O.2     
  14 C14           -2.7323     6.1244     2.1051 C.3     
  15 O15           -2.5211     3.4602     1.8574 O.2     
  16 C16           -1.8213     6.3735     3.2795 C.ar    
  17 C17           -1.0986     7.5495     3.3561 C.ar    
  18 C18           -0.2630     7.7786     4.4329 C.ar    
  19 C19           -0.1499     6.8306     5.4343 C.ar    
  20 C20           -0.8734     5.6539     5.3571 C.ar    
  21 C21           -1.7130     5.4285     4.2826 C.ar    
  22 O22            0.0562     6.1750    -1.9166 O.3     
  23 C23            0.7549     5.4198    -2.9084 C.3     
  24 Cl24           0.8999     7.1174     6.7868 Cl      
  25 O25            1.1501     2.0785     0.0022 O.3     
  26 C26            2.3601     1.3185    -0.0134 C.3     
  27 F27            2.3933     0.5181    -1.1604 F       
  28 F28            3.4566     2.1874    -0.0192 F       
  29 F29            2.4151     0.5058     1.1241 F       
  30 H30            0.9447    -0.5311    -0.0102 H       
  31 H31           -1.1688    -1.7918     0.0033 H       
  32 H32           -3.3197    -0.5989     0.0302 H       
  33 H33           -3.3687     1.8612     0.0439 H       
  34 H34           -3.1130     7.0753     1.7325 H       
  35 H35           -3.5665     5.4970     2.4191 H       
  36 H36           -1.1867     8.2892     2.5741 H       
  37 H37            0.3019     8.6971     4.4924 H       
  38 H38           -0.7856     4.9136     6.1385 H       
  39 H39           -2.2779     4.5100     4.2222 H       
  40 H40            1.2335     6.1002    -3.6128 H       
  41 H41            1.5134     4.8023    -2.4274 H       
  42 H42            0.0508     4.7810    -3.4415 H       
@<TRIPOS>BOND
   1    1    2 ar
   2    1   25 1
   3    1    6 ar
   4    2    3 ar
   5    2   30 1
   6    3    4 ar
   7    3   31 1
   8    4    5 ar
   9    4   32 1
  10    5    6 ar
  11    5   33 1
  12    6    7 1
  13    7    8 am
  14    7   12 1
  15    8    9 am
  16    8   15 2
  17    9   10 am
  18    9   14 1
  19   10   11 1
  20   10   13 2
  21   11   12 2
  22   11   22 1
  23   14   16 1
  24   14   34 1
  25   14   35 1
  26   16   17 ar
  27   16   21 ar
  28   17   18 ar
  29   17   36 1
  30   18   19 ar
  31   18   37 1
  32   19   20 ar
  33   19   24 1
  34   20   21 ar
  35   20   38 1
  36   21   39 1
  37   22   23 1
  38   23   40 1
  39   23   41 1
  40   23   42 1
  41   25   26 1
  42   26   27 1
  43   26   28 1
  44   26   29 1

#	End of record

