#	Name: ASD01880724
#	Creating user name:	WinNT
#	Creation time:	15. 06. 2019 19:41

#	Modifying user name:	WinNT
#	Modification time:	15. 06. 2019 19:41

#	Program:	/corina/corina34_cracker 3.40 0067  02.08.2006

@<TRIPOS>MOLECULE
ASD01880724
  38   40    0    0    0
SMALL
NO_CHARGES


@<TRIPOS>ATOM
   1 N1            -0.0158     1.3137     0.0093 N.ar    
   2 C2             0.0021    -0.0041     0.0020 C.ar    
   3 N3             1.1317    -0.6827    -0.0124 N.ar    
   4 C4             2.2992    -0.0573    -0.0202 C.ar    
   5 C5             2.3215     1.3292    -0.0130 C.ar    
   6 C6             1.1123     2.0078     0.0022 C.ar    
   7 C7             3.6280     2.0802    -0.0214 C.3     
   8 O8             4.0281     2.3249    -1.3713 O.3     
   9 C9             5.1928     2.9963    -1.5566 C.ar    
  10 C10            5.6410     3.2679    -2.8456 C.ar    
  11 C11            6.8191     3.9476    -3.0317 C.ar    
  12 C12            7.5739     4.3700    -1.9323 C.ar    
  13 C13            7.1189     4.0950    -0.6398 C.ar    
  14 C14            5.9339     3.4170    -0.4588 C.ar    
  15 C15            7.5712     4.3934    -4.2609 C.3     
  16 N16            8.7746     5.0804    -3.7783 N.am    
  17 C17            8.7721     5.0646    -2.4343 C.2     
  18 O18            9.6358     5.5544    -1.7326 O.2     
  19 Br19           3.9137    -1.0417    -0.0403 Br      
  20 C20            7.9218     4.5433     0.5542 C.3     
  21 Br21           1.0743     3.8984     0.0121 Br      
  22 C22            9.4497     7.1444    -4.9033 C.3     
  23 C23            9.8088     5.6839    -4.6224 C.3     
  24 H24           -0.9342    -0.5423     0.0084 H       
  25 H25            3.5044     3.0301     0.4987 H       
  26 H26            4.3914     1.4870     0.4820 H       
  27 H27            5.0630     2.9441    -3.6986 H       
  28 H28            5.5827     3.2051     0.5403 H       
  29 H29            7.8496     3.5290    -4.8638 H       
  30 H30            6.9585     5.0782    -4.8473 H       
  31 H31            7.6035     5.5426     0.8515 H       
  32 H32            7.7623     3.8504     1.3803 H       
  33 H33            8.9802     4.5614     0.2943 H       
  34 H34            9.3849     7.6901    -3.9620 H       
  35 H35           10.2192     7.5933    -5.5314 H       
  36 H36            8.4893     7.1901    -5.4168 H       
  37 H37           10.7692     5.6381    -4.1089 H       
  38 H38            9.8736     5.1381    -5.5637 H       
@<TRIPOS>BOND
   1    1    2 ar
   2    1    6 ar
   3    2    3 ar
   4    2   24 1
   5    3    4 ar
   6    4    5 ar
   7    4   19 1
   8    5    6 ar
   9    5    7 1
  10    6   21 1
  11    7    8 1
  12    7   25 1
  13    7   26 1
  14    8    9 1
  15    9   10 ar
  16    9   14 ar
  17   10   11 ar
  18   10   27 1
  19   11   12 ar
  20   11   15 1
  21   12   13 ar
  22   12   17 1
  23   13   14 ar
  24   13   20 1
  25   14   28 1
  26   15   16 1
  27   15   29 1
  28   15   30 1
  29   16   17 am
  30   16   23 1
  31   17   18 2
  32   20   31 1
  33   20   32 1
  34   20   33 1
  35   22   23 1
  36   22   34 1
  37   22   35 1
  38   22   36 1
  39   23   37 1
  40   23   38 1

#	End of record

