#	Name: ASD01901603
#	Creating user name:	WinNT
#	Creation time:	15. 06. 2019 19:54

#	Modifying user name:	WinNT
#	Modification time:	15. 06. 2019 19:54

#	Program:	/corina/corina34_cracker 3.40 0067  02.08.2006

@<TRIPOS>MOLECULE
ASD01901603
  51   54    0    0    0
SMALL
NO_CHARGES


@<TRIPOS>ATOM
   1 C1             2.0124     1.8770     0.9592 C.3     
   2 C2             1.0754     2.0182    -0.2421 C.3     
   3 C3            -0.1910     1.1942    -0.0007 C.3     
   4 C4             0.6991     3.4899    -0.4251 C.3     
   5 C5             1.7810     1.5117    -1.5016 C.3     
   6 C6             2.1573     0.0401    -1.3186 C.3     
   7 N7             2.7254    -0.4794    -2.5697 N.3     
   8 C8             3.9213     0.2774    -2.9583 C.3     
   9 C9             4.5396    -0.3865    -4.1956 C.3     
  10 O10            4.9558    -1.7050    -3.8259 O.3     
  11 C11            4.0742    -2.4429    -3.0965 C.ar    
  12 C12            4.2852    -3.8089    -2.9809 C.ar    
  13 C13            3.4079    -4.5897    -2.2410 C.ar    
  14 N14            3.6225    -5.9680    -2.1256 N.pl3   
  15 C15            4.9124    -6.4889    -2.2662 C.2     
  16 N16            6.0128    -5.7966    -2.3975 N.2     
  17 N17            7.1093    -6.6572    -2.5120 N.pl3   
  18 H18            8.0328    -6.3804    -2.6190 H       
  19 C19            6.6710    -7.9535    -2.4491 C.ar    
  20 C20            7.3060    -9.1936    -2.5081 C.ar    
  21 C21            6.5289   -10.3309    -2.4090 C.ar    
  22 C22            5.1538   -10.2120    -2.2552 C.ar    
  23 N23            4.5710    -9.0359    -2.2015 N.ar    
  24 C24            5.2731    -7.9085    -2.2865 C.ar    
  25 C25            2.3174    -4.0007    -1.6152 C.ar    
  26 C26            2.1057    -2.6413    -1.7306 C.ar    
  27 C27            2.9798    -1.8546    -2.4731 C.ar    
  28 H28            2.2804     0.8285     1.0896 H       
  29 H29            2.9146     2.4640     0.7872 H       
  30 H30            1.5096     2.2378     1.8565 H       
  31 H31           -0.6937     1.5550     0.8966 H       
  32 H32           -0.8586     1.2948    -0.8565 H       
  33 H33            0.0770     0.1458     0.1297 H       
  34 H34            1.6013     4.0769    -0.5971 H       
  35 H35            0.0315     3.5905    -1.2809 H       
  36 H36            0.1964     3.8507     0.4722 H       
  37 H37            1.1135     1.6123    -2.3574 H       
  38 H38            2.6832     2.0987    -1.6736 H       
  39 H39            2.8937    -0.0501    -0.5201 H       
  40 H40            1.2672    -0.5329    -1.0583 H       
  41 H41            3.6435     1.3046    -3.1945 H       
  42 H42            4.6415     0.2691    -2.1402 H       
  43 H43            3.7983    -0.4437    -4.9926 H       
  44 H44            5.4004     0.1911    -4.5325 H       
  45 H45            5.1338    -4.2661    -3.4680 H       
  46 H46            2.8763    -6.5618    -1.9481 H       
  47 H47            8.3770    -9.2628    -2.6284 H       
  48 H48            6.9880   -11.3076    -2.4512 H       
  49 H49            4.5510   -11.1048    -2.1787 H       
  50 H50            1.6347    -4.6062    -1.0376 H       
  51 H51            1.2564    -2.1865    -1.2424 H       
@<TRIPOS>BOND
   1    1    2 1
   2    1   28 1
   3    1   29 1
   4    1   30 1
   5    2    3 1
   6    2    4 1
   7    2    5 1
   8    3   31 1
   9    3   32 1
  10    3   33 1
  11    4   34 1
  12    4   35 1
  13    4   36 1
  14    5    6 1
  15    5   37 1
  16    5   38 1
  17    6    7 1
  18    6   39 1
  19    6   40 1
  20    7   27 1
  21    7    8 1
  22    8    9 1
  23    8   41 1
  24    8   42 1
  25    9   10 1
  26    9   43 1
  27    9   44 1
  28   10   11 1
  29   11   27 ar
  30   11   12 ar
  31   12   13 ar
  32   12   45 1
  33   13   14 1
  34   13   25 ar
  35   14   15 1
  36   14   46 1
  37   15   24 1
  38   15   16 2
  39   16   17 1
  40   17   18 1
  41   17   19 1
  42   19   24 ar
  43   19   20 ar
  44   20   21 ar
  45   20   47 1
  46   21   22 ar
  47   21   48 1
  48   22   23 ar
  49   22   49 1
  50   23   24 ar
  51   25   26 ar
  52   25   50 1
  53   26   27 ar
  54   26   51 1

#	End of record

