#	Name: ASD01914974
#	Creating user name:	WinNT
#	Creation time:	15. 06. 2019 20:04

#	Modifying user name:	WinNT
#	Modification time:	15. 06. 2019 20:04

#	Program:	/corina/corina34_cracker 3.40 0067  02.08.2006

@<TRIPOS>MOLECULE
ASD01914974
  36   38    0    0    0
SMALL
NO_CHARGES


@<TRIPOS>ATOM
   1 C1            -0.3859     1.7163     0.1127 C.ar    
   2 C2            -0.5126     0.3656     0.3822 C.ar    
   3 N3             0.5342    -0.3600     0.7137 N.ar    
   4 C4             1.7502     0.1665     0.8037 C.ar    
   5 C5             1.9576     1.5181     0.5475 C.ar    
   6 C6             0.8698     2.3124     0.1943 C.ar    
   7 C7            -1.8692    -0.2847     0.2953 C.3     
   8 O8             1.0296     3.6353    -0.0641 O.3     
   9 C9             2.2793     4.1594     0.0402 C.ar    
  10 C10            3.2186     3.9706    -0.9684 C.ar    
  11 N11            4.4243     4.4968    -0.8294 N.ar    
  12 C12            4.7395     5.1911     0.2456 C.ar    
  13 N13            3.8777     5.3918     1.2222 N.ar    
  14 C14            2.6502     4.9033     1.1557 C.ar    
  15 C15            2.8962    -0.6933     1.1808 C.2     
  16 N16            2.7022    -2.0034     1.4307 N.am    
  17 O17            4.0111    -0.2173     1.2648 O.2     
  18 C18            3.7925    -2.8335     1.6819 C.ar    
  19 C19            3.5973    -4.2016     1.8231 C.ar    
  20 C20            4.6916    -5.0161     2.0725 C.ar    
  21 C21            5.9474    -4.4265     2.1716 C.ar    
  22 C22            6.0653    -3.0598     2.0200 C.ar    
  23 N23            5.0058    -2.3115     1.7784 N.ar    
  24 F24            4.5413    -6.3510     2.2162 F       
  25 H25           -1.2510     2.3014    -0.1625 H       
  26 H26            2.9470     1.9447     0.6215 H       
  27 H27           -2.0306    -0.6549    -0.7171 H       
  28 H28           -1.9193    -1.1161     0.9984 H       
  29 H29           -2.6391     0.4465     0.5419 H       
  30 H30            2.9673     3.4024    -1.8518 H       
  31 H31            5.7326     5.6072     0.3286 H       
  32 H32            1.9490     5.0720     1.9596 H       
  33 H33            1.8034    -2.3683     1.4357 H       
  34 H34            2.6072    -4.6249     1.7402 H       
  35 H35            6.8207    -5.0316     2.3654 H       
  36 H36            7.0382    -2.5973     2.0961 H       
@<TRIPOS>BOND
   1    1    2 ar
   2    1    6 ar
   3    1   25 1
   4    2    3 ar
   5    2    7 1
   6    3    4 ar
   7    4    5 ar
   8    4   15 1
   9    5    6 ar
  10    5   26 1
  11    6    8 1
  12    7   27 1
  13    7   28 1
  14    7   29 1
  15    8    9 1
  16    9   10 ar
  17    9   14 ar
  18   10   11 ar
  19   10   30 1
  20   11   12 ar
  21   12   13 ar
  22   12   31 1
  23   13   14 ar
  24   14   32 1
  25   15   16 am
  26   15   17 2
  27   16   18 1
  28   16   33 1
  29   18   19 ar
  30   18   23 ar
  31   19   20 ar
  32   19   34 1
  33   20   21 ar
  34   20   24 1
  35   21   22 ar
  36   21   35 1
  37   22   23 ar
  38   22   36 1

#	End of record

