#	Name: ASD02038600
#	Creating user name:	WinNT
#	Creation time:	15. 06. 2019 20:17

#	Modifying user name:	WinNT
#	Modification time:	15. 06. 2019 20:17

#	Program:	/corina/corina34_cracker 3.40 0067  02.08.2006

@<TRIPOS>MOLECULE
ASD02038600
  48   49    0    0    0
SMALL
NO_CHARGES


@<TRIPOS>ATOM
   1 C1             0.1674     0.0923    -0.1684 C.ar    
   2 C2             0.0155    -1.2837    -0.1571 C.ar    
   3 C3            -1.2513    -1.8388    -0.1226 C.ar    
   4 C4            -2.3642    -1.0197    -0.0995 C.ar    
   5 C5            -2.2125     0.3546    -0.1112 C.ar    
   6 C6            -0.9476     0.9108    -0.1394 C.ar    
   7 C7            -3.7439    -1.6248    -0.0619 C.3     
   8 C8            -4.1750    -1.8217     1.3928 C.3     
   9 C9            -5.5757    -2.4360     1.4310 C.3     
  10 N10           -5.9897    -2.6250     2.8277 N.3     
  11 C11           -7.3331    -3.2144     2.9035 C.3     
  12 C12           -7.7285    -3.3957     4.3703 C.3     
  13 O13           -7.8416    -2.1154     4.9949 O.3     
  14 C14           -8.1887    -2.0984     6.3098 C.ar    
  15 Cl15           1.7562     0.7904    -0.2117 Cl      
  16 Cl16           1.4138    -2.3121    -0.1868 Cl      
  17 C17           -8.3161    -0.8893     6.9774 C.ar    
  18 C18           -8.4206    -3.2899     6.9809 C.ar    
  19 C19           -8.7736    -3.2735     8.3160 C.ar    
  20 C20           -8.8958    -2.0637     8.9867 C.ar    
  21 C21           -8.6685    -0.8711     8.3126 C.ar    
  22 N22           -9.2534    -2.0462    10.3395 N.am    
  23 S23           -8.1439    -2.4665    11.4947 S.o2    
  24 C24           -6.8396    -1.2146    11.3464 C.3     
  25 O25           -8.8426    -2.3156    12.7229 O.2     
  26 O26           -7.6655    -3.7371    11.0753 O.2     
  27 H27           -1.3705    -2.9121    -0.1142 H       
  28 H28           -3.0829     0.9937    -0.0935 H       
  29 H29           -0.8299     1.9843    -0.1485 H       
  30 H30           -4.4466    -0.9584    -0.5621 H       
  31 H31           -3.7319    -2.5886    -0.5709 H       
  32 H32           -3.4723    -2.4881     1.8930 H       
  33 H33           -4.1870    -0.8579     1.9018 H       
  34 H34           -6.2785    -1.7696     0.9308 H       
  35 H35           -5.5638    -3.3998     0.9219 H       
  36 H36           -5.3193    -3.1870     3.3306 H       
  37 H37           -8.0480    -2.5534     2.4135 H       
  38 H38           -7.3333    -4.1836     2.4047 H       
  39 H39           -8.6859    -3.9136     4.4272 H       
  40 H40           -6.9665    -3.9836     4.8821 H       
  41 H41           -8.1392     0.0381     6.4530 H       
  42 H42           -8.3255    -4.2307     6.4592 H       
  43 H43           -8.9549    -4.2013     8.8382 H       
  44 H44           -8.7633     0.0703     8.8335 H       
  45 H45          -10.1512    -1.7878    10.6005 H       
  46 H46           -7.2776    -0.2208    11.4395 H       
  47 H47           -6.1028    -1.3623    12.1359 H       
  48 H48           -6.3547    -1.3084    10.3747 H       
@<TRIPOS>BOND
   1    1    2 ar
   2    1   15 1
   3    1    6 ar
   4    2    3 ar
   5    2   16 1
   6    3    4 ar
   7    3   27 1
   8    4    5 ar
   9    4    7 1
  10    5    6 ar
  11    5   28 1
  12    6   29 1
  13    7    8 1
  14    7   30 1
  15    7   31 1
  16    8    9 1
  17    8   32 1
  18    8   33 1
  19    9   10 1
  20    9   34 1
  21    9   35 1
  22   10   11 1
  23   10   36 1
  24   11   12 1
  25   11   37 1
  26   11   38 1
  27   12   13 1
  28   12   39 1
  29   12   40 1
  30   13   14 1
  31   14   17 ar
  32   14   18 ar
  33   17   21 ar
  34   17   41 1
  35   18   19 ar
  36   18   42 1
  37   19   20 ar
  38   19   43 1
  39   20   21 ar
  40   20   22 1
  41   21   44 1
  42   22   23 am
  43   22   45 1
  44   23   24 1
  45   23   25 2
  46   23   26 2
  47   24   46 1
  48   24   47 1
  49   24   48 1

#	End of record

