#	Name: ASD01882815
#	Creating user name:	WinNT
#	Creation time:	15. 06. 2019 19:45

#	Modifying user name:	WinNT
#	Modification time:	15. 06. 2019 19:45

#	Program:	/corina/corina34_cracker 3.40 0067  02.08.2006

@<TRIPOS>MOLECULE
ASD01882815
  37   40    0    0    0
SMALL
NO_CHARGES


@<TRIPOS>ATOM
   1 C1            -0.0159     1.3220     0.0093 C.2     
   2 N2             0.0021    -0.0041     0.0020 N.2     
   3 C3             1.1523    -0.6857    -0.0126 C.2     
   4 C4             2.3835     0.0173    -0.0206 C.2     
   5 C5             2.3523     1.3664    -0.0131 C.2     
   6 N6             1.1484     2.0132     0.0019 N.pl3   
   7 O7            -1.0993     2.1290     0.0184 O.3     
   8 C8             0.8540     3.4562     0.0125 C.3     
   9 C9            -0.6831     3.5211     0.0242 C.3     
  10 O10            1.1423    -1.9071    -0.0187 O.2     
  11 C11           -1.1944     4.2379    -1.2270 C.3     
  12 O12           -2.6209     4.3119    -1.1842 O.3     
  13 C13           -5.4173     6.7937    -5.3873 C.3     
  14 C14           -6.7653     6.9921    -4.6621 C.3     
  15 C15           -6.7224     5.8953    -3.5771 C.3     
  16 C16           -5.2510     5.6536    -3.3161 C.ar    
  17 C17           -4.6202     5.0308    -2.2531 C.ar    
  18 C18           -3.2386     4.9234    -2.2289 C.ar    
  19 C19           -2.4879     5.4423    -3.2740 C.ar    
  20 C20           -3.1197     6.0628    -4.3325 C.ar    
  21 C21           -4.5008     6.1699    -4.3564 C.ar    
  22 H22            3.3237    -0.5140    -0.0321 H       
  23 H23            3.2727     1.9314    -0.0185 H       
  24 H24            1.2651     3.9237     0.9072 H       
  25 H25            1.2480     3.9334    -0.8848 H       
  26 H26           -1.0396     4.0220     0.9243 H       
  27 H27           -0.7793     5.2451    -1.2639 H       
  28 H28           -0.8857     3.6850    -2.1142 H       
  29 H29           -5.5407     6.1239    -6.2383 H       
  30 H30           -5.0194     7.7540    -5.7153 H       
  31 H31           -6.8200     7.9824    -4.2101 H       
  32 H32           -7.5998     6.8299    -5.3443 H       
  33 H33           -7.2157     6.2421    -2.6691 H       
  34 H34           -7.1966     4.9840    -3.9416 H       
  35 H35           -5.2061     4.6275    -1.4404 H       
  36 H36           -1.4111     5.3611    -3.2591 H       
  37 H37           -2.5350     6.4666    -5.1458 H       
@<TRIPOS>BOND
   1    1    2 2
   2    1    6 1
   3    1    7 1
   4    2    3 1
   5    3    4 1
   6    3   10 2
   7    4    5 2
   8    4   22 1
   9    5    6 1
  10    5   23 1
  11    6    8 1
  12    7    9 1
  13    8    9 1
  14    8   24 1
  15    8   25 1
  16    9   11 1
  17    9   26 1
  18   11   12 1
  19   11   27 1
  20   11   28 1
  21   12   18 1
  22   13   14 1
  23   13   21 1
  24   13   29 1
  25   13   30 1
  26   14   15 1
  27   14   31 1
  28   14   32 1
  29   15   16 1
  30   15   33 1
  31   15   34 1
  32   16   17 ar
  33   16   21 ar
  34   17   18 ar
  35   17   35 1
  36   18   19 ar
  37   19   20 ar
  38   19   36 1
  39   20   21 ar
  40   20   37 1

#	End of record

