#	Name: ASD04882510
#	Creating user name:	WinNT
#	Creation time:	15. 06. 2019 20:54

#	Modifying user name:	WinNT
#	Modification time:	15. 06. 2019 20:54

#	Program:	/corina/corina34_cracker 3.40 0067  02.08.2006

@<TRIPOS>MOLECULE
ASD04882510
  73   78    0    0    0
SMALL
NO_CHARGES


@<TRIPOS>ATOM
   1 C1            -0.0215     1.4013    -0.0093 C.ar    
   2 C2            -0.0116     0.0037    -0.0051 C.ar    
   3 C3            -1.2095    -0.7018    -0.0164 C.ar    
   4 C4            -2.4097    -0.0267    -0.0313 C.ar    
   5 C5            -2.4268     1.3709    -0.0352 C.ar    
   6 C6            -1.2240     2.0827    -0.0190 C.ar    
   7 N7             1.1997    -0.6831     0.0100 N.3     
   8 C8             1.3066    -1.5360     1.2019 C.3     
   9 C9             1.3723    -1.4734    -1.2168 C.3     
  10 C10            2.7461    -2.1477    -1.1970 C.3     
  11 N11            2.8531    -3.0006    -0.0051 N.3     
  12 C12            2.6805    -2.2103     1.2218 C.3     
  13 C13           -3.7127     2.0939    -0.0518 C.2     
  14 O14           -3.7266     3.3098    -0.0551 O.2     
  15 N15           -4.8720     1.4067    -0.0632 N.am    
  16 N16            1.1864     2.1110     0.0021 N.am    
  17 C17            4.0589    -3.6842     0.0100 C.2     
  18 C18            1.2294     3.3599     0.5068 C.2     
  19 C19            2.5098     4.0698     0.5995 C.2     
  20 O20            0.2060     3.8988     0.8856 O.2     
  21 O21            2.7077     5.3193     1.0805 O.3     
  22 C22            4.0140     5.5875     0.9889 C.2     
  23 N23            4.6280     4.5569     0.4724 N.2     
  24 C24            3.7320     3.5964     0.2233 C.2     
  25 S25            4.5521    -4.7731     1.2322 S.3     
  26 N26            4.9747    -3.5952    -0.9039 N.2     
  27 C27            6.0652    -4.3205    -0.7289 C.2     
  28 C28            6.0691    -5.0567     0.3826 C.2     
  29 C29            4.6734     6.8742     1.4140 C.3     
  30 C30            5.7511     6.7916     2.4969 C.3     
  31 C31            6.1453     7.0693     1.0449 C.3     
  32 C32           -6.1490     2.1246    -0.0796 C.3     
  33 C33           -7.3004     1.1171    -0.0901 C.3     
  34 C34           -8.6340     1.8669    -0.1073 C.3     
  35 N35           -9.7365     0.9022    -0.1173 N.am    
  36 C36          -10.3735     0.3601     1.0886 C.3     
  37 C37          -10.2984     0.4042    -1.2323 C.2     
  38 C38          -11.3982    -0.5694    -0.8703 C.3     
  39 C39          -11.1409    -0.8961     0.6201 C.3     
  40 O40           -9.9717     0.6939    -2.3638 O.2     
  41 H41           -1.1987    -1.7817    -0.0138 H       
  42 H42           -3.3386    -0.5776    -0.0404 H       
  43 H43           -1.2341     3.1626    -0.0216 H       
  44 H44            1.1880    -0.9260     2.0975 H       
  45 H45            0.5278    -2.2981     1.1748 H       
  46 H46            0.5943    -2.2348    -1.2714 H       
  47 H47            1.3015    -0.8178    -2.0847 H       
  48 H48            2.8648    -2.7576    -2.0925 H       
  49 H49            3.5249    -1.3856    -1.1699 H       
  50 H50            3.4585    -1.4489     1.2764 H       
  51 H51            2.7513    -2.8659     2.0897 H       
  52 H52           -4.8610     0.4368    -0.0605 H       
  53 H53            1.9917     1.7034    -0.3533 H       
  54 H54            3.9375     2.6259    -0.2036 H       
  55 H55            6.8862    -4.3185    -1.4306 H       
  56 H56            6.8633    -5.7138     0.7051 H       
  57 H57            4.0318     7.7554     1.4087 H       
  58 H58            5.8187     7.6186     3.2038 H       
  59 H59            5.9831     5.8066     2.9019 H       
  60 H60            6.6368     6.2669     0.4946 H       
  61 H61            6.4724     8.0789     0.7965 H       
  62 H62           -6.2240     2.7529     0.8079 H       
  63 H63           -6.2037     2.7482    -0.9719 H       
  64 H64           -7.2253     0.4888    -0.9776 H       
  65 H65           -7.2456     0.4935     0.8022 H       
  66 H66           -8.7090     2.4952     0.7802 H       
  67 H67           -8.6887     2.4905    -0.9996 H       
  68 H68           -9.6171     0.0875     1.8246 H       
  69 H69          -11.0653     1.0894     1.5100 H       
  70 H70          -12.3759    -0.1033    -0.9927 H       
  71 H71          -11.3254    -1.4707    -1.4791 H       
  72 H72          -10.5258    -1.7901     0.7230 H       
  73 H73          -12.0796    -1.0056     1.1632 H       
@<TRIPOS>BOND
   1    1    2 ar
   2    1   16 1
   3    1    6 ar
   4    2    3 ar
   5    2    7 1
   6    3    4 ar
   7    3   41 1
   8    4    5 ar
   9    4   42 1
  10    5    6 ar
  11    5   13 1
  12    6   43 1
  13    7    8 1
  14    7    9 1
  15    8   12 1
  16    8   44 1
  17    8   45 1
  18    9   10 1
  19    9   46 1
  20    9   47 1
  21   10   11 1
  22   10   48 1
  23   10   49 1
  24   11   12 1
  25   11   17 1
  26   12   50 1
  27   12   51 1
  28   13   14 2
  29   13   15 am
  30   15   32 1
  31   15   52 1
  32   16   18 am
  33   16   53 1
  34   17   25 1
  35   17   26 2
  36   18   19 1
  37   18   20 2
  38   19   21 1
  39   19   24 2
  40   21   22 1
  41   22   23 2
  42   22   29 1
  43   23   24 1
  44   24   54 1
  45   25   28 1
  46   26   27 1
  47   27   28 2
  48   27   55 1
  49   28   56 1
  50   29   30 1
  51   29   31 1
  52   29   57 1
  53   30   31 1
  54   30   58 1
  55   30   59 1
  56   31   60 1
  57   31   61 1
  58   32   33 1
  59   32   62 1
  60   32   63 1
  61   33   34 1
  62   33   64 1
  63   33   65 1
  64   34   35 1
  65   34   66 1
  66   34   67 1
  67   35   36 1
  68   35   37 am
  69   36   39 1
  70   36   68 1
  71   36   69 1
  72   37   38 1
  73   37   40 2
  74   38   39 1
  75   38   70 1
  76   38   71 1
  77   39   72 1
  78   39   73 1

#	End of record

