#	Name: ASD01880114
#	Creating user name:	WinNT
#	Creation time:	15. 06. 2019 19:40

#	Modifying user name:	WinNT
#	Modification time:	15. 06. 2019 19:40

#	Program:	/corina/corina34_cracker 3.40 0067  02.08.2006

@<TRIPOS>MOLECULE
ASD01880114
  71   75    0    0    0
SMALL
NO_CHARGES


@<TRIPOS>ATOM
   1 C1            -0.0168     1.3889     0.0097 C.ar    
   2 C2             0.0021    -0.0041     0.0020 C.ar    
   3 C3            -1.1854    -0.7079     0.0101 C.ar    
   4 C4            -2.3923    -0.0328     0.0257 C.ar    
   5 C5            -2.4168     1.3504     0.0334 C.ar    
   6 C6            -1.2357     2.0640     0.0308 C.ar    
   7 C7            -3.7358     2.0791     0.0499 C.3     
   8 O8            -4.1398     2.3022     1.4023 O.3     
   9 C9            -5.3153     2.9516     1.5948 C.ar    
  10 C10           -6.0663     3.3666     0.5015 C.ar    
  11 C11           -7.2619     4.0272     0.6933 C.ar    
  12 C12           -7.7182     4.2786     1.9892 C.ar    
  13 C13           -6.9491     3.8531     3.0862 C.ar    
  14 C14           -5.7704     3.1963     2.8860 C.ar    
  15 C15           -8.2518     4.5747    -0.3067 C.3     
  16 C16           -9.3879     5.2020     0.5128 C.3     
  17 C17           -9.0039     4.9891     1.9569 C.2     
  18 C18           -9.4977     6.6975     0.2085 C.3     
  19 C19           -9.7892     6.9110    -1.2872 C.3     
  20 C20          -11.1440     7.6439    -1.3719 C.3     
  21 C21          -11.2808     8.3491     0.0003 C.3     
  22 C22          -10.6855     7.3080     0.9805 C.3     
  23 O23           -9.6454     5.3435     2.9233 O.2     
  24 C24           -4.9532     2.7436     4.0684 C.3     
  25 C25           -7.4310     4.1192     4.4890 C.3     
  26 C26            1.2566     2.1510     0.0016 C.ar    
  27 C27            2.4722     1.4758    -0.0136 C.ar    
  28 C28            3.6643     2.1983    -0.0216 C.ar    
  29 C29            3.6304     3.5941    -0.0143 C.ar    
  30 C30            2.4196     4.2572     0.0013 C.ar    
  31 C31            1.2359     3.5454     0.0035 C.ar    
  32 C32            4.9613     1.4884    -0.0373 C.2     
  33 O33            4.9889     0.2732    -0.0433 O.2     
  34 N34            6.1128     2.1887    -0.0450 N.am    
  35 S35            7.5653     1.3936    -0.0626 S.o2    
  36 O36            8.5340     2.4330    -0.0412 O.2     
  37 O37            7.4674     0.4613     1.0053 O.2     
  38 C38            7.5907     0.5326    -1.6590 C.3     
  39 H39            0.9440    -0.5323    -0.0105 H       
  40 H40           -1.1719    -1.7878     0.0038 H       
  41 H41           -3.3190    -0.5874     0.0316 H       
  42 H42           -1.2560     3.1438     0.0368 H       
  43 H43           -3.6284     3.0366    -0.4599 H       
  44 H44           -4.4891     1.4786    -0.4600 H       
  45 H45           -5.7129     3.1719    -0.5003 H       
  46 H46           -7.7756     5.3328    -0.9285 H       
  47 H47           -8.6400     3.7686    -0.9293 H       
  48 H48          -10.3314     4.7014     0.2952 H       
  49 H49           -8.5725     7.2033     0.4845 H       
  50 H50           -9.0059     7.5212    -1.7369 H       
  51 H51           -9.8525     5.9493    -1.7963 H       
  52 H52          -11.1312     8.3773    -2.1781 H       
  53 H53          -11.9553     6.9305    -1.5167 H       
  54 H54          -10.7021     9.2726     0.0194 H       
  55 H55          -12.3280     8.5434     0.2322 H       
  56 H56          -11.4228     6.5403     1.2157 H       
  57 H57          -10.3382     7.7963     1.8911 H       
  58 H58           -5.2561     1.7366     4.3553 H       
  59 H59           -3.8965     2.7428     3.8008 H       
  60 H60           -5.1158     3.4239     4.9043 H       
  61 H61           -8.0445     3.2841     4.8270 H       
  62 H62           -6.5736     4.2321     5.1525 H       
  63 H63           -8.0235     5.0340     4.5022 H       
  64 H64            2.4926     0.3960    -0.0189 H       
  65 H65            4.5528     4.1558    -0.0204 H       
  66 H66            2.3979     5.3369     0.0077 H       
  67 H67            0.2920     4.0701     0.0153 H       
  68 H68            6.0907     3.1585    -0.0403 H       
  69 H69            7.5159     1.2613    -2.4661 H       
  70 H70            8.5229    -0.0237    -1.7570 H       
  71 H71            6.7485    -0.1573    -1.7132 H       
@<TRIPOS>BOND
   1    1    2 ar
   2    1   26 1
   3    1    6 ar
   4    2    3 ar
   5    2   39 1
   6    3    4 ar
   7    3   40 1
   8    4    5 ar
   9    4   41 1
  10    5    6 ar
  11    5    7 1
  12    6   42 1
  13    7    8 1
  14    7   43 1
  15    7   44 1
  16    8    9 1
  17    9   10 ar
  18    9   14 ar
  19   10   11 ar
  20   10   45 1
  21   11   12 ar
  22   11   15 1
  23   12   13 ar
  24   12   17 1
  25   13   14 ar
  26   13   25 1
  27   14   24 1
  28   15   16 1
  29   15   46 1
  30   15   47 1
  31   16   17 1
  32   16   18 1
  33   16   48 1
  34   17   23 2
  35   18   19 1
  36   18   22 1
  37   18   49 1
  38   19   20 1
  39   19   50 1
  40   19   51 1
  41   20   21 1
  42   20   52 1
  43   20   53 1
  44   21   22 1
  45   21   54 1
  46   21   55 1
  47   22   56 1
  48   22   57 1
  49   24   58 1
  50   24   59 1
  51   24   60 1
  52   25   61 1
  53   25   62 1
  54   25   63 1
  55   26   27 ar
  56   26   31 ar
  57   27   28 ar
  58   27   64 1
  59   28   29 ar
  60   28   32 1
  61   29   30 ar
  62   29   65 1
  63   30   31 ar
  64   30   66 1
  65   31   67 1
  66   32   33 2
  67   32   34 am
  68   34   35 am
  69   34   68 1
  70   35   36 2
  71   35   37 2
  72   35   38 1
  73   38   69 1
  74   38   70 1
  75   38   71 1

#	End of record

