#	Name: ASD07931441
#	Creating user name:	WinNT
#	Creation time:	15. 06. 2019 21:13

#	Modifying user name:	WinNT
#	Modification time:	15. 06. 2019 21:13

#	Program:	/corina/corina34_cracker 3.40 0067  02.08.2006

@<TRIPOS>MOLECULE
ASD07931441
  55   60    0    0    0
SMALL
NO_CHARGES


@<TRIPOS>ATOM
   1 N1             7.7321     7.7781    -3.5877 N.pl3   
   2 C2             4.9945     7.8801     6.5727 C.ar    
   3 N3             5.0679     7.1308     5.3928 N.am    
   4 N4             5.8978     6.0234     5.2008 N.2     
   5 C5             5.7504     5.5299     4.0048 C.2     
   6 C6             4.7390     6.3571     3.3081 C.2     
   7 C7             4.3423     7.3716     4.2795 C.2     
   8 O8             3.5242     8.2622     4.1164 O.2     
   9 C9             6.3347     4.4038     3.2522 C.ar    
  10 C10            5.9003     4.1876     1.9344 C.ar    
  11 N11            4.9477     5.0154     1.3636 N.pl3   
  12 C12            4.3926     6.0491     2.0158 C.2     
  13 C13            7.2940     3.5682     3.8205 C.ar    
  14 C14            7.8169     2.5243     3.0813 C.ar    
  15 C15            7.3898     2.3084     1.7813 C.ar    
  16 C16            6.4396     3.1299     1.2070 C.ar    
  17 C17            4.5264     4.7504    -0.0143 C.3     
  18 C18            5.3775     5.5543    -0.9632 C.ar    
  19 C19            6.6096     5.0708    -1.3634 C.ar    
  20 C20            7.3919     5.8052    -2.2331 C.ar    
  21 C21            6.9401     7.0301    -2.7053 C.ar    
  22 C22            5.7026     7.5129    -2.3016 C.ar    
  23 C23            4.9223     6.7713    -1.4363 C.ar    
  24 C24            7.4130     8.9795    -4.1200 C.2     
  25 F25            7.7112     3.7779     5.0882 F       
  26 F26            6.0333     2.9072    -0.0621 F       
  27 C27            8.4380     9.3623    -4.9162 C.2     
  28 C28            9.4161     8.3627    -4.8698 C.2     
  29 N29            8.9967     7.4160    -4.0694 N.2     
  30 C30            5.1970     9.2536     6.5386 C.ar    
  31 C31            5.1239     9.9900     7.7048 C.ar    
  32 C32            4.8500     9.3612     8.9054 C.ar    
  33 C33            4.6478     7.9934     8.9428 C.ar    
  34 C34            4.7133     7.2522     7.7796 C.ar    
  35 C35            4.4924     5.7621     7.8213 C.3     
  36 O36            4.2346     5.3562     9.1669 O.3     
  37 H37            3.6549     6.6547     1.5105 H       
  38 H38            8.5609     1.8748     3.5184 H       
  39 H39            7.8044     1.4902     1.2111 H       
  40 H40            4.6429     3.6888    -0.2321 H       
  41 H41            3.4808     5.0335    -0.1353 H       
  42 H42            6.9607     4.1180    -0.9954 H       
  43 H43            8.3543     5.4272    -2.5450 H       
  44 H44            5.3485     8.4654    -2.6674 H       
  45 H45            3.9594     7.1462    -1.1222 H       
  46 H46            6.5034     9.5338    -3.9419 H       
  47 H47            8.4915    10.2775    -5.4871 H       
  48 H48           10.3572     8.3731    -5.3994 H       
  49 H49            5.4117     9.7453     5.6013 H       
  50 H50            5.2813    11.0582     7.6790 H       
  51 H51            4.7941     9.9392     9.8160 H       
  52 H52            4.4344     7.5052     9.8822 H       
  53 H53            3.6393     5.5036     7.1940 H       
  54 H54            5.3825     5.2524     7.4522 H       
  55 H55            4.0826     4.4067     9.2691 H       
@<TRIPOS>BOND
   1    1   24 1
   2    1   21 1
   3    1   29 1
   4    2    3 1
   5    2   30 ar
   6    2   34 ar
   7    3    4 1
   8    3    7 am
   9    4    5 2
  10    5    6 1
  11    5    9 1
  12    6    7 1
  13    6   12 2
  14    7    8 2
  15    9   10 ar
  16    9   13 ar
  17   10   11 1
  18   10   16 ar
  19   11   12 1
  20   11   17 1
  21   12   37 1
  22   13   14 ar
  23   13   25 1
  24   14   15 ar
  25   14   38 1
  26   15   16 ar
  27   15   39 1
  28   16   26 1
  29   17   18 1
  30   17   40 1
  31   17   41 1
  32   18   19 ar
  33   18   23 ar
  34   19   20 ar
  35   19   42 1
  36   20   21 ar
  37   20   43 1
  38   21   22 ar
  39   22   23 ar
  40   22   44 1
  41   23   45 1
  42   24   27 2
  43   24   46 1
  44   27   28 1
  45   27   47 1
  46   28   29 2
  47   28   48 1
  48   30   31 ar
  49   30   49 1
  50   31   32 ar
  51   31   50 1
  52   32   33 ar
  53   32   51 1
  54   33   34 ar
  55   33   52 1
  56   34   35 1
  57   35   36 1
  58   35   53 1
  59   35   54 1
  60   36   55 1

#	End of record

