#	Name: ASD01940241
#	Creating user name:	WinNT
#	Creation time:	15. 06. 2019 20:12

#	Modifying user name:	WinNT
#	Modification time:	15. 06. 2019 20:12

#	Program:	/corina/corina34_cracker 3.40 0067  02.08.2006

@<TRIPOS>MOLECULE
ASD01940241
  36   38    0    0    0
SMALL
NO_CHARGES


@<TRIPOS>ATOM
   1 C1            -0.6272     1.2102     0.0908 C.2     
   2 C2            -0.4736    -0.1144     0.0557 C.2     
   3 C3             0.8393    -0.5507     0.1000 C.2     
   4 C4             1.7519     0.4195     0.1712 C.2     
   5 S5             0.9493     1.9844     0.1852 S.3     
   6 S6            -1.8386    -1.2245    -0.0394 S.o2    
   7 O7            -1.3851    -2.4640     0.4871 O.2     
   8 O8            -2.9618    -0.5246     0.4781 O.2     
   9 N9            -2.1485    -1.4839    -1.6453 N.am    
  10 C10           -1.1627    -2.0462    -2.4672 C.ar    
  11 C11           -1.0370    -1.6300    -3.7920 C.ar    
  12 C12           -0.0583    -2.1901    -4.6016 C.ar    
  13 C13            0.7901    -3.1602    -4.0912 C.ar    
  14 C14            0.6629    -3.5720    -2.7760 C.ar    
  15 C15           -0.3067    -3.0133    -1.9630 C.ar    
  16 N16           -1.8967    -0.6491    -4.3051 N.pl3   
  17 C17           -2.0469    -0.5048    -5.6879 C.ar    
  18 C18           -2.7808    -1.4400    -6.4110 C.ar    
  19 C19           -2.9272    -1.2934    -7.7776 C.ar    
  20 C20           -2.3443    -0.2184    -8.4256 C.ar    
  21 C21           -1.6140     0.7119    -7.7089 C.ar    
  22 C22           -1.4688     0.5749    -6.3415 C.ar    
  23 I23           -2.5680    -0.0004   -10.4971 I       
  24 F24           -3.3491    -2.4898    -5.7784 F       
  25 F25            1.7425    -3.7052    -4.8792 F       
  26 F26            0.0671    -1.7902    -5.8860 F       
  27 H27           -1.5744     1.7281     0.0612 H       
  28 H28            1.1046    -1.5974     0.0790 H       
  29 H29            2.8203     0.2673     0.2143 H       
  30 H30           -3.0125    -1.2467    -2.0170 H       
  31 H31            1.3253    -4.3287    -2.3822 H       
  32 H32           -0.3998    -3.3337    -0.9359 H       
  33 H33           -2.3876    -0.0703    -3.7009 H       
  34 H34           -3.4966    -2.0184    -8.3402 H       
  35 H35           -1.1599     1.5491    -8.2180 H       
  36 H36           -0.9020     1.3047    -5.7825 H       
@<TRIPOS>BOND
   1    1    2 2
   2    1    5 1
   3    1   27 1
   4    2    3 1
   5    2    6 1
   6    3    4 2
   7    3   28 1
   8    4    5 1
   9    4   29 1
  10    6    7 2
  11    6    8 2
  12    6    9 am
  13    9   10 1
  14    9   30 1
  15   10   11 ar
  16   10   15 ar
  17   11   12 ar
  18   11   16 1
  19   12   13 ar
  20   12   26 1
  21   13   14 ar
  22   13   25 1
  23   14   15 ar
  24   14   31 1
  25   15   32 1
  26   16   17 1
  27   16   33 1
  28   17   18 ar
  29   17   22 ar
  30   18   19 ar
  31   18   24 1
  32   19   20 ar
  33   19   34 1
  34   20   21 ar
  35   20   23 1
  36   21   22 ar
  37   21   35 1
  38   22   36 1

#	End of record

