#	Name: ASD05920003
#	Creating user name:	WinNT
#	Creation time:	15. 06. 2019 21:04

#	Modifying user name:	WinNT
#	Modification time:	15. 06. 2019 21:04

#	Program:	/corina/corina34_cracker 3.40 0067  02.08.2006

@<TRIPOS>MOLECULE
ASD05920003
  45   46    0    0    0
SMALL
NO_CHARGES


@<TRIPOS>ATOM
   1 N1            -0.0162     1.3400     0.0094 N.am    
   2 C2             0.0021    -0.0041     0.0020 C.2     
   3 N3            -1.1341    -0.7264     0.0090 N.am    
   4 C4            -2.3635    -0.0877     0.0242 C.2     
   5 C5            -2.3975     1.3011     0.0324 C.2     
   6 C6            -1.1821     2.0189     0.0298 C.2     
   7 N7            -3.6288    -0.5146     0.0336 N.2     
   8 C8            -4.4426     0.5102     0.0471 C.2     
   9 N9            -3.7319     1.6548     0.0469 N.pl3   
  10 C10           -4.2725     3.0163     0.0594 C.3     
  11 C11           -4.3551     3.5369    -1.3525 C.2     
  12 N12           -4.8262     4.7778    -1.5867 N.am    
  13 O13           -3.9975     2.8394    -2.2779 O.2     
  14 C14           -4.9065     5.2838    -2.9591 C.3     
  15 C15           -5.4711     6.7058    -2.9462 C.3     
  16 C16           -5.5549     7.2343    -4.3795 C.3     
  17 N17           -6.0970     8.5996    -4.3671 N.3     
  18 C18           -5.1703     9.5280    -3.7059 C.3     
  19 C19           -6.4142     9.0525    -5.7281 C.3     
  20 C20           -1.0704    -2.1900     0.0000 C.3     
  21 O21            1.0718    -0.5822    -0.0117 O.2     
  22 C22            1.2489     2.0787     0.0013 C.3     
  23 O23           -1.1857     3.2368     0.0373 O.2     
  24 H24           -5.5207     0.4479     0.0565 H       
  25 H25           -5.2684     3.0078     0.5023 H       
  26 H26           -3.6191     3.6614     0.6468 H       
  27 H27           -5.1122     5.3357    -0.8465 H       
  28 H28           -3.9106     5.2924    -3.4021 H       
  29 H29           -5.5599     4.6388    -3.5466 H       
  30 H30           -6.4670     6.6972    -2.5033 H       
  31 H31           -4.8177     7.3508    -2.3587 H       
  32 H32           -4.5590     7.2429    -4.8224 H       
  33 H33           -6.2083     6.5893    -4.9670 H       
  34 H34           -4.2198     9.5342    -4.2395 H       
  35 H35           -5.5961    10.5313    -3.7106 H       
  36 H36           -5.0072     9.2073    -2.6770 H       
  37 H37           -7.1555     8.3861    -6.1692 H       
  38 H38           -6.8137    10.0659    -5.6899 H       
  39 H39           -5.5088     9.0415    -6.3349 H       
  40 H40           -0.0279    -2.5082    -0.0120 H       
  41 H41           -1.5592    -2.5804     0.8926 H       
  42 H42           -1.5766    -2.5703    -0.8872 H       
  43 H43            2.0808     1.3746    -0.0104 H       
  44 H44            1.2951     2.7104    -0.8858 H       
  45 H45            1.3121     2.7009     0.8941 H       
@<TRIPOS>BOND
   1    1    2 am
   2    1   22 1
   3    1    6 am
   4    2    3 am
   5    2   21 2
   6    3    4 1
   7    3   20 1
   8    4    5 2
   9    4    7 1
  10    5    6 1
  11    5    9 1
  12    6   23 2
  13    7    8 2
  14    8    9 1
  15    8   24 1
  16    9   10 1
  17   10   11 1
  18   10   25 1
  19   10   26 1
  20   11   12 am
  21   11   13 2
  22   12   14 1
  23   12   27 1
  24   14   15 1
  25   14   28 1
  26   14   29 1
  27   15   16 1
  28   15   30 1
  29   15   31 1
  30   16   17 1
  31   16   32 1
  32   16   33 1
  33   17   18 1
  34   17   19 1
  35   18   34 1
  36   18   35 1
  37   18   36 1
  38   19   37 1
  39   19   38 1
  40   19   39 1
  41   20   40 1
  42   20   41 1
  43   20   42 1
  44   22   43 1
  45   22   44 1
  46   22   45 1

#	End of record

