#	Name: ASD02038905
#	Creating user name:	WinNT
#	Creation time:	15. 06. 2019 20:17

#	Modifying user name:	WinNT
#	Modification time:	15. 06. 2019 20:17

#	Program:	/corina/corina34_cracker 3.40 0067  02.08.2006

@<TRIPOS>MOLECULE
ASD02038905
  66   68    0    0    0
SMALL
NO_CHARGES


@<TRIPOS>ATOM
   1 C1             0.2759     0.9170    -0.2876 C.2     
   2 C2            -1.0143     1.6281     0.0298 C.3     
   3 C3            -0.9029     2.2992     1.4003 C.3     
   4 C4            -2.2518     2.9149     1.7778 C.3     
   5 O5             0.2769    -0.2760    -0.4791 O.2     
   6 O6             1.4231     1.6099    -0.3632 O.3     
   7 C7            -2.7330     0.3220    -1.1004 C.2     
   8 O8            -2.3800     0.8192    -2.1488 O.2     
   9 N9            -2.1138     0.6601     0.0480 N.am    
  10 N10           -3.5981    -1.7136    -0.0769 N.am    
  11 C11           -3.8640    -0.6738    -1.0817 C.3     
  12 C12           -5.1763     0.0300    -0.6765 C.3     
  13 C13           -5.2793    -0.2740     0.8415 C.3     
  14 C14           -4.6908    -1.7052     0.9127 C.3     
  15 C15           -2.5345    -2.5414    -0.0657 C.2     
  16 O16           -1.6953    -2.4623    -0.9377 O.2     
  17 N17           -1.4345    -4.6286     0.6220 N.3     
  18 C18           -2.3881    -3.5652     1.0304 C.3     
  19 C19           -1.7467    -2.9269     2.2812 C.3     
  20 C20           -0.8193    -4.0171     2.8567 C.3     
  21 C21           -0.9785    -5.2224     1.9052 C.3     
  22 C22           -4.0175    -1.3125    -2.4635 C.3     
  23 C23           -5.0731    -2.3865    -2.4060 C.ar    
  24 C24           -6.3838    -2.0852    -2.7255 C.ar    
  25 C25           -7.3521    -3.0704    -2.6727 C.ar    
  26 C26           -7.0095    -4.3569    -2.3009 C.ar    
  27 C27           -5.6986    -4.6584    -1.9822 C.ar    
  28 C28           -4.7296    -3.6743    -2.0392 C.ar    
  29 O29           -0.5273     1.3099     2.3945 O.3     
  30 C30            0.1931     1.7414     3.4417 C.2     
  31 O31            0.4997     2.9071     3.5247 O.2     
  32 C32            0.6196     0.7718     4.5137 C.3     
  33 C33            2.6261     0.8606    -0.6790 C.3     
  34 H34           -1.2088     2.3846    -0.7304 H       
  35 H35           -0.1447     3.0812     1.3614 H       
  36 H36           -2.1724     3.3930     2.7541 H       
  37 H37           -2.5337     3.6576     1.0314 H       
  38 H38           -3.0100     2.1329     1.8167 H       
  39 H39           -2.3961     0.2625     0.8865 H       
  40 H40           -5.1078     1.1038    -0.8510 H       
  41 H41           -6.0239    -0.3958    -1.2135 H       
  42 H42           -4.6772     0.4252     1.4217 H       
  43 H43           -6.3176    -0.2616     1.1729 H       
  44 H44           -5.4495    -2.4411     0.6462 H       
  45 H45           -4.3005    -1.9058     1.9104 H       
  46 H46           -1.8894    -5.3202     0.0451 H       
  47 H47           -3.3569    -3.9984     1.2791 H       
  48 H48           -1.1681    -2.0463     2.0023 H       
  49 H49           -2.5152    -2.6617     3.0072 H       
  50 H50            0.2144    -3.6716     2.8603 H       
  51 H51           -1.1327    -4.2870     3.8652 H       
  52 H52           -1.7267    -5.9149     2.2908 H       
  53 H53           -0.0231    -5.7296     1.7711 H       
  54 H54           -4.3130    -0.5508    -3.1850 H       
  55 H55           -3.0678    -1.7524    -2.7680 H       
  56 H56           -6.6514    -1.0800    -3.0161 H       
  57 H57           -8.3762    -2.8348    -2.9217 H       
  58 H58           -7.7661    -5.1265    -2.2589 H       
  59 H59           -5.4311    -5.6635    -1.6914 H       
  60 H60           -3.7047    -3.9107    -1.7938 H       
  61 H61            0.2534    -0.2251     4.2685 H       
  62 H62            1.7077     0.7542     4.5756 H       
  63 H63            0.2061     1.0852     5.4723 H       
  64 H64            2.5100     0.3795    -1.6501 H       
  65 H65            3.4790     1.5386    -0.7090 H       
  66 H66            2.7923     0.1013     0.0851 H       
@<TRIPOS>BOND
   1    1    5 2
   2    1    6 1
   3    1    2 1
   4    2    3 1
   5    2    9 1
   6    2   34 1
   7    3    4 1
   8    3   29 1
   9    3   35 1
  10    4   36 1
  11    4   37 1
  12    4   38 1
  13    6   33 1
  14    7    8 2
  15    7    9 am
  16    7   11 1
  17    9   39 1
  18   10   11 1
  19   10   14 1
  20   10   15 am
  21   11   12 1
  22   11   22 1
  23   12   13 1
  24   12   40 1
  25   12   41 1
  26   13   14 1
  27   13   42 1
  28   13   43 1
  29   14   44 1
  30   14   45 1
  31   15   16 2
  32   15   18 1
  33   17   18 1
  34   17   21 1
  35   17   46 1
  36   18   19 1
  37   18   47 1
  38   19   20 1
  39   19   48 1
  40   19   49 1
  41   20   21 1
  42   20   50 1
  43   20   51 1
  44   21   52 1
  45   21   53 1
  46   22   23 1
  47   22   54 1
  48   22   55 1
  49   23   24 ar
  50   23   28 ar
  51   24   25 ar
  52   24   56 1
  53   25   26 ar
  54   25   57 1
  55   26   27 ar
  56   26   58 1
  57   27   28 ar
  58   27   59 1
  59   28   60 1
  60   29   30 1
  61   30   31 2
  62   30   32 1
  63   32   61 1
  64   32   62 1
  65   32   63 1
  66   33   64 1
  67   33   65 1
  68   33   66 1

#	End of record

