#	Name: ASD01811203
#	Creating user name:	WinNT
#	Creation time:	15. 06. 2019 19:26

#	Modifying user name:	WinNT
#	Modification time:	15. 06. 2019 19:26

#	Program:	/corina/corina34_cracker 3.40 0067  02.08.2006

@<TRIPOS>MOLECULE
ASD01811203
  69   73    0    0    0
SMALL
NO_CHARGES


@<TRIPOS>ATOM
   1 C1            -7.2311    -0.9618     4.1771 C.2     
   2 C2            -6.2138    -1.7542     3.4539 C.ar    
   3 C3            -5.0692    -1.1336     2.9511 C.ar    
   4 C4            -4.1236    -1.8789     2.2776 C.ar    
   5 C5            -4.3081    -3.2386     2.0998 C.ar    
   6 C6            -5.4405    -3.8599     2.5958 C.ar    
   7 C7            -6.3911    -3.1272     3.2761 C.ar    
   8 O8            -7.0717     0.2329     4.3349 O.2     
   9 N9            -8.3380    -1.5630     4.6566 N.am    
  10 N10           -2.2111    -6.4370     0.2853 N.am    
  11 C11           -1.6448    -5.9332     1.5440 C.3     
  12 C12           -2.7228    -5.1364     2.2856 C.3     
  13 C13           -3.2714    -4.0462     1.3623 C.3     
  14 C14           -3.9099    -4.6922     0.1305 C.3     
  15 C15           -2.8453    -5.4839    -0.6355 C.3     
  16 C16           -2.1449    -7.7478    -0.0213 C.2     
  17 C17           -2.8008    -8.2546    -1.2458 C.ar    
  18 C18           -3.7326    -9.2919    -1.1627 C.ar    
  19 C19           -4.3457    -9.7661    -2.3050 C.ar    
  20 C20           -4.0432    -9.2191    -3.5365 C.ar    
  21 C21           -3.1139    -8.1815    -3.6337 C.ar    
  22 C22           -2.4950    -7.6948    -2.4843 C.ar    
  23 O23           -1.5461    -8.5133     0.7087 O.2     
  24 C24           -4.0689    -9.8949     0.1768 C.3     
  25 C25           -5.0662    -8.9926     0.9064 C.3     
  26 N26           -2.7940    -7.2355    -7.0490 N.2     
  27 N27           -3.2989    -7.9536    -6.1103 N.2     
  28 C28           -2.7908    -7.5973    -4.9534 C.2     
  29 N29           -1.9025    -6.5785    -5.2005 N.pl3   
  30 C30           -1.9351    -6.3794    -6.5488 C.2     
  31 O31           -1.2142    -5.4666    -7.2434 O.3     
  32 C32           -1.4058    -5.4294    -8.6590 C.3     
  33 C33           -0.5141    -4.3444    -9.2660 C.3     
  34 C34           -4.7172    -9.7436    -4.7782 C.3     
  35 C35           -4.5159   -11.2211    -5.1207 C.3     
  36 C36           -5.8672   -10.7355    -4.5924 C.3     
  37 H37           -4.9243    -0.0722     3.0886 H       
  38 H38           -3.2375    -1.3999     1.8880 H       
  39 H39           -5.5786    -4.9216     2.4536 H       
  40 H40           -7.2724    -3.6142     3.6667 H       
  41 H41           -8.4671    -2.5156     4.5273 H       
  42 H42           -9.0054    -1.0431     5.1311 H       
  43 H43           -1.3211    -6.7717     2.1606 H       
  44 H44           -0.7948    -5.2856     1.3289 H       
  45 H45           -3.5317    -5.8052     2.5797 H       
  46 H46           -2.2891    -4.6768     3.1737 H       
  47 H47           -2.4575    -3.3926     1.0486 H       
  48 H48           -4.7076    -5.3651     0.4449 H       
  49 H49           -4.3211    -3.9163    -0.5153 H       
  50 H50           -2.0933    -4.7996    -1.0283 H       
  51 H51           -3.3138    -6.0260    -1.4570 H       
  52 H52           -5.0650   -10.5688    -2.2354 H       
  53 H53           -1.7785    -6.8896    -2.5536 H       
  54 H54           -4.5103   -10.8808     0.0309 H       
  55 H55           -3.1604    -9.9879     0.7718 H       
  56 H56           -5.3095    -9.4288     1.8752 H       
  57 H57           -4.6249    -8.0067     1.0523 H       
  58 H58           -5.9747    -8.8996     0.3114 H       
  59 H59           -1.3638    -6.1006    -4.5507 H       
  60 H60           -1.1431    -6.3970    -9.0867 H       
  61 H61           -2.4499    -5.2066    -8.8786 H       
  62 H62            0.5300    -4.5673    -9.0464 H       
  63 H63           -0.6603    -4.3161   -10.3458 H       
  64 H64           -0.7768    -3.3769    -8.8383 H       
  65 H65           -4.7882    -9.0398    -5.6075 H       
  66 H66           -4.4548   -11.4894    -6.1754 H       
  67 H67           -3.8960   -11.8138    -4.4480 H       
  68 H68           -6.1363   -11.0087    -3.5721 H       
  69 H69           -6.6951   -10.6843    -5.2995 H       
@<TRIPOS>BOND
   1    1    2 1
   2    1    8 2
   3    1    9 am
   4    2    3 ar
   5    2    7 ar
   6    3    4 ar
   7    3   37 1
   8    4    5 ar
   9    4   38 1
  10    5    6 ar
  11    5   13 1
  12    6    7 ar
  13    6   39 1
  14    7   40 1
  15    9   41 1
  16    9   42 1
  17   10   11 1
  18   10   15 1
  19   10   16 am
  20   11   12 1
  21   11   43 1
  22   11   44 1
  23   12   13 1
  24   12   45 1
  25   12   46 1
  26   13   14 1
  27   13   47 1
  28   14   15 1
  29   14   48 1
  30   14   49 1
  31   15   50 1
  32   15   51 1
  33   16   17 1
  34   16   23 2
  35   17   18 ar
  36   17   22 ar
  37   18   19 ar
  38   18   24 1
  39   19   20 ar
  40   19   52 1
  41   20   21 ar
  42   20   34 1
  43   21   22 ar
  44   21   28 1
  45   22   53 1
  46   24   25 1
  47   24   54 1
  48   24   55 1
  49   25   56 1
  50   25   57 1
  51   25   58 1
  52   26   27 1
  53   26   30 2
  54   27   28 2
  55   28   29 1
  56   29   30 1
  57   29   59 1
  58   30   31 1
  59   31   32 1
  60   32   33 1
  61   32   60 1
  62   32   61 1
  63   33   62 1
  64   33   63 1
  65   33   64 1
  66   34   35 1
  67   34   36 1
  68   34   65 1
  69   35   36 1
  70   35   66 1
  71   35   67 1
  72   36   68 1
  73   36   69 1

#	End of record

