#	Name: ASD03080221
#	Creating user name:	WinNT
#	Creation time:	15. 06. 2019 20:26

#	Modifying user name:	WinNT
#	Modification time:	15. 06. 2019 20:26

#	Program:	/corina/corina34_cracker 3.40 0067  02.08.2006

@<TRIPOS>MOLECULE
ASD03080221
  44   47    0    0    0
SMALL
NO_CHARGES


@<TRIPOS>ATOM
   1 C1            -0.0034     1.5102     0.0204 C.3     
   2 C2             0.0021    -0.0041     0.0020 C.3     
   3 C3             2.1314    -0.1227     1.2007 C.3     
   4 C4             2.2180     1.3957     1.2019 C.3     
   5 C5             1.4627     1.9831     0.0183 C.3     
   6 C6             2.9233    -0.6382     2.4023 C.3     
   7 C7             4.4088    -0.4010     2.1328 C.3     
   8 C8             4.6620     1.0079     1.6646 C.ar    
   9 C9             3.6530     1.8359     1.2218 C.ar    
  10 C10           -1.3559    -0.6964     0.0295 C.3     
  11 C11           -1.1260    -2.0168     0.8064 C.3     
  12 C12            0.3536    -1.9952     1.2785 C.3     
  13 C13            0.6688    -0.4991     1.3159 C.3     
  14 C14            3.9525     3.1173     0.7801 C.ar    
  15 C15            5.9726     1.4651     1.6780 C.ar    
  16 C16            6.2761     2.7471     1.2528 C.ar    
  17 C17            5.2529     3.5759     0.7841 C.ar    
  18 O18            7.5623     3.1854     1.2710 O.3     
  19 O19           -1.7968    -0.9749    -1.3010 O.3     
  20 C20            0.8073    -0.5003    -1.2006 C.3     
  21 H21           -0.5151     1.8887    -0.8645 H       
  22 H22           -0.5056     1.8671     0.9196 H       
  23 H23            2.5623    -0.5156     0.2798 H       
  24 H24            1.7436     1.7540     2.1155 H       
  25 H25            1.9416     1.6643    -0.9075 H       
  26 H26            1.4892     3.0711     0.0794 H       
  27 H27            2.6217    -0.0987     3.3001 H       
  28 H28            2.7391    -1.7044     2.5340 H       
  29 H29            4.9706    -0.5787     3.0498 H       
  30 H30            4.7483    -1.0981     1.3668 H       
  31 H31           -2.0862    -0.0752     0.5480 H       
  32 H32           -1.7928    -2.0654     1.6673 H       
  33 H33           -1.2972    -2.8710     0.1513 H       
  34 H34            0.4473    -2.4308     2.2733 H       
  35 H35            0.9933    -2.5164     0.5663 H       
  36 H36            0.2255    -0.0379     2.1985 H       
  37 H37            3.1595     3.7612     0.4296 H       
  38 H38            6.7626     0.8150     2.0237 H       
  39 H39            5.4778     4.5741     0.4385 H       
  40 H40            8.0484     3.0123     0.4531 H       
  41 H41           -2.6563    -1.4156    -1.3463 H       
  42 H42            1.8014    -0.0536    -1.1815 H       
  43 H43            0.8958    -1.5857    -1.1557 H       
  44 H44            0.2984    -0.2149    -2.1213 H       
@<TRIPOS>BOND
   1    1    2 1
   2    1    5 1
   3    1   21 1
   4    1   22 1
   5    2   20 1
   6    2   10 1
   7    2   13 1
   8    3    6 1
   9    3    4 1
  10    3   13 1
  11    3   23 1
  12    4    5 1
  13    4    9 1
  14    4   24 1
  15    5   25 1
  16    5   26 1
  17    6    7 1
  18    6   27 1
  19    6   28 1
  20    7    8 1
  21    7   29 1
  22    7   30 1
  23    8   15 ar
  24    8    9 ar
  25    9   14 ar
  26   10   11 1
  27   10   19 1
  28   10   31 1
  29   11   12 1
  30   11   32 1
  31   11   33 1
  32   12   13 1
  33   12   34 1
  34   12   35 1
  35   13   36 1
  36   14   17 ar
  37   14   37 1
  38   15   16 ar
  39   15   38 1
  40   16   17 ar
  41   16   18 1
  42   17   39 1
  43   18   40 1
  44   19   41 1
  45   20   42 1
  46   20   43 1
  47   20   44 1

#	End of record

