#	Name: ASD01884423
#	Creating user name:	WinNT
#	Creation time:	15. 06. 2019 19:48

#	Modifying user name:	WinNT
#	Modification time:	15. 06. 2019 19:48

#	Program:	/corina/corina34_cracker 3.40 0067  02.08.2006

@<TRIPOS>MOLECULE
ASD01884423
  37   39    0    0    0
SMALL
NO_CHARGES


@<TRIPOS>ATOM
   1 C1            -0.0164     1.3575     0.0095 C.2     
   2 C2             0.0021    -0.0041     0.0020 C.2     
   3 C3             1.2441    -0.6750    -0.0134 C.2     
   4 C4             2.4025     0.0467    -0.0206 C.2     
   5 N5             2.3701     1.4022    -0.0130 N.am    
   6 C6             1.1988     2.0651     0.0017 C.2     
   7 C7             1.2900    -2.1582    -0.0214 C.ar    
   8 C8             3.6267     2.1552    -0.0205 C.3     
   9 O9             1.1913     3.2854     0.0083 O.2     
  10 C10            4.0446     2.4211    -1.4438 C.ar    
  11 C11            3.6209     3.5699    -2.0854 C.ar    
  12 C12            4.0042     3.8137    -3.3910 C.ar    
  13 C13            4.8115     2.9090    -4.0548 C.ar    
  14 C14            5.2359     1.7607    -3.4129 C.ar    
  15 C15            4.8562     1.5189    -2.1059 C.ar    
  16 C16            0.8132    -2.8783     1.0719 C.ar    
  17 C17            1.8049    -2.8361    -1.1248 C.ar    
  18 C18            1.8452    -4.2154    -1.1268 C.ar    
  19 C19            1.3752    -4.9253    -0.0363 C.ar    
  20 C20            0.8583    -4.2578     1.0592 C.ar    
  21 N21            0.3578    -5.0241     2.2225 N.pl3   
  22 O22            0.4014    -6.2413     2.2144 O.2     
  23 O23           -0.0977    -4.4374     3.1879 O.2     
  24 H24           -0.9563     1.8894     0.0168 H       
  25 H25           -0.9217    -0.5636     0.0082 H       
  26 H26            3.3529    -0.4661    -0.0321 H       
  27 H27            3.4856     3.1026     0.4997 H       
  28 H28            4.4005     1.5758     0.4831 H       
  29 H29            2.9902     4.2767    -1.5668 H       
  30 H30            3.6726     4.7109    -3.8925 H       
  31 H31            5.1103     3.0992    -5.0751 H       
  32 H32            5.8663     1.0537    -3.9316 H       
  33 H33            5.1877     0.6218    -1.6043 H       
  34 H34            0.4093    -2.3580     1.9279 H       
  35 H35            2.1714    -2.2829    -1.9769 H       
  36 H36            2.2440    -4.7418    -1.9813 H       
  37 H37            1.4080    -6.0048    -0.0423 H       
@<TRIPOS>BOND
   1    1    2 2
   2    1    6 1
   3    1   24 1
   4    2    3 1
   5    2   25 1
   6    3    4 2
   7    3    7 1
   8    4    5 1
   9    4   26 1
  10    5    6 am
  11    5    8 1
  12    6    9 2
  13    7   16 ar
  14    7   17 ar
  15    8   10 1
  16    8   27 1
  17    8   28 1
  18   10   11 ar
  19   10   15 ar
  20   11   12 ar
  21   11   29 1
  22   12   13 ar
  23   12   30 1
  24   13   14 ar
  25   13   31 1
  26   14   15 ar
  27   14   32 1
  28   15   33 1
  29   16   20 ar
  30   16   34 1
  31   17   18 ar
  32   17   35 1
  33   18   19 ar
  34   18   36 1
  35   19   20 ar
  36   19   37 1
  37   20   21 1
  38   21   22 2
  39   21   23 2

#	End of record

