#	Name: ASD01150057
#	Creating user name:	WinNT
#	Creation time:	15. 06. 2019 19:03

#	Modifying user name:	WinNT
#	Modification time:	15. 06. 2019 19:03

#	Program:	/corina/corina34_cracker 3.40 0067  02.08.2006

@<TRIPOS>MOLECULE
ASD01150057
  29   28    0    0    0
SMALL
NO_CHARGES


@<TRIPOS>ATOM
   1 C1            -1.3026     0.4573     0.2814 C.3     
   2 C2             0.1595     0.1657    -0.0622 C.3     
   3 C3             0.8591    -0.3912     1.1508 C.2     
   4 N4             0.7102    -1.7015     1.4795 N.pl3   
   5 N5             1.6106     0.3874     1.8881 N.2     
   6 C6             1.6835     1.7130     1.6171 C.1     
   7 N7             1.7446     2.8244     1.3900 N.1     
   8 C8             1.2917    -2.2158     2.7219 C.3     
   9 C9            -0.0320    -2.5997     0.5913 C.3     
  10 C10            0.8994    -3.1524    -0.4566 C.2     
  11 O11            2.0636    -2.8292    -0.4611 O.2     
  12 O12            0.4356    -4.0037    -1.3849 O.3     
  13 C13            1.3892    -4.4960    -2.3630 C.3     
  14 C14            0.6821    -5.4465    -3.3312 C.3     
  15 H15           -1.3476     1.1190     1.1465 H       
  16 H16           -1.7869     0.9376    -0.5688 H       
  17 H17           -1.8151    -0.4768     0.5114 H       
  18 H18            0.2040    -0.5614    -0.8731 H       
  19 H19            0.6504     1.0877    -0.3736 H       
  20 H20            0.5664    -2.1191     3.5298 H       
  21 H21            1.5541    -3.2658     2.5929 H       
  22 H22            2.1873    -1.6450     2.9673 H       
  23 H23           -0.4523    -3.4201     1.1730 H       
  24 H24           -0.8374    -2.0477     0.1068 H       
  25 H25            1.8065    -3.6560    -2.9183 H       
  26 H26            2.1916    -5.0284    -1.8522 H       
  27 H27            1.3979    -5.8161    -4.0654 H       
  28 H28            0.2648    -6.2865    -2.7759 H       
  29 H29           -0.1203    -4.9142    -3.8420 H       
@<TRIPOS>BOND
   1    1    2 1
   2    1   15 1
   3    1   16 1
   4    1   17 1
   5    2    3 1
   6    2   18 1
   7    2   19 1
   8    3    4 1
   9    3    5 2
  10    4    8 1
  11    4    9 1
  12    5    6 1
  13    6    7 3
  14    8   20 1
  15    8   21 1
  16    8   22 1
  17    9   10 1
  18    9   23 1
  19    9   24 1
  20   10   11 2
  21   10   12 1
  22   12   13 1
  23   13   14 1
  24   13   25 1
  25   13   26 1
  26   14   27 1
  27   14   28 1
  28   14   29 1

#	End of record

