#	Name: ASD08178368
#	Creating user name:	WinNT
#	Creation time:	15. 06. 2019 21:18

#	Modifying user name:	WinNT
#	Modification time:	15. 06. 2019 21:18

#	Program:	/corina/corina34_cracker 3.40 0067  02.08.2006

@<TRIPOS>MOLECULE
ASD08178368
 100  103    0    0    0
SMALL
NO_CHARGES


@<TRIPOS>ATOM
   1 N1             3.3973    -1.4629    -4.7003 N.am    
   2 C2             3.1217    -2.6847    -4.0872 C.ar    
   3 C3             4.1075    -3.3345    -3.3472 C.ar    
   4 N4             1.9199    -3.2300    -4.2009 N.ar    
   5 N5             1.6258    -4.3523    -3.6519 N.ar    
   6 C6             2.4982    -5.0371    -2.9387 C.ar    
   7 C7             3.7831    -4.5466    -2.7569 C.ar    
   8 C8             2.0978    -6.3498    -2.3162 C.3     
   9 C9             0.8532    -6.1449    -1.4502 C.3     
  10 C10            0.4466    -7.4776    -0.8181 C.3     
  11 C11           -0.7980    -7.2727     0.0478 C.3     
  12 C12           -1.1984    -8.5854     0.6704 C.2     
  13 N13           -0.7935    -9.0447     1.8117 N.2     
  14 N14           -1.2462   -10.1705     2.1604 N.2     
  15 C15           -2.0711   -10.7652     1.3523 C.2     
  16 S16           -2.3088    -9.7689    -0.0209 S.3     
  17 N17           -2.6670   -12.0031     1.5687 N.am    
  18 C18           -2.2918   -12.7569     2.6210 C.2     
  19 C19           -2.8178   -14.1615     2.7675 C.3     
  20 O20           -1.5308   -12.3048     3.4501 O.2     
  21 C21           -1.7703   -15.0245     3.4224 C.ar    
  22 C22           -1.2744   -16.1317     2.7604 C.ar    
  23 C23           -0.3134   -16.9235     3.3612 C.ar    
  24 C24            0.1518   -16.6074     4.6238 C.ar    
  25 C25           -0.3436   -15.4993     5.2857 C.ar    
  26 C26           -1.3012   -14.7053     4.6832 C.ar    
  27 C27            0.2266   -18.1314     2.6398 C.3     
  28 N28            1.3944   -17.7437     1.8447 N.am    
  29 C29            2.0462   -18.6668     1.1103 C.2     
  30 O30            1.6652   -19.8207     1.1076 O.2     
  31 O31            3.1194   -18.3106     0.3796 O.3     
  32 C32            3.7719   -19.3570    -0.3869 C.3     
  33 C33            2.7768   -19.9557    -1.3830 C.3     
  34 C34            2.4799    -0.8907    -5.5049 C.2     
  35 C35            2.7300     0.4811    -6.0765 C.3     
  36 O36            1.4532    -1.4796    -5.7689 O.2     
  37 C37            1.5605     0.8883    -6.9353 C.ar    
  38 C38            0.4955     1.5689    -6.3753 C.ar    
  39 C39           -0.5772     1.9424    -7.1631 C.ar    
  40 C40           -0.5848     1.6357    -8.5109 C.ar    
  41 C41            0.4806     0.9559    -9.0711 C.ar    
  42 C42            1.5553     0.5863    -8.2842 C.ar    
  43 C43            4.9614   -18.7664    -1.1468 C.3     
  44 C44            4.2653   -20.4516     0.5615 C.3     
  45 C45           -4.0796   -14.1459     3.6327 C.3     
  46 O46           -5.1224   -13.4552     2.9417 O.3     
  47 C47           -3.7026   -12.4876     0.6527 C.3     
  48 O48           -4.9869   -11.9283     1.0347 O.3     
  49 C49           -5.2509   -10.6761     0.6298 C.2     
  50 O50           -4.4930   -10.1123    -0.1236 O.2     
  51 C51           -6.4926    -9.9733     1.1149 C.3     
  52 C52           -6.5542    -8.5699     0.5086 C.3     
  53 C53           -7.8149    -7.8565     1.0012 C.3     
  54 H54            4.2476    -1.0230    -4.5446 H       
  55 H55            5.0935    -2.9077    -3.2372 H       
  56 H56            4.5104    -5.0944    -2.1762 H       
  57 H57            1.8787    -7.0728    -3.1020 H       
  58 H58            2.9139    -6.7223    -1.6971 H       
  59 H59            1.0723    -5.4220    -0.6644 H       
  60 H60            0.0371    -5.7724    -2.0693 H       
  61 H61            0.2275    -8.2006    -1.6039 H       
  62 H62            1.2627    -7.8501    -0.1990 H       
  63 H63           -0.5789    -6.5498     0.8336 H       
  64 H64           -1.6141    -6.9003    -0.5713 H       
  65 H65           -3.0571   -14.5643     1.7833 H       
  66 H66           -1.6379   -16.3787     1.7738 H       
  67 H67            0.9020   -17.2263     5.0935 H       
  68 H68            0.0197   -15.2525     6.2724 H       
  69 H69           -1.6881   -13.8397     5.2002 H       
  70 H70            0.5176   -18.8891     3.3673 H       
  71 H71           -0.5428   -18.5358     1.9821 H       
  72 H72            1.6985   -16.8226     1.8468 H       
  73 H73            2.4253   -19.1758    -2.0586 H       
  74 H74            3.2666   -20.7412    -1.9583 H       
  75 H75            1.9294   -20.3764    -0.8416 H       
  76 H76            2.8504     1.1971    -5.2634 H       
  77 H77            3.6363     0.4629    -6.6817 H       
  78 H78            0.5015     1.8085    -5.3222 H       
  79 H79           -1.4096     2.4735    -6.7254 H       
  80 H80           -1.4232     1.9268    -9.1263 H       
  81 H81            0.4745     0.7160   -10.1241 H       
  82 H82            2.3876     0.0552    -8.7219 H       
  83 H83            5.6703   -18.3400    -0.4372 H       
  84 H84            5.4512   -19.5520    -1.7221 H       
  85 H85            4.6099   -17.9866    -1.8224 H       
  86 H86            3.4179   -20.8724     1.1028 H       
  87 H87            4.7551   -21.2372    -0.0139 H       
  88 H88            4.9743   -20.0251     1.2711 H       
  89 H89           -4.3940   -15.1697     3.8351 H       
  90 H90           -3.8687   -13.6378     4.5737 H       
  91 H91           -5.9304   -13.3419     3.4609 H       
  92 H92           -3.4605   -12.1802    -0.3647 H       
  93 H93           -3.7509   -13.5755     0.7017 H       
  94 H94           -7.3729   -10.5395     0.8107 H       
  95 H95           -6.4666    -9.8986     2.2021 H       
  96 H96           -5.6740    -8.0037     0.8129 H       
  97 H97           -6.5803    -8.6447    -0.5785 H       
  98 H98           -7.8588    -6.8567     0.5692 H       
  99 H99           -8.6952    -8.4227     0.6969 H       
 100 H100          -7.7888    -7.7818     2.0883 H       
@<TRIPOS>BOND
   1    1    2 1
   2    1   34 am
   3    1   54 1
   4    2    3 ar
   5    2    4 ar
   6    3    7 ar
   7    3   55 1
   8    4    5 ar
   9    5    6 ar
  10    6    7 ar
  11    6    8 1
  12    7   56 1
  13    8    9 1
  14    8   57 1
  15    8   58 1
  16    9   10 1
  17    9   59 1
  18    9   60 1
  19   10   11 1
  20   10   61 1
  21   10   62 1
  22   11   12 1
  23   11   63 1
  24   11   64 1
  25   12   13 2
  26   12   16 1
  27   13   14 1
  28   14   15 2
  29   15   16 1
  30   15   17 1
  31   17   18 am
  32   17   47 1
  33   18   19 1
  34   18   20 2
  35   19   21 1
  36   19   45 1
  37   19   65 1
  38   21   22 ar
  39   21   26 ar
  40   22   23 ar
  41   22   66 1
  42   23   24 ar
  43   23   27 1
  44   24   25 ar
  45   24   67 1
  46   25   26 ar
  47   25   68 1
  48   26   69 1
  49   27   28 1
  50   27   70 1
  51   27   71 1
  52   28   29 am
  53   28   72 1
  54   29   30 2
  55   29   31 1
  56   31   32 1
  57   32   33 1
  58   32   43 1
  59   32   44 1
  60   33   73 1
  61   33   74 1
  62   33   75 1
  63   34   35 1
  64   34   36 2
  65   35   37 1
  66   35   76 1
  67   35   77 1
  68   37   38 ar
  69   37   42 ar
  70   38   39 ar
  71   38   78 1
  72   39   40 ar
  73   39   79 1
  74   40   41 ar
  75   40   80 1
  76   41   42 ar
  77   41   81 1
  78   42   82 1
  79   43   83 1
  80   43   84 1
  81   43   85 1
  82   44   86 1
  83   44   87 1
  84   44   88 1
  85   45   46 1
  86   45   89 1
  87   45   90 1
  88   46   91 1
  89   47   48 1
  90   47   92 1
  91   47   93 1
  92   48   49 1
  93   49   50 2
  94   49   51 1
  95   51   52 1
  96   51   94 1
  97   51   95 1
  98   52   53 1
  99   52   96 1
 100   52   97 1
 101   53   98 1
 102   53   99 1
 103   53  100 1

#	End of record

