#	Name: ASD01150296
#	Creating user name:	WinNT
#	Creation time:	15. 06. 2019 19:04

#	Modifying user name:	WinNT
#	Modification time:	15. 06. 2019 19:04

#	Program:	/corina/corina34_cracker 3.40 0067  02.08.2006

@<TRIPOS>MOLECULE
ASD01150296
  83   86    0    0    0
SMALL
NO_CHARGES


@<TRIPOS>ATOM
   1 C1            -0.9838     1.3246     0.0218 C.2     
   2 N2            -0.7504     0.0291    -0.0012 N.2     
   3 C3            -1.9038    -0.6445     0.0161 C.2     
   4 C4            -2.9366     0.2837     0.0524 C.2     
   5 N5            -2.3256     1.5396     0.0615 N.pl3   
   6 N6            -0.0205     2.3069     0.0131 N.3     
   7 C7             1.3268     1.7227    -0.0264 C.3     
   8 C8            -0.2249     3.2348    -1.1073 C.3     
   9 C9            -2.9715     2.7822     0.0958 C.ar    
  10 N10           -2.0453    -2.0278     0.0001 N.am    
  11 C11           -4.3198     0.0130     0.0798 C.2     
  12 O12           -5.2065     1.0310     0.1136 O.3     
  13 O13           -4.7151    -1.1388     0.0729 O.2     
  14 C14           -6.5923     0.6836     0.1400 C.3     
  15 C15           -6.8838    -0.1570     1.3847 C.3     
  16 C16           -7.4371     1.9587     0.1764 C.3     
  17 C17           -6.9399    -0.1229    -1.1129 C.3     
  18 C18           -2.8196     3.6151     1.1964 C.ar    
  19 C19           -3.4578     4.8396     1.2273 C.ar    
  20 C20           -4.2473     5.2364     0.1636 C.ar    
  21 C21           -4.4005     4.4092    -0.9339 C.ar    
  22 C22           -3.7604     3.1860    -0.9732 C.ar    
  23 C23           -0.9531    -2.8166    -0.0357 C.2     
  24 C24           -1.1064    -4.3157    -0.0530 C.3     
  25 O25            0.1532    -2.3200    -0.0539 O.2     
  26 C26           -1.9040    -4.7324    -1.2904 C.3     
  27 C27           -2.1730    -6.2144    -1.2390 C.ar    
  28 C28           -3.2598    -6.6955    -0.5332 C.ar    
  29 C29           -3.5065    -8.0549    -0.4860 C.ar    
  30 C30           -2.6665    -8.9330    -1.1450 C.ar    
  31 C31           -1.5802    -8.4518    -1.8516 C.ar    
  32 C32           -1.3360    -7.0921    -1.9023 C.ar    
  33 N33            0.2176    -4.9416    -0.0918 N.am    
  34 S34            0.9309    -5.4575     1.3108 S.o2    
  35 C35           -0.1522    -6.7846     1.9079 C.3     
  36 O36            2.1826    -5.9852     0.8939 O.2     
  37 O37            0.8617    -4.3310     2.1742 O.2     
  38 C38            0.3366    -7.2666     3.2495 C.ar    
  39 C39           -0.1325    -6.6771     4.4086 C.ar    
  40 C40            0.3159    -7.1192     5.6392 C.ar    
  41 C41            1.2330    -8.1511     5.7107 C.ar    
  42 C42            1.7014    -8.7411     4.5516 C.ar    
  43 C43            1.2497    -8.3019     3.3212 C.ar    
  44 C44            1.7226    -8.6324     7.0522 C.3     
  45 H45            1.4349     1.1191    -0.9276 H       
  46 H46            2.0689     2.5210    -0.0326 H       
  47 H47            1.4763     1.0944     0.8517 H       
  48 H48           -1.2036     3.7058    -1.0149 H       
  49 H49            0.5501     4.0010    -1.0905 H       
  50 H50           -0.1731     2.6860    -2.0476 H       
  51 H51           -2.9301    -2.4250     0.0147 H       
  52 H52           -6.6362     0.4175     2.2773 H       
  53 H53           -7.9409    -0.4220     1.4048 H       
  54 H54           -6.2820    -1.0654     1.3588 H       
  55 H55           -7.2295     2.5575    -0.7104 H       
  56 H56           -8.4943     1.6937     0.1965 H       
  57 H57           -7.1895     2.5332     1.0690 H       
  58 H58           -6.3380    -1.0313    -1.1388 H       
  59 H59           -7.9970    -0.3879    -1.0928 H       
  60 H60           -6.7322     0.4760    -1.9997 H       
  61 H61           -2.2034     3.3056     2.0276 H       
  62 H62           -3.3403     5.4877     2.0832 H       
  63 H63           -4.7456     6.1943     0.1903 H       
  64 H64           -5.0181     4.7218    -1.7629 H       
  65 H65           -3.8802     2.5406    -1.8308 H       
  66 H66           -1.6342    -4.6373     0.8448 H       
  67 H67           -2.8503    -4.1920    -1.3117 H       
  68 H68           -1.3314    -4.4980    -2.1877 H       
  69 H69           -3.9160    -6.0094    -0.0183 H       
  70 H70           -4.3552    -8.4308     0.0660 H       
  71 H71           -2.8589    -9.9951    -1.1076 H       
  72 H72           -0.9238    -9.1379    -2.3662 H       
  73 H73           -0.4873    -6.7161    -2.4544 H       
  74 H74            0.6764    -5.0538    -0.9390 H       
  75 H75           -1.1698    -6.4064     2.0064 H       
  76 H76           -0.1391    -7.6115     1.1979 H       
  77 H77           -0.8490    -5.8710     4.3527 H       
  78 H78           -0.0500    -6.6583     6.5447 H       
  79 H79            2.4182    -9.5470     4.6075 H       
  80 H80            1.6156    -8.7629     2.4157 H       
  81 H81            1.0718    -9.4293     7.4120 H       
  82 H82            2.7400    -9.0110     6.9533 H       
  83 H83            1.7102    -7.8050     7.7617 H       
@<TRIPOS>BOND
   1    1    2 2
   2    1    6 1
   3    1    5 1
   4    2    3 1
   5    3    4 2
   6    3   10 1
   7    4    5 1
   8    4   11 1
   9    5    9 1
  10    6    7 1
  11    6    8 1
  12    7   45 1
  13    7   46 1
  14    7   47 1
  15    8   48 1
  16    8   49 1
  17    8   50 1
  18    9   18 ar
  19    9   22 ar
  20   10   23 am
  21   10   51 1
  22   11   12 1
  23   11   13 2
  24   12   14 1
  25   14   15 1
  26   14   16 1
  27   14   17 1
  28   15   52 1
  29   15   53 1
  30   15   54 1
  31   16   55 1
  32   16   56 1
  33   16   57 1
  34   17   58 1
  35   17   59 1
  36   17   60 1
  37   18   19 ar
  38   18   61 1
  39   19   20 ar
  40   19   62 1
  41   20   21 ar
  42   20   63 1
  43   21   22 ar
  44   21   64 1
  45   22   65 1
  46   23   24 1
  47   23   25 2
  48   24   26 1
  49   24   33 1
  50   24   66 1
  51   26   27 1
  52   26   67 1
  53   26   68 1
  54   27   28 ar
  55   27   32 ar
  56   28   29 ar
  57   28   69 1
  58   29   30 ar
  59   29   70 1
  60   30   31 ar
  61   30   71 1
  62   31   32 ar
  63   31   72 1
  64   32   73 1
  65   33   34 am
  66   33   74 1
  67   34   35 1
  68   34   36 2
  69   34   37 2
  70   35   38 1
  71   35   75 1
  72   35   76 1
  73   38   39 ar
  74   38   43 ar
  75   39   40 ar
  76   39   77 1
  77   40   41 ar
  78   40   78 1
  79   41   42 ar
  80   41   44 1
  81   42   43 ar
  82   42   79 1
  83   43   80 1
  84   44   81 1
  85   44   82 1
  86   44   83 1

#	End of record

