#	Name: ASD07301371
#	Creating user name:	WinNT
#	Creation time:	15. 06. 2019 21:11

#	Modifying user name:	WinNT
#	Modification time:	15. 06. 2019 21:11

#	Program:	/corina/corina34_cracker 3.40 0067  02.08.2006

@<TRIPOS>MOLECULE
ASD07301371
  34   34    0    0    0
SMALL
NO_CHARGES


@<TRIPOS>ATOM
   1 C1            -0.0377     1.4580    -0.1087 C.2     
   2 C2             0.0024    -0.0074     0.0084 C.2     
   3 C3             1.2859    -0.7073    -0.0093 C.2     
   4 C4             1.9701    -1.0594     1.2864 C.3     
   5 C5             3.2192    -1.8929     0.9935 C.3     
   6 O6             0.9963     2.0873    -0.2203 O.2     
   7 O7            -1.2215     2.1030    -0.0980 O.3     
   8 N8            -1.1215    -0.6914     0.1297 N.2     
   9 N9            -1.0950    -1.9811     0.1282 N.pl3   
  10 C10           -2.2884    -2.7034     0.1497 C.ar    
  11 C11           -2.2618    -4.0933     0.1481 C.ar    
  12 C12           -3.4448    -4.8046     0.1700 C.ar    
  13 C13           -4.6555    -4.1360     0.1935 C.ar    
  14 C14           -4.6860    -2.7535     0.1948 C.ar    
  15 C15           -3.5066    -2.0352     0.1787 C.ar    
  16 C16           -3.4171    -6.3114     0.1677 C.3     
  17 F17           -3.3832    -6.7791     1.4858 F       
  18 F18           -4.5630    -6.7979    -0.4704 F       
  19 F19           -2.2793    -6.7559    -0.5142 F       
  20 O20            1.8003    -1.0049    -1.0676 O.2     
  21 C21           -1.1851     3.5496    -0.2177 C.3     
  22 H22            2.2570    -0.1451     1.8059 H       
  23 H23            1.2882    -1.6345     1.9128 H       
  24 H24            2.9323    -2.8072     0.4740 H       
  25 H25            3.9011    -1.3179     0.3671 H       
  26 H26            3.7141    -2.1476     1.9307 H       
  27 H27           -0.2453    -2.4487     0.1120 H       
  28 H28           -1.3169    -4.6160     0.1294 H       
  29 H29           -5.5793    -4.6952     0.2106 H       
  30 H30           -5.6331    -2.2350     0.2124 H       
  31 H31           -3.5311    -0.9554     0.1843 H       
  32 H32           -2.2019     3.9416    -0.1953 H       
  33 H33           -0.6158     3.9686     0.6120 H       
  34 H34           -0.7104     3.8244    -1.1596 H       
@<TRIPOS>BOND
   1    1    2 1
   2    1    6 2
   3    1    7 1
   4    2    3 1
   5    2    8 2
   6    3    4 1
   7    3   20 2
   8    4    5 1
   9    4   22 1
  10    4   23 1
  11    5   24 1
  12    5   25 1
  13    5   26 1
  14    7   21 1
  15    8    9 1
  16    9   10 1
  17    9   27 1
  18   10   11 ar
  19   10   15 ar
  20   11   12 ar
  21   11   28 1
  22   12   13 ar
  23   12   16 1
  24   13   14 ar
  25   13   29 1
  26   14   15 ar
  27   14   30 1
  28   15   31 1
  29   16   17 1
  30   16   18 1
  31   16   19 1
  32   21   32 1
  33   21   33 1
  34   21   34 1

#	End of record

