#	Name: ASD01813984
#	Creating user name:	WinNT
#	Creation time:	15. 06. 2019 19:31

#	Modifying user name:	WinNT
#	Modification time:	15. 06. 2019 19:31

#	Program:	/corina/corina34_cracker 3.40 0067  02.08.2006

@<TRIPOS>MOLECULE
ASD01813984
  39   42    0    0    0
SMALL
NO_CHARGES


@<TRIPOS>ATOM
   1 N1            -0.0160     1.3253     0.0093 N.ar    
   2 C2             0.0021    -0.0041     0.0020 C.ar    
   3 C3             1.2375    -0.6893    -0.0135 C.ar    
   4 C4             2.4284     0.0373    -0.0229 C.ar    
   5 C5             2.3437     1.4182    -0.0166 C.ar    
   6 C6             1.0973     2.0272     0.0025 C.ar    
   7 C7             1.2182    -2.1583    -0.0201 C.2     
   8 N8            -1.1442    -0.7282     0.0101 N.2     
   9 C9            -1.1315    -2.0269     0.0039 C.2     
  10 N10            0.0076    -2.7644    -0.0109 N.am    
  11 C11           -0.0733    -4.2272    -0.0174 C.3     
  12 C12           -1.2902    -4.9023     2.0622 C.ar    
  13 C13           -0.0867    -4.7359     1.4011 C.ar    
  14 C14            1.1046    -5.0350     2.0371 C.ar    
  15 C15           -1.3081    -5.3683     3.3613 C.ar    
  16 C16           -0.1113    -5.6716     4.0064 C.ar    
  17 C17            1.0980    -5.5021     3.3360 C.ar    
  18 C18           -0.1245    -6.1736     5.4036 C.2     
  19 O19            2.2495    -2.8047    -0.0338 O.2     
  20 C20           -1.2666    -6.3978     6.1967 C.2     
  21 N21           -0.8718    -6.8389     7.3616 N.2     
  22 N22            0.5264    -6.9134     7.3585 N.pl3   
  23 C23            0.9672    -6.5074     6.1507 C.2     
  24 C24            1.3652    -7.3605     8.4732 C.3     
  25 H25            3.3859    -0.4622    -0.0344 H       
  26 H26            3.2418     2.0180    -0.0232 H       
  27 H27            1.0391     3.1056     0.0088 H       
  28 H28           -2.0776    -2.5476     0.0109 H       
  29 H29           -0.9872    -4.5383    -0.5236 H       
  30 H30            0.7900    -4.6365    -0.5420 H       
  31 H31           -2.2172    -4.6626     1.5627 H       
  32 H32            2.0416    -4.9033     1.5164 H       
  33 H33           -2.2483    -5.4975     3.8767 H       
  34 H34            2.0286    -5.7361     3.8314 H       
  35 H35           -2.2905    -6.2333     5.8948 H       
  36 H36            1.9981    -6.4541     5.8330 H       
  37 H37            1.5214    -8.4369     8.4014 H       
  38 H38            2.3274    -6.8502     8.4314 H       
  39 H39            0.8708    -7.1273     9.4163 H       
@<TRIPOS>BOND
   1    1    2 ar
   2    1    6 ar
   3    2    3 ar
   4    2    8 1
   5    3    4 ar
   6    3    7 1
   7    4    5 ar
   8    4   25 1
   9    5    6 ar
  10    5   26 1
  11    6   27 1
  12    7   10 am
  13    7   19 2
  14    8    9 2
  15    9   10 1
  16    9   28 1
  17   10   11 1
  18   11   13 1
  19   11   29 1
  20   11   30 1
  21   12   15 ar
  22   12   13 ar
  23   12   31 1
  24   13   14 ar
  25   14   17 ar
  26   14   32 1
  27   15   16 ar
  28   15   33 1
  29   16   17 ar
  30   16   18 1
  31   17   34 1
  32   18   23 2
  33   18   20 1
  34   20   21 2
  35   20   35 1
  36   21   22 1
  37   22   23 1
  38   22   24 1
  39   23   36 1
  40   24   37 1
  41   24   38 1
  42   24   39 1

#	End of record

