#	Name: ASD01410094
#	Creating user name:	WinNT
#	Creation time:	15. 06. 2019 19:16

#	Modifying user name:	WinNT
#	Modification time:	15. 06. 2019 19:16

#	Program:	/corina/corina34_cracker 3.40 0067  02.08.2006

@<TRIPOS>MOLECULE
ASD01410094
  73   77    0    0    0
SMALL
NO_CHARGES


@<TRIPOS>ATOM
   1 C1            -0.0169     1.3986     0.0097 C.ar    
   2 C2             0.0021    -0.0041     0.0020 C.ar    
   3 C3            -1.1621    -0.7093     0.0089 C.ar    
   4 C4            -2.3912    -0.0347     0.0242 C.ar    
   5 C5            -2.4204     1.3751     0.0326 C.ar    
   6 C6            -1.2305     2.0850     0.0308 C.ar    
   7 C7            -3.7375    -0.4722     0.0343 C.2     
   8 C8            -4.5317     0.6283     0.0481 C.2     
   9 N9            -3.7465     1.7566     0.0472 N.pl3   
  10 C10           -6.0103     0.6156     0.0618 C.ar    
  11 C11           -6.7104     1.4580     0.9267 C.ar    
  12 C12           -8.0913    -0.2419    -0.7762 C.ar    
  13 C13           -6.7118    -0.2349    -0.7940 C.ar    
  14 C14           -4.2054    -1.9047     0.0301 C.3     
  15 C15           -3.6896    -2.6060    -1.2281 C.3     
  16 C16           -4.1647    -4.0603    -1.2324 C.3     
  17 C17           -3.6262    -4.7765     0.0078 C.3     
  18 C18           -4.1420    -4.0752     1.2659 C.3     
  19 C19           -3.6669    -2.6208     1.2702 C.3     
  20 C20            1.2513     2.1499     0.0017 C.2     
  21 O21            2.4258     1.4892    -0.0131 O.3     
  22 C22           -4.2368     3.1371     0.0604 C.3     
  23 C23           -4.3909     3.6018     1.4856 C.2     
  24 N24           -4.8320     4.8489     1.7439 N.am    
  25 O25            1.2377     3.3650     0.0083 O.2     
  26 O26           -4.1180     2.8536     2.4003 O.2     
  27 C27           -8.0899     1.4412     0.9346 C.ar    
  28 C28           -8.7792     0.5913     0.0880 C.ar    
  29 C29           -4.9874     5.3163     3.1281 C.3     
  30 C30           -6.4129     5.8461     3.3125 C.3     
  31 C31           -6.6972     6.9133     2.2531 C.3     
  32 C32           -6.5896     6.2917     0.8587 C.3     
  33 C33           -5.1607     5.7689     0.6465 C.3     
  34 N34           -8.0519     7.4473     2.4476 N.3     
  35 C35           -8.3178     8.5576     1.5232 C.3     
  36 C36           -9.0606     6.3891     2.3034 C.3     
  37 H37            0.9465    -0.5277    -0.0098 H       
  38 H38           -1.1391    -1.7891     0.0021 H       
  39 H39           -1.2430     3.1649     0.0371 H       
  40 H40           -6.1734     2.1214     1.5885 H       
  41 H41           -8.6353    -0.8993    -1.4382 H       
  42 H42           -6.1759    -0.8857    -1.4690 H       
  43 H43           -5.2951    -1.9310     0.0398 H       
  44 H44           -4.0732    -2.0958    -2.1116 H       
  45 H45           -2.5999    -2.5797    -1.2378 H       
  46 H46           -5.2543    -4.0866    -1.2227 H       
  47 H47           -3.7972    -4.5600    -2.1287 H       
  48 H48           -3.9646    -5.8126     0.0047 H       
  49 H49           -2.5365    -4.7502    -0.0019 H       
  50 H50           -5.2317    -4.1015     1.2756 H       
  51 H51           -3.7584    -4.5854     2.1494 H       
  52 H52           -2.5773    -2.5945     1.2605 H       
  53 H53           -4.0344    -2.1212     2.1666 H       
  54 H54            3.2308     2.0250    -0.0179 H       
  55 H55           -3.5249     3.7805    -0.4566 H       
  56 H56           -5.2021     3.1846    -0.4437 H       
  57 H57           -8.6328     2.0926     1.6034 H       
  58 H58           -9.8591     0.5817     0.0983 H       
  59 H59           -4.8136     4.4881     3.8151 H       
  60 H60           -4.2723     6.1147     3.3266 H       
  61 H61           -7.1227     5.0263     3.2027 H       
  62 H62           -6.5127     6.2839     4.3057 H       
  63 H63           -5.9716     7.7212     2.3475 H       
  64 H64           -7.2978     5.4677     0.7721 H       
  65 H65           -6.8151     7.0466     0.1055 H       
  66 H66           -4.4622     6.6056     0.6424 H       
  67 H67           -5.1034     5.2377    -0.3036 H       
  68 H68           -8.2252     8.2053     0.4959 H       
  69 H69           -9.3272     8.9342     1.6886 H       
  70 H70           -7.5983     9.3572     1.6993 H       
  71 H71           -8.8811     5.6123     3.0466 H       
  72 H72          -10.0542     6.8117     2.4522 H       
  73 H73           -8.9949     5.9583     1.3043 H       
@<TRIPOS>BOND
   1    1    2 ar
   2    1   20 1
   3    1    6 ar
   4    2    3 ar
   5    2   37 1
   6    3    4 ar
   7    3   38 1
   8    4    5 ar
   9    4    7 1
  10    5    6 ar
  11    5    9 1
  12    6   39 1
  13    7    8 2
  14    7   14 1
  15    8    9 1
  16    8   10 1
  17    9   22 1
  18   10   11 ar
  19   10   13 ar
  20   11   27 ar
  21   11   40 1
  22   12   13 ar
  23   12   28 ar
  24   12   41 1
  25   13   42 1
  26   14   15 1
  27   14   19 1
  28   14   43 1
  29   15   16 1
  30   15   44 1
  31   15   45 1
  32   16   17 1
  33   16   46 1
  34   16   47 1
  35   17   18 1
  36   17   48 1
  37   17   49 1
  38   18   19 1
  39   18   50 1
  40   18   51 1
  41   19   52 1
  42   19   53 1
  43   20   21 1
  44   20   25 2
  45   21   54 1
  46   22   23 1
  47   22   55 1
  48   22   56 1
  49   23   24 am
  50   23   26 2
  51   24   29 1
  52   24   33 1
  53   27   28 ar
  54   27   57 1
  55   28   58 1
  56   29   30 1
  57   29   59 1
  58   29   60 1
  59   30   31 1
  60   30   61 1
  61   30   62 1
  62   31   32 1
  63   31   34 1
  64   31   63 1
  65   32   33 1
  66   32   64 1
  67   32   65 1
  68   33   66 1
  69   33   67 1
  70   34   35 1
  71   34   36 1
  72   35   68 1
  73   35   69 1
  74   35   70 1
  75   36   71 1
  76   36   72 1
  77   36   73 1

#	End of record

