#	Name: ASD00740018
#	Creating user name:	WinNT
#	Creation time:	15. 06. 2019 18:37

#	Modifying user name:	WinNT
#	Modification time:	15. 06. 2019 18:37

#	Program:	/corina/corina34_cracker 3.40 0067  02.08.2006

@<TRIPOS>MOLECULE
ASD00740018
  68   72    0    0    0
SMALL
NO_CHARGES


@<TRIPOS>ATOM
   1 C1            -0.9088     1.9199    -3.5382 C.ar    
   2 C2             0.3510     2.4981    -3.4143 C.ar    
   3 C3             0.5717     3.5216    -2.5409 C.ar    
   4 C4            -0.4848     4.0002    -1.7549 C.ar    
   5 C5            -1.7662     3.4103    -1.8827 C.ar    
   6 C6            -1.9606     2.3655    -2.7922 C.ar    
   7 N7            -0.3219     5.0041    -0.8801 N.ar    
   8 C8            -1.3322     5.4283    -0.1589 C.ar    
   9 N9            -2.5463     4.9083    -0.2434 N.ar    
  10 C10           -2.8171     3.9123    -1.0764 C.ar    
  11 N11           -4.0872     3.3795    -1.1550 N.pl3   
  12 C12           -5.1358     3.9642    -0.4392 C.ar    
  13 C13           -5.1585     5.3368    -0.2371 C.ar    
  14 C14           -6.2015     5.9133     0.4736 C.ar    
  15 C15           -7.2194     5.1153     0.9803 C.ar    
  16 C16           -7.1938     3.7486     0.7777 C.ar    
  17 C17           -6.1600     3.1721     0.0659 C.ar    
  18 C18           -9.8773     9.4202     0.7006 C.2     
  19 C19           -8.6402     9.9806     0.7906 C.2     
  20 N20           -8.8084    11.3277     0.8865 N.pl3   
  21 N21          -10.1840    11.5902     0.8537 N.2     
  22 C22          -10.8197    10.4517     0.7428 C.2     
  23 N23           -6.2278     7.2970     0.6800 N.am    
  24 C24           -7.4038     7.9555     0.6845 C.2     
  25 N25           -7.4233     9.2993     0.7859 N.am    
  26 O26           -8.4471     7.3372     0.5971 O.2     
  27 C27           -7.7879    12.2817     0.9985 C.ar    
  28 C28           -6.6345    11.9858     1.7123 C.ar    
  29 C29           -5.6304    12.9282     1.8209 C.ar    
  30 C30           -5.7731    14.1651     1.2197 C.ar    
  31 C31           -6.9212    14.4629     0.5083 C.ar    
  32 C32           -7.9259    13.5227     0.3909 C.ar    
  33 C33           -7.0732    15.8126    -0.1446 C.3     
  34 C34          -12.3154    10.2815     0.6721 C.3     
  35 C35          -12.8318     9.7482     2.0099 C.3     
  36 C36          -12.9690    11.6326     0.3751 C.3     
  37 C37          -12.6639     9.2908    -0.4406 C.3     
  38 N38           -1.1118     0.8105    -4.4967 N.pl3   
  39 O39           -0.1796     0.4096    -5.1704 O.2     
  40 O40           -2.2109     0.2985    -4.6118 O.2     
  41 H41            1.1666     2.1302    -4.0192 H       
  42 H42            1.5548     3.9604    -2.4552 H       
  43 H43           -2.9339     1.9094    -2.8971 H       
  44 H44           -1.1656     6.2384     0.5356 H       
  45 H45           -4.2525     2.5992    -1.7070 H       
  46 H46           -4.3658     5.9551    -0.6317 H       
  47 H47           -8.0314     5.5635     1.5335 H       
  48 H48           -7.9861     3.1304     1.1734 H       
  49 H49           -6.1429     2.1036    -0.0907 H       
  50 H50          -10.0925     8.3659     0.6083 H       
  51 H51           -5.3997     7.7824     0.8198 H       
  52 H52           -6.5910     9.7925     0.8556 H       
  53 H53           -6.5226    11.0200     2.1824 H       
  54 H54           -4.7330    12.6988     2.3764 H       
  55 H55           -4.9867    14.9002     1.3061 H       
  56 H56           -8.8220    13.7558    -0.1649 H       
  57 H57           -6.6741    15.7729    -1.1582 H       
  58 H58           -8.1287    16.0822    -0.1801 H       
  59 H59           -6.5268    16.5588     0.4321 H       
  60 H60          -12.5836    10.4539     2.8026 H       
  61 H61          -13.9136     9.6251     1.9587 H       
  62 H62          -12.3662     8.7856     2.2215 H       
  63 H63          -12.6011    12.0125    -0.5780 H       
  64 H64          -14.0508    11.5095     0.3239 H       
  65 H65          -12.7207    12.3384     1.1678 H       
  66 H66          -12.1983     8.3282    -0.2290 H       
  67 H67          -13.7457     9.1677    -0.4918 H       
  68 H68          -12.2960     9.6707    -1.3937 H       
@<TRIPOS>BOND
   1    1    2 ar
   2    1   38 1
   3    1    6 ar
   4    2    3 ar
   5    2   41 1
   6    3    4 ar
   7    3   42 1
   8    4    5 ar
   9    4    7 ar
  10    5    6 ar
  11    5   10 ar
  12    6   43 1
  13    7    8 ar
  14    8    9 ar
  15    8   44 1
  16    9   10 ar
  17   10   11 1
  18   11   12 1
  19   11   45 1
  20   12   13 ar
  21   12   17 ar
  22   13   14 ar
  23   13   46 1
  24   14   15 ar
  25   14   23 1
  26   15   16 ar
  27   15   47 1
  28   16   17 ar
  29   16   48 1
  30   17   49 1
  31   18   19 2
  32   18   22 1
  33   18   50 1
  34   19   20 1
  35   19   25 1
  36   20   21 1
  37   20   27 1
  38   21   22 2
  39   22   34 1
  40   23   24 am
  41   23   51 1
  42   24   25 am
  43   24   26 2
  44   25   52 1
  45   27   28 ar
  46   27   32 ar
  47   28   29 ar
  48   28   53 1
  49   29   30 ar
  50   29   54 1
  51   30   31 ar
  52   30   55 1
  53   31   32 ar
  54   31   33 1
  55   32   56 1
  56   33   57 1
  57   33   58 1
  58   33   59 1
  59   34   35 1
  60   34   36 1
  61   34   37 1
  62   35   60 1
  63   35   61 1
  64   35   62 1
  65   36   63 1
  66   36   64 1
  67   36   65 1
  68   37   66 1
  69   37   67 1
  70   37   68 1
  71   38   39 2
  72   38   40 2

#	End of record

