#	Name: ASD01812440
#	Creating user name:	WinNT
#	Creation time:	15. 06. 2019 19:28

#	Modifying user name:	WinNT
#	Modification time:	15. 06. 2019 19:28

#	Program:	/corina/corina34_cracker 3.40 0067  02.08.2006

@<TRIPOS>MOLECULE
ASD01812440
  62   65    0    0    0
SMALL
NO_CHARGES


@<TRIPOS>ATOM
   1 C1            -0.0213     1.4754     0.0483 C.ar    
   2 C2            -0.0897     0.1517     0.4390 C.ar    
   3 C3             1.0711    -0.5782     0.6162 C.ar    
   4 C4             2.3004     0.0124     0.4015 C.ar    
   5 C5             2.3786     1.3444     0.0069 C.ar    
   6 C6             1.2106     2.0768    -0.1675 C.ar    
   7 N7             3.6413     1.9064    -0.2066 N.3     
   8 C8             3.6102     3.3726    -0.1526 C.3     
   9 C9             2.4835     3.8725    -1.0660 C.3     
  10 O10            1.2436     3.3853    -0.5423 O.3     
  11 C11            4.6253     1.3654     0.7405 C.3     
  12 C12            5.9922     1.9058     0.4082 C.ar    
  13 C13            6.7593     1.2913    -0.5645 C.ar    
  14 C14            6.4745     3.0185     1.0725 C.ar    
  15 C15            7.7268     3.5164     0.7698 C.ar    
  16 C16            8.5015     2.8984    -0.2026 C.ar    
  17 C17            8.0125     1.7843    -0.8713 C.ar    
  18 N18            3.5018     6.0543    -1.6329 N.am    
  19 C19            2.4725     5.3794    -1.0839 C.2     
  20 O20            1.5374     5.9847    -0.6043 O.2     
  21 N21            9.7729     3.4014    -0.5121 N.pl3   
  22 C22           10.6256     2.8977    -1.4329 C.2     
  23 C23           11.7395     3.6659    -1.4262 C.2     
  24 C24           11.5630     4.6724    -0.4705 C.2     
  25 N25           10.3826     4.5185     0.0735 N.2     
  26 C26            3.4911     7.5192    -1.6503 C.3     
  27 C27            2.7099     8.0090    -2.8713 C.3     
  28 O28            3.3969     7.6218    -4.0630 O.3     
  29 C29            5.0429     8.3740     0.7510 C.3     
  30 C30            5.6742     7.6547    -0.4428 C.3     
  31 C31            4.9283     8.0389    -1.7223 C.3     
  32 C32            7.1432     8.0642    -0.5664 C.3     
  33 H33           -0.9295     2.0423    -0.0938 H       
  34 H34           -1.0502    -0.3128     0.6062 H       
  35 H35            1.0161    -1.6120     0.9236 H       
  36 H36            3.2047    -0.5614     0.5407 H       
  37 H37            3.4226     3.6971     0.8710 H       
  38 H38            4.5644     3.7718    -0.4965 H       
  39 H39            2.6313     3.4929    -2.0770 H       
  40 H40            4.3544     1.6608     1.7541 H       
  41 H41            4.6375     0.2777     0.6700 H       
  42 H42            6.3783     0.4249    -1.0846 H       
  43 H43            5.8713     3.4990     1.8286 H       
  44 H44            8.1029     4.3857     1.2887 H       
  45 H45            8.6115     1.3035    -1.6306 H       
  46 H46            4.2497     5.5702    -2.0166 H       
  47 H47           10.4492     2.0368    -2.0607 H       
  48 H48           12.6112     3.5264    -2.0484 H       
  49 H49           12.2761     5.4460    -0.2268 H       
  50 H50            3.0157     7.8898    -0.7422 H       
  51 H51            1.7135     7.5671    -2.8664 H       
  52 H52            2.6258     9.0952    -2.8370 H       
  53 H53            2.9574     7.8998    -4.8783 H       
  54 H54            5.1084     9.4517     0.6019 H       
  55 H55            3.9964     8.0823     0.8390 H       
  56 H56            5.5743     8.1003     1.6625 H       
  57 H57            5.6087     6.5769    -0.2937 H       
  58 H58            5.4316     7.5977    -2.5826 H       
  59 H59            4.9176     9.1240    -1.8247 H       
  60 H60            7.6745     7.7905     0.3451 H       
  61 H61            7.5929     7.5518    -1.4169 H       
  62 H62            7.2087     9.1419    -0.7154 H       
@<TRIPOS>BOND
   1    1    2 ar
   2    1    6 ar
   3    1   33 1
   4    2    3 ar
   5    2   34 1
   6    3    4 ar
   7    3   35 1
   8    4    5 ar
   9    4   36 1
  10    5    7 1
  11    5    6 ar
  12    6   10 1
  13    7   11 1
  14    7    8 1
  15    8    9 1
  16    8   37 1
  17    8   38 1
  18    9   10 1
  19    9   19 1
  20    9   39 1
  21   11   12 1
  22   11   40 1
  23   11   41 1
  24   12   14 ar
  25   12   13 ar
  26   13   17 ar
  27   13   42 1
  28   14   15 ar
  29   14   43 1
  30   15   16 ar
  31   15   44 1
  32   16   17 ar
  33   16   21 1
  34   17   45 1
  35   18   19 am
  36   18   26 1
  37   18   46 1
  38   19   20 2
  39   21   22 1
  40   21   25 1
  41   22   23 2
  42   22   47 1
  43   23   24 1
  44   23   48 1
  45   24   25 2
  46   24   49 1
  47   26   27 1
  48   26   31 1
  49   26   50 1
  50   27   28 1
  51   27   51 1
  52   27   52 1
  53   28   53 1
  54   29   30 1
  55   29   54 1
  56   29   55 1
  57   29   56 1
  58   30   31 1
  59   30   32 1
  60   30   57 1
  61   31   58 1
  62   31   59 1
  63   32   60 1
  64   32   61 1
  65   32   62 1

#	End of record

