#	Name: ASD03430419
#	Creating user name:	WinNT
#	Creation time:	15. 06. 2019 20:41

#	Modifying user name:	WinNT
#	Modification time:	15. 06. 2019 20:41

#	Program:	/corina/corina34_cracker 3.40 0067  02.08.2006

@<TRIPOS>MOLECULE
ASD03430419
  57   62    0    0    0
SMALL
NO_CHARGES


@<TRIPOS>ATOM
   1 N1            -0.0157     1.4932     0.4902 N.am    
   2 C2             0.0409     0.2263     0.9344 C.2     
   3 C3             1.4805    -0.0488     1.3139 C.3     
   4 C4             2.1944     1.2487     1.0120 C.ar    
   5 C5             3.5068     1.6461     1.1356 C.ar    
   6 C6             3.8770     2.9284     0.7700 C.ar    
   7 C7             2.9261     3.8060     0.2815 C.ar    
   8 C8             1.6106     3.4104     0.1566 C.ar    
   9 C9             1.2302     2.1206     0.5227 C.ar    
  10 O10           -0.8868    -0.5506     1.0164 O.2     
  11 O11            2.6771    -2.9704     5.2048 O.3     
  12 C12            2.5266    -2.7250     6.5157 C.2     
  13 N13            1.9943    -1.5537     6.6967 N.2     
  14 C14            1.7734    -0.9798     5.4829 C.ar    
  15 C15            2.2165    -1.8996     4.5201 C.ar    
  16 C16            1.2359     0.2421     5.0767 C.ar    
  17 C17            1.1448     0.5356     3.7296 C.ar    
  18 C18            1.5859    -0.3806     2.7801 C.ar    
  19 C19            2.1184    -1.5907     3.1721 C.ar    
  20 C20            2.9189    -3.6725     7.6199 C.3     
  21 O21            0.6212     1.7251     3.3301 O.3     
  22 O22            2.0136    -1.1102     0.5194 O.3     
  23 C23           -1.2434     2.1395     0.0197 C.3     
  24 C24           -0.9991     2.7578    -1.3327 C.ar    
  25 C25           -1.5150     4.0065    -1.6251 C.ar    
  26 C26           -1.2910     4.5737    -2.8657 C.ar    
  27 C27           -0.5506     3.8924    -3.8136 C.ar    
  28 C28           -0.0338     2.6442    -3.5208 C.ar    
  29 C29           -0.2543     2.0788    -2.2788 C.ar    
  30 C30           -2.3417     1.1132    -0.0882 C.ar    
  31 C31           -3.4804     1.2356     0.6859 C.ar    
  32 C32           -4.4878     0.2942     0.5870 C.ar    
  33 C33           -4.3567    -0.7693    -0.2864 C.ar    
  34 C34           -3.2184    -0.8911    -1.0611 C.ar    
  35 C35           -2.2129     0.0526    -0.9654 C.ar    
  36 H36            4.2463     0.9580     1.5179 H       
  37 H37            4.9056     3.2432     0.8662 H       
  38 H38            3.2152     4.8068    -0.0035 H       
  39 H39            0.8740     4.1015    -0.2257 H       
  40 H40            0.8921     0.9548     5.8117 H       
  41 H41            2.4592    -2.2971     2.4296 H       
  42 H42            3.9504    -3.4797     7.9148 H       
  43 H43            2.2621    -3.5236     8.4769 H       
  44 H44            2.8280    -4.6997     7.2666 H       
  45 H45            1.2749     2.4318     3.2390 H       
  46 H46            1.5527    -1.9532     0.6290 H       
  47 H47           -1.5392     2.9153     0.7259 H       
  48 H48           -2.0935     4.5388    -0.8845 H       
  49 H49           -1.6946     5.5490    -3.0944 H       
  50 H50           -0.3761     4.3353    -4.7831 H       
  51 H51            0.5443     2.1118    -4.2616 H       
  52 H52            0.1525     1.1052    -2.0487 H       
  53 H53           -3.5828     2.0664     1.3683 H       
  54 H54           -5.3772     0.3894     1.1923 H       
  55 H55           -5.1435    -1.5051    -0.3632 H       
  56 H56           -3.1158    -1.7221    -1.7432 H       
  57 H57           -1.3252    -0.0405    -1.5733 H       
@<TRIPOS>BOND
   1    1    2 am
   2    1    9 1
   3    1   23 1
   4    2    3 1
   5    2   10 2
   6    3    4 1
   7    3   18 1
   8    3   22 1
   9    4    5 ar
  10    4    9 ar
  11    5    6 ar
  12    5   36 1
  13    6    7 ar
  14    6   37 1
  15    7    8 ar
  16    7   38 1
  17    8    9 ar
  18    8   39 1
  19   11   12 1
  20   11   15 1
  21   12   13 2
  22   12   20 1
  23   13   14 1
  24   14   15 ar
  25   14   16 ar
  26   15   19 ar
  27   16   17 ar
  28   16   40 1
  29   17   18 ar
  30   17   21 1
  31   18   19 ar
  32   19   41 1
  33   20   42 1
  34   20   43 1
  35   20   44 1
  36   21   45 1
  37   22   46 1
  38   23   24 1
  39   23   30 1
  40   23   47 1
  41   24   25 ar
  42   24   29 ar
  43   25   26 ar
  44   25   48 1
  45   26   27 ar
  46   26   49 1
  47   27   28 ar
  48   27   50 1
  49   28   29 ar
  50   28   51 1
  51   29   52 1
  52   30   31 ar
  53   30   35 ar
  54   31   32 ar
  55   31   53 1
  56   32   33 ar
  57   32   54 1
  58   33   34 ar
  59   33   55 1
  60   34   35 ar
  61   34   56 1
  62   35   57 1

#	End of record

