#	Name: ASD03900016
#	Creating user name:	WinNT
#	Creation time:	15. 06. 2019 20:47

#	Modifying user name:	WinNT
#	Modification time:	15. 06. 2019 20:47

#	Program:	/corina/corina34_cracker 3.40 0067  02.08.2006

@<TRIPOS>MOLECULE
ASD03900016
  52   54    0    0    0
SMALL
NO_CHARGES


@<TRIPOS>ATOM
   1 C1            -0.0113     1.4913     0.0110 C.3     
   2 C2            -0.0331    -0.0155     0.0014 C.ar    
   3 C3             1.4167     1.9729     0.0204 C.ar    
   4 C4            -0.7088     2.0116    -1.2194 C.ar    
   5 O5            -0.6831     1.9700     1.1778 O.3     
   6 C6             0.9394    -0.7152    -0.6893 C.ar    
   7 C7             0.9223    -2.0961    -0.7001 C.ar    
   8 C8            -0.0733    -2.7822    -0.0162 C.ar    
   9 C9            -1.0487    -2.0762     0.6765 C.ar    
  10 C10           -1.0224    -0.6955     0.6879 C.ar    
  11 C11            2.1101     2.0988    -1.1694 C.ar    
  12 C12            3.4188     2.5398    -1.1643 C.ar    
  13 C13            4.0385     2.8572     0.0377 C.ar    
  14 C14            3.3390     2.7296     1.2310 C.ar    
  15 C15            2.0287     2.2933     1.2183 C.ar    
  16 C16           -1.3627     3.2289    -1.1804 C.ar    
  17 C17           -2.0026     3.7062    -2.3090 C.ar    
  18 C18           -1.9881     2.9664    -3.4766 C.ar    
  19 C19           -1.3334     1.7496    -3.5159 C.ar    
  20 C20           -0.6899     1.2743    -2.3885 C.ar    
  21 N21           -0.0938    -4.1788    -0.0255 N.pl3   
  22 C22            0.8573    -4.9198    -0.8575 C.3     
  23 C23           -1.0666    -4.9025     0.7969 C.3     
  24 N24            5.3621     3.3031     0.0465 N.pl3   
  25 C25            6.0985     3.4366    -1.2130 C.3     
  26 C26            6.0141     3.6373     1.3151 C.3     
  27 H27           -0.2875     1.6736     2.0089 H       
  28 H28            1.7129    -0.1812    -1.2211 H       
  29 H29            1.6819    -2.6419    -1.2400 H       
  30 H30           -1.8241    -2.6066     1.2093 H       
  31 H31           -1.7802    -0.1460     1.2266 H       
  32 H32            1.6279     1.8515    -2.1036 H       
  33 H33            3.9600     2.6376    -2.0939 H       
  34 H34            3.8179     2.9755     2.1673 H       
  35 H35            1.4842     2.1942     2.1457 H       
  36 H36           -1.3740     3.8068    -0.2682 H       
  37 H37           -2.5141     4.6569    -2.2783 H       
  38 H38           -2.4886     3.3390    -4.3582 H       
  39 H39           -1.3224     1.1715    -4.4280 H       
  40 H40           -0.1783     0.3236    -2.4192 H       
  41 H41            1.7631    -5.1186    -0.2847 H       
  42 H42            0.4095    -5.8637    -1.1685 H       
  43 H43            1.1070    -4.3285    -1.7385 H       
  44 H44           -1.7419    -4.1908     1.2717 H       
  45 H45           -1.6399    -5.5829     0.1672 H       
  46 H46           -0.5416    -5.4724     1.5635 H       
  47 H47            5.9547     4.4402    -1.6133 H       
  48 H48            7.1599     3.2657    -1.0332 H       
  49 H49            5.7287     2.7032    -1.9295 H       
  50 H50            6.5022     2.7497     1.7177 H       
  51 H51            6.7578     4.4163     1.1473 H       
  52 H52            5.2674     3.9946     2.0243 H       
@<TRIPOS>BOND
   1    1    2 1
   2    1    3 1
   3    1    4 1
   4    1    5 1
   5    2    6 ar
   6    2   10 ar
   7    3   11 ar
   8    3   15 ar
   9    4   16 ar
  10    4   20 ar
  11    5   27 1
  12    6    7 ar
  13    6   28 1
  14    7    8 ar
  15    7   29 1
  16    8    9 ar
  17    8   21 1
  18    9   10 ar
  19    9   30 1
  20   10   31 1
  21   11   12 ar
  22   11   32 1
  23   12   13 ar
  24   12   33 1
  25   13   14 ar
  26   13   24 1
  27   14   15 ar
  28   14   34 1
  29   15   35 1
  30   16   17 ar
  31   16   36 1
  32   17   18 ar
  33   17   37 1
  34   18   19 ar
  35   18   38 1
  36   19   20 ar
  37   19   39 1
  38   20   40 1
  39   21   22 1
  40   21   23 1
  41   22   41 1
  42   22   42 1
  43   22   43 1
  44   23   44 1
  45   23   45 1
  46   23   46 1
  47   24   25 1
  48   24   26 1
  49   25   47 1
  50   25   48 1
  51   25   49 1
  52   26   50 1
  53   26   51 1
  54   26   52 1

#	End of record

