#	Name: ASD03330231
#	Creating user name:	WinNT
#	Creation time:	15. 06. 2019 20:36

#	Modifying user name:	WinNT
#	Modification time:	15. 06. 2019 20:36

#	Program:	/corina/corina34_cracker 3.40 0067  02.08.2006

@<TRIPOS>MOLECULE
ASD03330231
  52   54    0    0    0
SMALL
NO_CHARGES


@<TRIPOS>ATOM
   1 C1            -0.6673     0.5736     0.2357 C.3     
   2 N2            -0.5953    -0.8815     0.0427 N.3     
   3 C3            -0.0271    -1.2169    -1.2755 C.3     
   4 C4             1.2480    -0.4321    -1.4455 C.2     
   5 N5             1.5874     0.6363    -0.6678 N.pl3   
   6 C6             0.7448     1.1449     0.4181 C.3     
   7 C7             2.2511    -0.6107    -2.3405 C.2     
   8 N8             3.1866     0.3373    -2.1037 N.2     
   9 C9             2.7936     1.0885    -1.0994 C.2     
  10 C10            3.5391     2.2349    -0.5345 C.ar    
  11 C11            4.6057     2.8126    -1.2311 C.ar    
  12 C12            2.3113    -1.6504    -3.3831 C.2     
  13 O13            1.4027    -2.4509    -3.4968 O.2     
  14 O14            5.7274    -2.2016    -5.3341 O.2     
  15 C15            4.8719    -3.0175    -5.6050 C.2     
  16 C16            3.4331    -2.7480    -5.2469 C.3     
  17 N17            3.3733    -1.7144    -4.2105 N.am    
  18 C18            2.6795    -2.2689    -6.4892 C.3     
  19 C19            2.7408    -3.3490    -7.5711 C.3     
  20 C20            1.2191    -1.9938    -6.1253 C.3     
  21 C21            3.3250    -0.9846    -7.0136 C.3     
  22 N22            5.2081    -4.1653    -6.2264 N.am    
  23 C23            6.5917    -4.3895    -6.6527 C.3     
  24 N24            5.2442     3.8352    -0.6893 N.ar    
  25 C25            4.8886     4.3100     0.4882 C.ar    
  26 N26            3.8901     3.7953     1.1784 N.ar    
  27 C27            3.1934     2.7751     0.7086 C.ar    
  28 H28           -1.1337     1.0321    -0.6363 H       
  29 H29           -1.2638     0.7925     1.1213 H       
  30 H30           -0.0702    -1.3191     0.7849 H       
  31 H31            0.1880    -2.2844    -1.3232 H       
  32 H32           -0.7333    -0.9472    -2.0607 H       
  33 H33            0.7094     2.2335     0.3771 H       
  34 H34            1.1497     0.8253     1.3783 H       
  35 H35            4.9030     2.4290    -2.1959 H       
  36 H36            2.9739    -3.6635    -4.8740 H       
  37 H37            4.0979    -1.0760    -4.1197 H       
  38 H38            2.2669    -4.2590    -7.2032 H       
  39 H39            2.2173    -3.0013    -8.4617 H       
  40 H40            3.7818    -3.5561    -7.8191 H       
  41 H41            1.1754    -1.2243    -5.3545 H       
  42 H42            0.6822    -1.6525    -7.0104 H       
  43 H43            0.7592    -2.9088    -5.7517 H       
  44 H44            4.3654    -1.1806    -7.2728 H       
  45 H45            2.7881    -0.6433    -7.8986 H       
  46 H46            3.2813    -0.2151    -6.2428 H       
  47 H47            4.5339    -4.8429    -6.3915 H       
  48 H48            7.2491    -4.3581    -5.7838 H       
  49 H49            6.6705    -5.3648    -7.1329 H       
  50 H50            6.8849    -3.6123    -7.3584 H       
  51 H51            5.4328     5.1468     0.9006 H       
  52 H52            2.3766     2.3591     1.2796 H       
@<TRIPOS>BOND
   1    1    2 1
   2    1    6 1
   3    1   28 1
   4    1   29 1
   5    2    3 1
   6    2   30 1
   7    3    4 1
   8    3   31 1
   9    3   32 1
  10    4    5 1
  11    4    7 2
  12    5    6 1
  13    5    9 1
  14    6   33 1
  15    6   34 1
  16    7    8 1
  17    7   12 1
  18    8    9 2
  19    9   10 1
  20   10   11 ar
  21   10   27 ar
  22   11   24 ar
  23   11   35 1
  24   12   13 2
  25   12   17 am
  26   14   15 2
  27   15   22 am
  28   15   16 1
  29   16   17 1
  30   16   18 1
  31   16   36 1
  32   17   37 1
  33   18   19 1
  34   18   20 1
  35   18   21 1
  36   19   38 1
  37   19   39 1
  38   19   40 1
  39   20   41 1
  40   20   42 1
  41   20   43 1
  42   21   44 1
  43   21   45 1
  44   21   46 1
  45   22   23 1
  46   22   47 1
  47   23   48 1
  48   23   49 1
  49   23   50 1
  50   24   25 ar
  51   25   26 ar
  52   25   51 1
  53   26   27 ar
  54   27   52 1

#	End of record

