#	Name: ASD09720057
#	Creating user name:	WinNT
#	Creation time:	15. 06. 2019 21:22

#	Modifying user name:	WinNT
#	Modification time:	15. 06. 2019 21:22

#	Program:	/corina/corina34_cracker 3.40 0067  02.08.2006

@<TRIPOS>MOLECULE
ASD09720057
  54   55    0    0    0
SMALL
NO_CHARGES


@<TRIPOS>ATOM
   1 C1             0.5767     1.4671    -0.5883 C.ar    
   2 C2             0.9792     0.0758    -0.8691 C.2     
   3 N3             0.4767    -0.8953    -0.1772 N.2     
   4 C4             1.9756    -0.2144    -1.9619 C.3     
   5 O5            -0.3518    -0.6163     0.9367 O.3     
   6 S6             2.2613    -2.0031    -2.0603 S.3     
   7 C7             3.4321    -2.1460    -3.3693 C.ar    
   8 C8             3.9049    -3.3970    -3.7474 C.ar    
   9 C9             4.8224    -3.5051    -4.7737 C.ar    
  10 C10            5.2713    -2.3704    -5.4247 C.ar    
  11 C11            4.8033    -1.1239    -5.0507 C.ar    
  12 C12            3.8808    -1.0085    -4.0298 C.ar    
  13 C13            1.4917     2.5080    -0.7586 C.ar    
  14 C14            1.1145     3.8087    -0.4958 C.ar    
  15 C15           -0.1726     4.0869    -0.0616 C.ar    
  16 C16           -1.0926     3.0522     0.1111 C.ar    
  17 C17           -0.7224     1.7464    -0.1569 C.ar    
  18 C18            2.1041     4.9301    -0.6805 C.3     
  19 C19            3.4734     4.3483    -1.0374 C.3     
  20 C20            1.6300     5.8479    -1.8091 C.3     
  21 C21            2.2136     5.7327     0.6175 C.3     
  22 N22           -2.3912     3.3358     0.5500 N.3     
  23 C23           -3.3875     2.9011    -0.4381 C.3     
  24 C24           -2.6488     2.7254     1.8611 C.3     
  25 O25           -0.5387     5.3700     0.1969 O.3     
  26 C26           -1.3517     6.0221    -0.7808 C.3     
  27 H27            1.5851     0.1441    -2.9143 H       
  28 H28            2.9152     0.2920    -1.7407 H       
  29 H29           -0.6797    -1.4049     1.3903 H       
  30 H30            3.5553    -4.2834    -3.2390 H       
  31 H31            5.1902    -4.4769    -5.0681 H       
  32 H32            5.9892    -2.4580    -6.2267 H       
  33 H33            5.1563    -0.2399    -5.5611 H       
  34 H34            3.5158    -0.0348    -3.7383 H       
  35 H35            2.4952     2.2948    -1.0960 H       
  36 H36           -1.4331     0.9441    -0.0242 H       
  37 H37            3.3954     3.7766    -1.9622 H       
  38 H38            4.1892     5.1594    -1.1711 H       
  39 H39            3.8112     3.6945    -0.2334 H       
  40 H40            0.7688     6.4243    -1.4712 H       
  41 H41            2.4355     6.5275    -2.0874 H       
  42 H42            1.3480     5.2458    -2.6729 H       
  43 H43            2.5514     5.0789     1.4215 H       
  44 H44            2.9294     6.5438     0.4839 H       
  45 H45            1.2381     6.1472     0.8718 H       
  46 H46           -3.2986     1.8261    -0.5949 H       
  47 H47           -4.3876     3.1334    -0.0720 H       
  48 H48           -3.2157     3.4213    -1.3804 H       
  49 H49           -1.9400     3.1179     2.5902 H       
  50 H50           -3.6646     2.9614     2.1784 H       
  51 H51           -2.5332     1.6441     1.7875 H       
  52 H52           -1.4521     7.0768    -0.5248 H       
  53 H53           -0.8855     5.9290    -1.7616 H       
  54 H54           -2.3377     5.5578    -0.8016 H       
@<TRIPOS>BOND
   1    1    2 1
   2    1   13 ar
   3    1   17 ar
   4    2    3 2
   5    2    4 1
   6    3    5 1
   7    4    6 1
   8    4   27 1
   9    4   28 1
  10    5   29 1
  11    6    7 1
  12    7    8 ar
  13    7   12 ar
  14    8    9 ar
  15    8   30 1
  16    9   10 ar
  17    9   31 1
  18   10   11 ar
  19   10   32 1
  20   11   12 ar
  21   11   33 1
  22   12   34 1
  23   13   14 ar
  24   13   35 1
  25   14   15 ar
  26   14   18 1
  27   15   16 ar
  28   15   25 1
  29   16   17 ar
  30   16   22 1
  31   17   36 1
  32   18   19 1
  33   18   20 1
  34   18   21 1
  35   19   37 1
  36   19   38 1
  37   19   39 1
  38   20   40 1
  39   20   41 1
  40   20   42 1
  41   21   43 1
  42   21   44 1
  43   21   45 1
  44   22   23 1
  45   22   24 1
  46   23   46 1
  47   23   47 1
  48   23   48 1
  49   24   49 1
  50   24   50 1
  51   24   51 1
  52   25   26 1
  53   26   52 1
  54   26   53 1
  55   26   54 1

#	End of record

