#	Name: ASD05730018
#	Creating user name:	WinNT
#	Creation time:	15. 06. 2019 21:02

#	Modifying user name:	WinNT
#	Modification time:	15. 06. 2019 21:02

#	Program:	/corina/corina34_cracker 3.40 0067  02.08.2006

@<TRIPOS>MOLECULE
ASD05730018
  77   79    0    0    0
SMALL
NO_CHARGES


@<TRIPOS>ATOM
   1 N1            -0.0162     1.2154     0.6549 N.ar    
   2 C2             0.0020    -0.0421     0.2322 C.ar    
   3 N3             1.1269    -0.7054     0.0202 N.ar    
   4 C4             2.3002    -0.1210     0.2279 C.ar    
   5 C5             2.3208     1.2173     0.6777 C.ar    
   6 C6             1.1045     1.8759     0.8876 C.ar    
   7 N7             3.4826    -0.7821     0.0177 N.am    
   8 C8             4.6627    -0.1743     0.2337 C.2     
   9 C9             4.7403     1.1599     0.6832 C.2     
  10 C10            3.6055     1.8714     0.9098 C.2     
  11 O11           -1.1756    -0.6706     0.0097 O.3     
  12 C12           -2.3195     0.0554     0.1291 C.ar    
  13 C13           -2.6957     0.9471    -0.8720 C.ar    
  14 C14           -3.8667     1.6651    -0.7093 C.ar    
  15 C15           -4.6244     1.4738     0.4410 C.ar    
  16 N16           -4.2353     0.6171     1.3721 N.ar    
  17 C17           -3.1269    -0.0877     1.2456 C.ar    
  18 N18           -5.8045     2.1915     0.6155 N.pl3   
  19 O19            5.6934    -0.7938     0.0360 O.2     
  20 C20            3.4603    -2.1708    -0.4485 C.3     
  21 C21           -6.2993     3.0593    -0.4561 C.3     
  22 C22           -6.0600     3.1429     2.8540 C.3     
  23 C23           -6.5516     2.0788     1.8706 C.3     
  24 C24            3.4661    -2.1953    -1.9783 C.3     
  25 C25            3.4428    -3.6456    -2.4651 C.3     
  26 C26            3.4486    -3.6702    -3.9949 C.3     
  27 C27            3.4253    -5.1205    -4.4818 C.3     
  28 O28            4.5784    -5.8065    -3.9900 O.3     
  29 C29            2.1618    -5.8117    -3.9653 C.3     
  30 C30            3.4311    -5.1451    -6.0116 C.3     
  31 C31           -6.8402     3.0252     4.1648 C.3     
  32 C32           -6.3486     4.0893     5.1482 C.3     
  33 C33           -7.2113     4.0539     6.4113 C.3     
  34 N34           -4.9491     3.8187     5.5033 N.3     
  35 C35            6.0859     1.7988     0.9118 C.3     
  36 O36           -6.8283     5.1220     7.2799 O.3     
  37 C37           -7.5769     5.1794     8.4957 C.3     
  38 H38            1.0820     2.8996     1.2310 H       
  39 H39            3.6523     2.8939     1.2542 H       
  40 H40           -2.0870     1.0754    -1.7549 H       
  41 H41           -4.1884     2.3655    -1.4658 H       
  42 H42           -2.8413    -0.7776     2.0259 H       
  43 H43            4.3399    -2.6941    -0.0734 H       
  44 H44            2.5602    -2.6632    -0.0805 H       
  45 H45           -6.9576     2.4885    -1.1111 H       
  46 H46           -6.8519     3.8929    -0.0226 H       
  47 H47           -5.4567     3.4422    -1.0318 H       
  48 H48           -4.9979     2.9946     3.0488 H       
  49 H49           -6.2161     4.1331     2.4259 H       
  50 H50           -7.6138     2.2271     1.6758 H       
  51 H51           -6.3955     1.0887     2.2987 H       
  52 H52            2.5865    -1.6720    -2.3533 H       
  53 H53            4.3662    -1.7029    -2.3462 H       
  54 H54            4.3224    -4.1689    -2.0900 H       
  55 H55            2.5427    -4.1380    -2.0972 H       
  56 H56            2.5690    -3.1469    -4.3700 H       
  57 H57            4.3487    -3.1778    -4.3628 H       
  58 H58            5.4175    -5.4222    -4.2784 H       
  59 H59            1.2823    -5.2884    -4.3404 H       
  60 H60            2.1453    -6.8449    -4.3122 H       
  61 H61            2.1577    -5.7942    -2.8755 H       
  62 H62            4.3312    -4.6527    -6.3795 H       
  63 H63            3.4145    -6.1783    -6.3584 H       
  64 H64            2.5515    -4.6218    -6.3866 H       
  65 H65           -7.9024     3.1736     3.9700 H       
  66 H66           -6.6841     2.0351     4.5930 H       
  67 H67           -6.4223     5.0734     4.6854 H       
  68 H68           -8.2605     4.1662     6.1380 H       
  69 H69           -7.0689     3.1015     6.9220 H       
  70 H70           -4.5812     4.5433     6.1013 H       
  71 H71           -4.8544     2.9113     5.9344 H       
  72 H72            6.4203     2.2803    -0.0071 H       
  73 H73            6.0047     2.5435     1.7035 H       
  74 H74            6.8059     1.0345     1.2043 H       
  75 H75           -8.6337     5.3151     8.2656 H       
  76 H76           -7.4421     4.2504     9.0496 H       
  77 H77           -7.2261     6.0165     9.0993 H       
@<TRIPOS>BOND
   1    1    2 ar
   2    1    6 ar
   3    2    3 ar
   4    2   11 1
   5    3    4 ar
   6    4    5 ar
   7    4    7 1
   8    5    6 ar
   9    5   10 1
  10    6   38 1
  11    7    8 am
  12    7   20 1
  13    8    9 1
  14    8   19 2
  15    9   10 2
  16    9   35 1
  17   10   39 1
  18   11   12 1
  19   12   13 ar
  20   12   17 ar
  21   13   14 ar
  22   13   40 1
  23   14   15 ar
  24   14   41 1
  25   15   16 ar
  26   15   18 1
  27   16   17 ar
  28   17   42 1
  29   18   21 1
  30   18   23 1
  31   20   24 1
  32   20   43 1
  33   20   44 1
  34   21   45 1
  35   21   46 1
  36   21   47 1
  37   22   23 1
  38   22   31 1
  39   22   48 1
  40   22   49 1
  41   23   50 1
  42   23   51 1
  43   24   25 1
  44   24   52 1
  45   24   53 1
  46   25   26 1
  47   25   54 1
  48   25   55 1
  49   26   27 1
  50   26   56 1
  51   26   57 1
  52   27   28 1
  53   27   29 1
  54   27   30 1
  55   28   58 1
  56   29   59 1
  57   29   60 1
  58   29   61 1
  59   30   62 1
  60   30   63 1
  61   30   64 1
  62   31   32 1
  63   31   65 1
  64   31   66 1
  65   32   33 1
  66   32   34 1
  67   32   67 1
  68   33   36 1
  69   33   68 1
  70   33   69 1
  71   34   70 1
  72   34   71 1
  73   35   72 1
  74   35   73 1
  75   35   74 1
  76   36   37 1
  77   37   75 1
  78   37   76 1
  79   37   77 1

#	End of record

