#	Name: ASD01478106
#	Creating user name:	WinNT
#	Creation time:	15. 06. 2019 19:21

#	Modifying user name:	WinNT
#	Modification time:	15. 06. 2019 19:21

#	Program:	/corina/corina34_cracker 3.40 0067  02.08.2006

@<TRIPOS>MOLECULE
ASD01478106
  23   24    0    0    0
SMALL
NO_CHARGES


@<TRIPOS>ATOM
   1 O1            -0.0169     1.3928     0.0097 O.3     
   2 C2             0.0021    -0.0041     0.0020 C.3     
   3 O3             0.2168    -0.5856     1.2778 O.3     
   4 C4             1.5454    -0.5513     1.7488 C.3     
   5 O5             1.9698     0.7910     1.9096 O.3     
   6 C6             2.3396     1.5430     0.7920 C.3     
   7 C7             1.1795     2.1269     0.0022 C.3     
   8 C8             0.9636     3.5662     0.4972 C.3     
   9 C9             2.0348     3.8115     1.5826 C.3     
  10 C10            3.1499     2.7864     1.2536 C.3     
  11 O11            2.5398     5.1454     1.4946 O.3     
  12 H12           -0.9512    -0.3621    -0.3867 H       
  13 H13            0.7940    -0.3369    -0.6690 H       
  14 H14            1.6023    -1.0658     2.7080 H       
  15 H15            2.1961    -1.0528     1.0324 H       
  16 H16            2.9621     0.9373     0.1334 H       
  17 H17            1.5044     2.2043    -1.0354 H       
  18 H18            1.0951     4.2693    -0.3252 H       
  19 H19           -0.0338     3.6702     0.9244 H       
  20 H20            1.6235     3.6228     2.5742 H       
  21 H21            3.7387     2.5568     2.1417 H       
  22 H22            3.7876     3.1531     0.4493 H       
  23 H23            3.2162     5.3541     2.1534 H       
@<TRIPOS>BOND
   1    1    2 1
   2    1    7 1
   3    2    3 1
   4    2   12 1
   5    2   13 1
   6    3    4 1
   7    4    5 1
   8    4   14 1
   9    4   15 1
  10    5    6 1
  11    6    7 1
  12    6   10 1
  13    6   16 1
  14    7    8 1
  15    7   17 1
  16    8    9 1
  17    8   18 1
  18    8   19 1
  19    9   10 1
  20    9   11 1
  21    9   20 1
  22   10   21 1
  23   10   22 1
  24   11   23 1

#	End of record

