#	Name: ASD01814544
#	Creating user name:	WinNT
#	Creation time:	15. 06. 2019 19:32

#	Modifying user name:	WinNT
#	Modification time:	15. 06. 2019 19:32

#	Program:	/corina/corina34_cracker 3.40 0067  02.08.2006

@<TRIPOS>MOLECULE
ASD01814544
  64   68    0    0    0
SMALL
NO_CHARGES


@<TRIPOS>ATOM
   1 C1            -0.0168     1.3882     0.0097 C.ar    
   2 C2             0.0021    -0.0041     0.0020 C.ar    
   3 C3             1.1795    -0.6891    -0.0124 C.ar    
   4 C4             2.3944     0.0147    -0.0202 C.ar    
   5 C5             2.3745     1.4312    -0.0129 C.ar    
   6 C6             1.1424     2.1038     0.0024 C.ar    
   7 C7             3.6273    -0.6667    -0.0345 C.ar    
   8 C8             4.7911     0.0287    -0.0410 C.ar    
   9 C9             4.7929     1.4362    -0.0341 C.ar    
  10 C10            3.5923     2.1420    -0.0203 C.ar    
  11 O11            3.5945     3.4965    -0.0140 O.3     
  12 C12            3.5844     4.1511    -1.2841 C.3     
  13 C13            6.0721     2.1670    -0.0414 C.2     
  14 O14            6.0777     3.3832    -0.0354 O.2     
  15 N15            7.2362     1.4879    -0.0548 N.am    
  16 C16            3.6526    -2.1735    -0.0423 C.3     
  17 C17            3.5246    -2.6708    -1.4591 C.ar    
  18 C18            4.6531    -2.8805    -2.2297 C.ar    
  19 C19            2.2730    -2.9281    -2.0008 C.ar    
  20 C20            2.1989    -3.3841    -3.3054 C.ar    
  21 C21            3.3771    -3.5682    -4.0262 C.ar    
  22 N22            4.5544    -3.3151    -3.4696 N.ar    
  23 C23            3.3147    -4.0569    -5.4254 C.ar    
  24 C24            4.4858    -4.2475    -6.1639 C.ar    
  25 C25            4.3739    -4.7051    -7.4658 C.ar    
  26 C26            3.1188    -4.9565    -7.9888 C.ar    
  27 N27            2.0308    -4.7667    -7.2674 N.ar    
  28 C28            2.0878    -4.3388    -6.0230 C.ar    
  29 C29            8.5082     2.2146    -0.0621 C.3     
  30 C30            8.9010     2.5696     1.3734 C.3     
  31 C31            9.5942     1.3354    -0.6854 C.3     
  32 C32           10.9227     2.0944    -0.6931 C.3     
  33 C33           11.3155     2.4494     0.7424 C.3     
  34 C34           10.2295     3.3285     1.3658 C.3     
  35 O35            9.2274     1.0039    -2.0261 O.3     
  36 H36           -0.9635     1.9079     0.0170 H       
  37 H37           -0.9304    -0.5489     0.0080 H       
  38 H38            1.1785    -1.7691    -0.0175 H       
  39 H39            1.1136     3.1834     0.0085 H       
  40 H40            5.7301    -0.5049    -0.0514 H       
  41 H41            4.4690     3.8595    -1.8503 H       
  42 H42            2.6891     3.8623    -1.8347 H       
  43 H43            3.5874     5.2311    -1.1363 H       
  44 H44            7.2317     0.5179    -0.0596 H       
  45 H45            4.5938    -2.5232     0.3819 H       
  46 H46            2.8223    -2.5539     0.5527 H       
  47 H47            5.6287    -2.6852    -1.8097 H       
  48 H48            1.3770    -2.7762    -1.4173 H       
  49 H49            1.2414    -3.5947    -3.7583 H       
  50 H50            5.4534    -4.0427    -5.7302 H       
  51 H51            5.2573    -4.8636    -8.0665 H       
  52 H52            3.0279    -5.3136    -9.0040 H       
  53 H53            1.1748    -4.1953    -5.4641 H       
  54 H54            8.4011     3.1287    -0.6461 H       
  55 H55            8.1273     3.1959     1.8175 H       
  56 H56            9.0081     1.6555     1.9574 H       
  57 H57            9.7014     0.4214    -0.1014 H       
  58 H58           11.6964     1.4681    -1.1371 H       
  59 H59           10.8156     3.0085    -1.2771 H       
  60 H60           11.4226     1.5353     1.3264 H       
  61 H61           12.2619     2.9901     0.7370 H       
  62 H62           10.1223     4.2426     0.7818 H       
  63 H63           10.5093     3.5815     2.3884 H       
  64 H64            9.8717     0.4467    -2.4839 H       
@<TRIPOS>BOND
   1    1    2 ar
   2    1    6 ar
   3    1   36 1
   4    2    3 ar
   5    2   37 1
   6    3    4 ar
   7    3   38 1
   8    4    5 ar
   9    4    7 ar
  10    5    6 ar
  11    5   10 ar
  12    6   39 1
  13    7    8 ar
  14    7   16 1
  15    8    9 ar
  16    8   40 1
  17    9   10 ar
  18    9   13 1
  19   10   11 1
  20   11   12 1
  21   12   41 1
  22   12   42 1
  23   12   43 1
  24   13   14 2
  25   13   15 am
  26   15   29 1
  27   15   44 1
  28   16   17 1
  29   16   45 1
  30   16   46 1
  31   17   18 ar
  32   17   19 ar
  33   18   22 ar
  34   18   47 1
  35   19   20 ar
  36   19   48 1
  37   20   21 ar
  38   20   49 1
  39   21   22 ar
  40   21   23 1
  41   23   24 ar
  42   23   28 ar
  43   24   25 ar
  44   24   50 1
  45   25   26 ar
  46   25   51 1
  47   26   27 ar
  48   26   52 1
  49   27   28 ar
  50   28   53 1
  51   29   30 1
  52   29   31 1
  53   29   54 1
  54   30   34 1
  55   30   55 1
  56   30   56 1
  57   31   32 1
  58   31   35 1
  59   31   57 1
  60   32   33 1
  61   32   58 1
  62   32   59 1
  63   33   34 1
  64   33   60 1
  65   33   61 1
  66   34   62 1
  67   34   63 1
  68   35   64 1

#	End of record

