#	Name: ASD01812003
#	Creating user name:	WinNT
#	Creation time:	15. 06. 2019 19:27

#	Modifying user name:	WinNT
#	Modification time:	15. 06. 2019 19:27

#	Program:	/corina/corina34_cracker 3.40 0067  02.08.2006

@<TRIPOS>MOLECULE
ASD01812003
  45   47    0    0    0
SMALL
NO_CHARGES


@<TRIPOS>ATOM
   1 C1            -0.0167     1.3823     0.0096 C.ar    
   2 C2             0.0021    -0.0041     0.0020 C.ar    
   3 C3            -1.1785    -0.7088     0.0100 C.ar    
   4 C4            -2.4114    -0.0353     0.0254 C.ar    
   5 C5            -2.4274     1.3603     0.0322 C.ar    
   6 C6            -1.2186     2.0581     0.0305 C.ar    
   7 C7            -3.6299    -0.8490     0.0342 C.2     
   8 C8            -4.7602     0.5707     1.5997 C.3     
   9 C9            -4.6790     1.8164     0.7590 C.2     
  10 N10           -3.5935     2.1071     0.0446 N.am    
  11 S11           -5.9275     2.8147     0.7216 S.2     
  12 C12           -3.6522    -2.0775    -0.8383 C.3     
  13 C13           -4.9496    -2.8515    -0.5962 C.3     
  14 C14           -4.9722    -4.0988    -1.4820 C.3     
  15 C15           -4.8940    -3.6817    -2.9520 C.3     
  16 C16           -3.5967    -2.9077    -3.1942 C.3     
  17 C17           -3.5740    -1.6604    -2.3083 C.3     
  18 C18           -3.6001     0.5489     2.5970 C.3     
  19 C19           -3.6825     1.7797     3.5021 C.3     
  20 N20           -4.6739    -0.5975     0.7244 N.2     
  21 C21           -3.6849    -0.7183     3.4503 C.3     
  22 Cl22           1.4757     2.2690     0.0002 Cl      
  23 H23            0.9448    -0.5308    -0.0106 H       
  24 H24           -1.1579    -1.7885     0.0040 H       
  25 H25           -1.2247     3.1381     0.0369 H       
  26 H26           -5.7076     0.5550     2.1385 H       
  27 H27           -3.6216     2.9030    -0.5091 H       
  28 H28           -2.7999    -2.7117    -0.5947 H       
  29 H29           -5.0053    -3.1487     0.4511 H       
  30 H30           -5.8019    -2.2173    -0.8398 H       
  31 H31           -4.1198    -4.7330    -1.2384 H       
  32 H32           -5.8965    -4.6502    -1.3095 H       
  33 H33           -4.9101    -4.5703    -3.5831 H       
  34 H34           -5.7464    -3.0475    -3.1956 H       
  35 H35           -2.7443    -3.5419    -2.9506 H       
  36 H36           -3.5409    -2.6106    -4.2414 H       
  37 H37           -4.4264    -1.0262    -2.5519 H       
  38 H38           -2.6498    -1.1090    -2.4808 H       
  39 H39           -2.6546     0.5592     2.0548 H       
  40 H40           -4.6280     1.7693     4.0443 H       
  41 H41           -2.8560     1.7642     4.2126 H       
  42 H42           -3.6221     2.6824     2.8942 H       
  43 H43           -3.6262    -1.5951     2.8055 H       
  44 H44           -2.8584    -0.7338     4.1608 H       
  45 H45           -4.6304    -0.7286     3.9925 H       
@<TRIPOS>BOND
   1    1    2 ar
   2    1   22 1
   3    1    6 ar
   4    2    3 ar
   5    2   23 1
   6    3    4 ar
   7    3   24 1
   8    4    5 ar
   9    4    7 1
  10    5    6 ar
  11    5   10 1
  12    6   25 1
  13    7   12 1
  14    7   20 2
  15    8    9 1
  16    8   20 1
  17    8   18 1
  18    8   26 1
  19    9   10 am
  20    9   11 2
  21   10   27 1
  22   12   13 1
  23   12   17 1
  24   12   28 1
  25   13   14 1
  26   13   29 1
  27   13   30 1
  28   14   15 1
  29   14   31 1
  30   14   32 1
  31   15   16 1
  32   15   33 1
  33   15   34 1
  34   16   17 1
  35   16   35 1
  36   16   36 1
  37   17   37 1
  38   17   38 1
  39   18   19 1
  40   18   21 1
  41   18   39 1
  42   19   40 1
  43   19   41 1
  44   19   42 1
  45   21   43 1
  46   21   44 1
  47   21   45 1

#	End of record

