#	Name: ASD03080179
#	Creating user name:	WinNT
#	Creation time:	15. 06. 2019 20:26

#	Modifying user name:	WinNT
#	Modification time:	15. 06. 2019 20:26

#	Program:	/corina/corina34_cracker 3.40 0067  02.08.2006

@<TRIPOS>MOLECULE
ASD03080179
  44   46    0    0    0
SMALL
NO_CHARGES


@<TRIPOS>ATOM
   1 C1            -0.0168     1.3843     0.0097 C.ar    
   2 C2             0.0021    -0.0041     0.0020 C.ar    
   3 C3             1.2232    -0.6647    -0.0132 C.ar    
   4 C4             2.3917     0.1041    -0.0202 C.ar    
   5 C5             2.2849     1.4951    -0.0117 C.ar    
   6 N6             1.1042     2.0785     0.0027 N.ar    
   7 C7             3.7188    -0.5470    -0.0358 C.2     
   8 C8             4.8195     0.1917    -0.0424 C.2     
   9 N9             8.2866    -0.6857     1.1601 N.3     
  10 C10            6.9603    -0.0559     1.1858 C.3     
  11 C11            6.1723    -0.4721    -0.0583 C.3     
  12 C12            6.9394    -0.0392    -1.3108 C.3     
  13 C13            8.3344    -0.6701    -1.2889 C.3     
  14 C14            9.0597    -0.2481    -0.0091 C.3     
  15 C15            9.0196    -0.4204     2.4052 C.3     
  16 O16           -1.1607    -0.7078     0.0098 O.3     
  17 C17           -2.3749     0.0455     0.0258 C.3     
  18 C18           -3.5687    -0.9114     0.0325 C.3     
  19 C19           -4.9642    -0.2989     0.1679 C.3     
  20 C20           -4.5091    -0.8762    -1.1739 C.3     
  21 H21           -0.9638     1.9033     0.0169 H       
  22 H22            1.2696    -1.7437    -0.0191 H       
  23 H23            3.1797     2.0998    -0.0170 H       
  24 H24            3.7916    -1.6246    -0.0420 H       
  25 H25            4.7467     1.2692    -0.0362 H       
  26 H26            6.4238    -0.3753     2.0792 H       
  27 H27            7.0733     1.0282     1.1983 H       
  28 H28            6.0470    -1.5548    -0.0644 H       
  29 H29            6.4031    -0.3718    -2.1995 H       
  30 H30            7.0309     1.0469    -1.3247 H       
  31 H31            8.2431    -1.7559    -1.3144 H       
  32 H32            8.9006    -0.3315    -2.1566 H       
  33 H33            9.1628     0.8368     0.0090 H       
  34 H34           10.0480    -0.7072     0.0164 H       
  35 H35            8.4587    -0.8211     3.2495 H       
  36 H36            9.9982    -0.8982     2.3596 H       
  37 H37            9.1458     0.6550     2.5304 H       
  38 H38           -2.4039     0.6689     0.9195 H       
  39 H39           -2.4215     0.6785    -0.8603 H       
  40 H40           -3.3946    -1.8769     0.5074 H       
  41 H41           -5.7083    -0.8617     0.7315 H       
  42 H42           -5.0318     0.7857     0.2523 H       
  43 H43           -4.2772    -0.1713    -1.9723 H       
  44 H44           -4.9537    -1.8188    -1.4930 H       
@<TRIPOS>BOND
   1    1    2 ar
   2    1    6 ar
   3    1   21 1
   4    2    3 ar
   5    2   16 1
   6    3    4 ar
   7    3   22 1
   8    4    5 ar
   9    4    7 1
  10    5    6 ar
  11    5   23 1
  12    7    8 2
  13    7   24 1
  14    8   11 1
  15    8   25 1
  16    9   10 1
  17    9   14 1
  18    9   15 1
  19   10   11 1
  20   10   26 1
  21   10   27 1
  22   11   12 1
  23   11   28 1
  24   12   13 1
  25   12   29 1
  26   12   30 1
  27   13   14 1
  28   13   31 1
  29   13   32 1
  30   14   33 1
  31   14   34 1
  32   15   35 1
  33   15   36 1
  34   15   37 1
  35   16   17 1
  36   17   18 1
  37   17   38 1
  38   17   39 1
  39   18   19 1
  40   18   20 1
  41   18   40 1
  42   19   20 1
  43   19   41 1
  44   19   42 1
  45   20   43 1
  46   20   44 1

#	End of record

