#	Name: ASD03091236
#	Creating user name:	WinNT
#	Creation time:	15. 06. 2019 20:30

#	Modifying user name:	WinNT
#	Modification time:	15. 06. 2019 20:30

#	Program:	/corina/corina34_cracker 3.40 0067  02.08.2006

@<TRIPOS>MOLECULE
ASD03091236
  51   55    0    0    0
SMALL
NO_CHARGES


@<TRIPOS>ATOM
   1 N1             0.1195     1.0910     0.1179 N.2     
   2 C2             0.3372    -0.1988     0.1214 C.2     
   3 N3             1.5916    -0.7447     0.0696 N.am    
   4 C4             2.6835     0.0528     0.0109 C.2     
   5 C5             2.4625     1.5065     0.0054 C.ar    
   6 C6             3.5216     2.4096    -0.0530 C.ar    
   7 C7             3.2558     3.7685    -0.0554 C.ar    
   8 C8             1.9408     4.2309     0.0000 C.ar    
   9 C9             0.8928     3.3581     0.0580 C.ar    
  10 C10            1.1318     1.9803     0.0619 C.ar    
  11 O11            3.8061    -0.4156    -0.0352 O.2     
  12 C12            1.7530    -2.2008     0.0784 C.3     
  13 C13           -0.8246    -1.1088     0.1845 C.ar    
  14 C14           -1.0209    -2.0679    -0.8141 C.ar    
  15 C15           -2.1104    -2.9161    -0.7477 C.ar    
  16 C16           -3.0041    -2.8173     0.3028 C.ar    
  17 C17           -2.8150    -1.8695     1.2947 C.ar    
  18 C18           -1.7287    -1.0192     1.2443 C.ar    
  19 F19           -0.1485    -2.1648    -1.8411 F       
  20 Cl20          -3.9437    -1.7548     2.6088 Cl      
  21 N21            6.8277     5.8749    -1.1218 N.3     
  22 C22            6.7765     4.9529     0.0231 C.3     
  23 C23            5.6064     3.9913    -0.1134 C.3     
  24 N24            4.3115     4.6825    -0.1132 N.3     
  25 C25            4.1896     5.5542    -1.2901 C.3     
  26 C26            4.6225     6.9719    -0.9478 C.3     
  27 C27            6.1225     7.1224    -0.7944 C.3     
  28 C28            6.4377     5.3269    -2.4032 C.3     
  29 C29            4.9670     4.9458    -2.4429 C.3     
  30 H30            4.5403     2.0532    -0.0955 H       
  31 H31            1.7494     5.2938    -0.0026 H       
  32 H32           -0.1198     3.7313     0.1008 H       
  33 H33            1.7072    -2.5776    -0.9434 H       
  34 H34            2.7173    -2.4568     0.5172 H       
  35 H35            0.9544    -2.6513     0.6678 H       
  36 H36           -2.2640    -3.6573    -1.5181 H       
  37 H37           -3.8538    -3.4822     0.3497 H       
  38 H38           -1.5806    -0.2838     2.0213 H       
  39 H39            7.7053     4.3842     0.0679 H       
  40 H40            6.6635     5.5277     0.9423 H       
  41 H41            5.7111     3.4381    -1.0468 H       
  42 H42            5.6302     3.2860     0.7173 H       
  43 H43            3.1396     5.5820    -1.5817 H       
  44 H44            4.2831     7.6414    -1.7382 H       
  45 H45            4.1443     7.2675    -0.0139 H       
  46 H46            6.3489     7.3994     0.2353 H       
  47 H47            6.4707     7.9130    -1.4590 H       
  48 H48            6.6319     6.0681    -3.1785 H       
  49 H49            7.0383     4.4402    -2.6061 H       
  50 H50            4.8809     3.8603    -2.3945 H       
  51 H51            4.5365     5.2922    -3.3825 H       
@<TRIPOS>BOND
   1    1    2 2
   2    1   10 1
   3    2    3 1
   4    2   13 1
   5    3    4 am
   6    3   12 1
   7    4    5 1
   8    4   11 2
   9    5    6 ar
  10    5   10 ar
  11    6    7 ar
  12    6   30 1
  13    7    8 ar
  14    7   24 1
  15    8    9 ar
  16    8   31 1
  17    9   10 ar
  18    9   32 1
  19   12   33 1
  20   12   34 1
  21   12   35 1
  22   13   14 ar
  23   13   18 ar
  24   14   15 ar
  25   14   19 1
  26   15   16 ar
  27   15   36 1
  28   16   17 ar
  29   16   37 1
  30   17   18 ar
  31   17   20 1
  32   18   38 1
  33   21   22 1
  34   21   27 1
  35   21   28 1
  36   22   23 1
  37   22   39 1
  38   22   40 1
  39   23   24 1
  40   23   41 1
  41   23   42 1
  42   24   25 1
  43   25   26 1
  44   25   29 1
  45   25   43 1
  46   26   27 1
  47   26   44 1
  48   26   45 1
  49   27   46 1
  50   27   47 1
  51   28   29 1
  52   28   48 1
  53   28   49 1
  54   29   50 1
  55   29   51 1

#	End of record

