#	Name: ASD08710037
#	Creating user name:	WinNT
#	Creation time:	15. 06. 2019 21:19

#	Modifying user name:	WinNT
#	Modification time:	15. 06. 2019 21:19

#	Program:	/corina/corina34_cracker 3.40 0067  02.08.2006

@<TRIPOS>MOLECULE
ASD08710037
  47   49    0    0    0
SMALL
NO_CHARGES


@<TRIPOS>ATOM
   1 C1            -0.3409     1.7529     0.6867 C.ar    
   2 C2            -0.2250     0.3847     0.5346 C.ar    
   3 C3             0.7987     2.5365     0.7959 C.ar    
   4 C4             2.0522     1.9436     0.7522 C.ar    
   5 C5             2.1627     0.5750     0.6000 C.ar    
   6 C6             1.0254    -0.2038     0.4913 C.ar    
   7 S7             1.1697    -1.9491     0.2972 S.o2    
   8 O8            -0.0327    -2.3848    -0.3220 O.2     
   9 O9             2.4579    -2.1864    -0.2538 O.2     
  10 N10            1.1810    -2.6118     1.8148 N.am    
  11 C11           -0.0745    -3.0115     2.4658 C.3     
  12 C12            2.4472    -2.8163     2.5323 C.3     
  13 C13            2.5481    -4.2921     2.9374 C.3     
  14 N14            1.2921    -4.6867     3.5907 N.am    
  15 C15            0.0317    -4.4869     2.8710 C.3     
  16 C16            1.3014    -5.2268     4.8254 C.2     
  17 C17            2.5864    -5.5473     5.4824 C.ar    
  18 O18            0.2532    -5.4505     5.3988 O.2     
  19 C19            3.6283    -6.1382     4.7579 C.ar    
  20 C20            4.8112    -6.4177     5.4198 C.ar    
  21 C21            4.9252    -6.1074     6.7628 C.ar    
  22 N22            3.9258    -5.5508     7.4205 N.ar    
  23 C23            2.7832    -5.2606     6.8340 C.ar    
  24 O24            0.6873     3.8827     0.9452 O.3     
  25 C25            6.2117    -6.4102     7.4868 C.3     
  26 C26            1.9029     4.6264     1.0514 C.3     
  27 F27            2.6250     4.1832     2.1647 F       
  28 F28            2.6672     4.4383    -0.1052 F       
  29 H29           -1.3178     2.2126     0.7160 H       
  30 H30           -1.1119    -0.2257     0.4499 H       
  31 H31            2.9408     2.5515     0.8367 H       
  32 H32            3.1383     0.1130     0.5655 H       
  33 H33           -0.2377    -2.3994     3.3527 H       
  34 H34           -0.9043    -2.8818     1.7710 H       
  35 H35            3.2824    -2.5577     1.8814 H       
  36 H36            2.4676    -2.1899     3.4241 H       
  37 H37            2.7072    -4.9049     2.0502 H       
  38 H38            3.3786    -4.4251     3.6308 H       
  39 H39           -0.8050    -4.7442     3.5205 H       
  40 H40            0.0146    -5.1165     1.9814 H       
  41 H41            3.5119    -6.3703     3.7096 H       
  42 H42            5.6365    -6.8737     4.8931 H       
  43 H43            1.9884    -4.8050     7.4059 H       
  44 H44            6.8794    -5.5516     7.4158 H       
  45 H45            5.9981    -6.6186     8.5352 H       
  46 H46            6.6880    -7.2794     7.0333 H       
  47 H47            1.6721     5.6854     1.1661 H       
@<TRIPOS>BOND
   1    1    2 ar
   2    1    3 ar
   3    1   29 1
   4    2    6 ar
   5    2   30 1
   6    3    4 ar
   7    3   24 1
   8    4    5 ar
   9    4   31 1
  10    5    6 ar
  11    5   32 1
  12    6    7 1
  13    7    8 2
  14    7    9 2
  15    7   10 am
  16   10   11 1
  17   10   12 1
  18   11   15 1
  19   11   33 1
  20   11   34 1
  21   12   13 1
  22   12   35 1
  23   12   36 1
  24   13   14 1
  25   13   37 1
  26   13   38 1
  27   14   15 1
  28   14   16 am
  29   15   39 1
  30   15   40 1
  31   16   17 1
  32   16   18 2
  33   17   19 ar
  34   17   23 ar
  35   19   20 ar
  36   19   41 1
  37   20   21 ar
  38   20   42 1
  39   21   22 ar
  40   21   25 1
  41   22   23 ar
  42   23   43 1
  43   24   26 1
  44   25   44 1
  45   25   45 1
  46   25   46 1
  47   26   27 1
  48   26   28 1
  49   26   47 1

#	End of record

