#	Name: ASD01230570
#	Creating user name:	WinNT
#	Creation time:	15. 06. 2019 19:14

#	Modifying user name:	WinNT
#	Modification time:	15. 06. 2019 19:14

#	Program:	/corina/corina34_cracker 3.40 0067  02.08.2006

@<TRIPOS>MOLECULE
ASD01230570
  43   46    0    0    0
SMALL
NO_CHARGES


@<TRIPOS>ATOM
   1 S1             1.5539     0.5638     2.0228 S.o2    
   2 N2             1.0961    -0.8811     1.3590 N.am    
   3 C3             1.8604    -1.5398     0.5219 C.2     
   4 N4             3.0951    -1.1424     0.0943 N.pl3   
   5 C5             3.7204     0.1291     0.4675 C.3     
   6 C6             3.3701     0.4977     1.9121 C.3     
   7 C7             1.3139    -2.8170     0.0159 C.2     
   8 C8             2.0784    -3.5826    -0.8374 C.2     
   9 C9             3.3522    -3.1260    -1.2031 C.2     
  10 C10            3.8211    -1.9539    -0.7418 C.2     
  11 C11           -0.0369    -3.2677     0.4212 C.ar    
  12 C12           -0.1879    -4.4254     1.1855 C.ar    
  13 C13           -1.4473    -4.8418     1.5614 C.ar    
  14 C14           -2.5648    -4.1107     1.1803 C.ar    
  15 C15           -2.4184    -2.9584     0.4193 C.ar    
  16 C16           -1.1616    -2.5327     0.0446 C.ar    
  17 O17           -3.8044    -4.5241     1.5526 O.3     
  18 C18           -5.5032    -4.5633     3.2255 C.ar    
  19 C19           -4.2908    -4.0891     2.7446 C.ar    
  20 C20           -3.5802    -3.1623     3.5008 C.ar    
  21 C21           -4.1164    -2.7492     4.7099 C.ar    
  22 C22           -5.3299    -3.2669     5.1221 C.ar    
  23 N23           -5.9784    -4.1444     4.3813 N.ar    
  24 C24           -3.3849    -1.7474     5.5657 C.3     
  25 F25           -3.7865    -0.4537     5.2159 F       
  26 F26           -3.6821    -1.9797     6.9129 F       
  27 F27           -2.0069    -1.8788     5.3628 F       
  28 O28            1.0301     1.5453     1.1388 O.2     
  29 O29            1.1280     0.4865     3.3762 O.2     
  30 H30            4.8025     0.0392     0.3718 H       
  31 H31            3.3651     0.9140    -0.2000 H       
  32 H32            3.7930     1.4712     2.1600 H       
  33 H33            3.7564    -0.2605     2.5932 H       
  34 H34            1.7020    -4.5205    -1.2184 H       
  35 H35            3.9641    -3.7231    -1.8630 H       
  36 H36            4.8094    -1.6377    -1.0411 H       
  37 H37            0.6807    -4.9946     1.4819 H       
  38 H38           -1.5649    -5.7379     2.1527 H       
  39 H39           -3.2897    -2.3926     0.1241 H       
  40 H40           -1.0482    -1.6339    -0.5432 H       
  41 H41           -6.0652    -5.2795     2.6445 H       
  42 H42           -2.6336    -2.7747     3.1541 H       
  43 H43           -5.7525    -2.9489     6.0637 H       
@<TRIPOS>BOND
   1    1    2 am
   2    1    6 1
   3    1   28 2
   4    1   29 2
   5    2    3 2
   6    3    4 1
   7    3    7 1
   8    4    5 1
   9    4   10 1
  10    5    6 1
  11    5   30 1
  12    5   31 1
  13    6   32 1
  14    6   33 1
  15    7    8 2
  16    7   11 1
  17    8    9 1
  18    8   34 1
  19    9   10 2
  20    9   35 1
  21   10   36 1
  22   11   12 ar
  23   11   16 ar
  24   12   13 ar
  25   12   37 1
  26   13   14 ar
  27   13   38 1
  28   14   15 ar
  29   14   17 1
  30   15   16 ar
  31   15   39 1
  32   16   40 1
  33   17   19 1
  34   18   19 ar
  35   18   23 ar
  36   18   41 1
  37   19   20 ar
  38   20   21 ar
  39   20   42 1
  40   21   22 ar
  41   21   24 1
  42   22   23 ar
  43   22   43 1
  44   24   25 1
  45   24   26 1
  46   24   27 1

#	End of record

