#	Name: ASD01410677
#	Creating user name:	WinNT
#	Creation time:	15. 06. 2019 19:18

#	Modifying user name:	WinNT
#	Modification time:	15. 06. 2019 19:18

#	Program:	/corina/corina34_cracker 3.40 0067  02.08.2006

@<TRIPOS>MOLECULE
ASD01410677
  83   86    0    0    0
SMALL
NO_CHARGES


@<TRIPOS>ATOM
   1 C1             0.7373     0.2794     3.5149 C.ar    
   2 C2             1.5690    -0.1068     4.5567 C.ar    
   3 C3             2.8527    -0.5309     4.2747 C.ar    
   4 N4             3.2935    -0.5723     3.0320 N.ar    
   5 C5             2.5309    -0.2123     2.0126 C.ar    
   6 C6             1.2292     0.2247     2.2223 C.ar    
   7 O7             3.0249    -0.2705     0.7504 O.3     
   8 C8             4.3322    -0.6089     0.5916 C.ar    
   9 C9             4.7572    -1.8953     0.9014 C.ar    
  10 C10            6.0819    -2.2494     0.7439 C.ar    
  11 C11            7.0003    -1.3207     0.2745 C.ar    
  12 C12            6.5776    -0.0201    -0.0401 C.ar    
  13 C13            5.2335     0.3265     0.1170 C.ar    
  14 N14            8.3383    -1.6787     0.1165 N.am    
  15 C15            8.7587    -2.2194    -1.0442 C.2     
  16 C16            9.2875    -1.4670     1.2122 C.3     
  17 O17            9.9079    -2.5895    -1.1597 O.2     
  18 C18            7.8008    -2.3642    -2.1986 C.3     
  19 C19            8.3082    -3.4505    -3.1491 C.3     
  20 C20            9.6896    -3.0604    -3.6786 C.3     
  21 C21            9.5912    -1.7310    -4.4295 C.3     
  22 C22            9.0839    -0.6447    -3.4790 C.3     
  23 C23            7.7025    -1.0348    -2.9495 C.3     
  24 C24            8.6248    -0.6271     2.3059 C.3     
  25 C25            9.7074    -2.8194     1.7916 C.3     
  26 C26            1.0768    -0.0634     5.9804 C.3     
  27 O27           10.4595    -3.5429     0.8155 O.3     
  28 C28           10.9025    -4.8274     1.2581 C.3     
  29 O29            8.3638     0.6858     1.8059 O.3     
  30 C30            7.8526     1.5904     2.7870 C.3     
  31 C31            0.4442    -1.3848     6.3337 C.ar    
  32 C32           10.9727    -1.3409    -4.9589 C.3     
  33 C33            0.8928    -2.0829     7.4387 C.ar    
  34 C34            0.3040    -3.2979     7.7551 C.ar    
  35 C35           -0.7182    -3.7667     6.9445 C.ar    
  36 C36           -1.1138    -3.0129     5.8555 C.ar    
  37 N37           -0.5346    -1.8589     5.5879 N.ar    
  38 C38           -2.2236    -3.5130     4.9672 C.3     
  39 C39            7.5456     0.9732    -0.5388 C.2     
  40 O40            8.7023     0.6526    -0.7280 O.2     
  41 O41            7.1478     2.2370    -0.7850 O.3     
  42 C42            0.3642     0.6338     1.0581 C.3     
  43 F43           -0.8923     1.0312     1.5277 F       
  44 F44            0.9672     1.6989     0.3806 F       
  45 F45            0.2145    -0.4492     0.1851 F       
  46 H46           -0.2723     0.6109     3.7081 H       
  47 H47            3.5040    -0.8322     5.0818 H       
  48 H48            4.0470    -2.6219     1.2678 H       
  49 H49            6.4045    -3.2510     0.9868 H       
  50 H50            4.9006     1.3255    -0.1231 H       
  51 H51           10.1667    -0.9444     0.8354 H       
  52 H52            6.8167    -2.6421    -1.8214 H       
  53 H53            8.3782    -4.3976    -2.6142 H       
  54 H54            7.6153    -3.5552    -3.9841 H       
  55 H55           10.3824    -2.9557    -2.8436 H       
  56 H56           10.0510    -3.8343    -4.3557 H       
  57 H57            8.8984    -1.8357    -5.2644 H       
  58 H58            9.7767    -0.5400    -2.6440 H       
  59 H59            9.0138     0.3024    -4.0139 H       
  60 H60            7.0096    -1.1395    -3.7845 H       
  61 H61            7.3410    -0.2609    -2.2723 H       
  62 H62            7.6869    -1.0951     2.6052 H       
  63 H63            9.2896    -0.5624     3.1673 H       
  64 H64           10.3210    -2.6600     2.6782 H       
  65 H65            8.8192    -3.3902     2.0622 H       
  66 H66            1.9159     0.1281     6.6492 H       
  67 H67            0.3392     0.7322     6.0857 H       
  68 H68           10.0391    -5.4399     1.5177 H       
  69 H69           11.4654    -5.3123     0.4606 H       
  70 H70           11.5410    -4.7097     2.1337 H       
  71 H71            7.7639     2.5859     2.3521 H       
  72 H72            6.8716     1.2502     3.1188 H       
  73 H73            8.5323     1.6251     3.6384 H       
  74 H74           11.3341    -2.1148    -5.6361 H       
  75 H75           10.9026    -0.3937    -5.4939 H       
  76 H76           11.6655    -1.2361    -4.1240 H       
  77 H77            1.6920    -1.6874     8.0479 H       
  78 H78            0.6342    -3.8655     8.6125 H       
  79 H79           -1.1992    -4.7091     7.1610 H       
  80 H80           -3.1803    -3.1471     5.3400 H       
  81 H81           -2.0670    -3.1506     3.9512 H       
  82 H82           -2.2263    -4.6030     4.9678 H       
  83 H83            7.8184     2.8527    -1.1109 H       
@<TRIPOS>BOND
   1    1    2 ar
   2    1    6 ar
   3    1   46 1
   4    2    3 ar
   5    2   26 1
   6    3    4 ar
   7    3   47 1
   8    4    5 ar
   9    5    6 ar
  10    5    7 1
  11    6   42 1
  12    7    8 1
  13    8    9 ar
  14    8   13 ar
  15    9   10 ar
  16    9   48 1
  17   10   11 ar
  18   10   49 1
  19   11   12 ar
  20   11   14 1
  21   12   13 ar
  22   12   39 1
  23   13   50 1
  24   14   15 am
  25   14   16 1
  26   15   17 2
  27   15   18 1
  28   16   24 1
  29   16   25 1
  30   16   51 1
  31   18   19 1
  32   18   23 1
  33   18   52 1
  34   19   20 1
  35   19   53 1
  36   19   54 1
  37   20   21 1
  38   20   55 1
  39   20   56 1
  40   21   22 1
  41   21   32 1
  42   21   57 1
  43   22   23 1
  44   22   58 1
  45   22   59 1
  46   23   60 1
  47   23   61 1
  48   24   29 1
  49   24   62 1
  50   24   63 1
  51   25   27 1
  52   25   64 1
  53   25   65 1
  54   26   31 1
  55   26   66 1
  56   26   67 1
  57   27   28 1
  58   28   68 1
  59   28   69 1
  60   28   70 1
  61   29   30 1
  62   30   71 1
  63   30   72 1
  64   30   73 1
  65   31   33 ar
  66   31   37 ar
  67   32   74 1
  68   32   75 1
  69   32   76 1
  70   33   34 ar
  71   33   77 1
  72   34   35 ar
  73   34   78 1
  74   35   36 ar
  75   35   79 1
  76   36   37 ar
  77   36   38 1
  78   38   80 1
  79   38   81 1
  80   38   82 1
  81   39   40 2
  82   39   41 1
  83   41   83 1
  84   42   43 1
  85   42   44 1
  86   42   45 1

#	End of record

