#	Name: ASD05143067
#	Creating user name:	WinNT
#	Creation time:	15. 06. 2019 20:57

#	Modifying user name:	WinNT
#	Modification time:	15. 06. 2019 20:57

#	Program:	/corina/corina34_cracker 3.40 0067  02.08.2006

@<TRIPOS>MOLECULE
ASD05143067
 147  150    0    0    0
SMALL
NO_CHARGES


@<TRIPOS>ATOM
   1 C1            -2.1132     5.3887     7.5267 C.2     
   2 C2            -1.6287     4.6496     8.7474 C.3     
   3 N3            -1.2247     5.9255     6.6671 N.am    
   4 O4            -3.3026     5.4960     7.3151 O.2     
   5 C5            -1.6956     6.6440     5.4804 C.3     
   6 C6            -2.5282     5.7005     4.6100 C.3     
   7 C7            -2.5439     7.8147     5.9057 C.2     
   8 C8            -1.6356     4.5783     4.0762 C.3     
   9 C9            -2.4681     3.6348     3.2058 C.3     
  10 N10           -1.6135     2.5604     2.6946 N.pl3   
  11 C11           -2.1452     1.5862     1.8831 C.2     
  12 N12           -3.4790     1.6203     1.5515 N.pl3   
  13 N13           -1.3848     0.6302     1.4283 N.2     
  14 O14           -3.0376     7.8352     7.0133 O.2     
  15 N15           -2.7538     8.8390     5.0552 N.am    
  16 C16           -3.5784     9.9771     5.4687 C.3     
  17 C17           -2.6760    11.1680     5.7974 C.3     
  18 C18           -1.5206    10.7034     6.6860 C.3     
  19 C19           -0.3787    10.2344     5.8218 C.2     
  20 N20            0.8881    10.6469     6.1250 N.am    
  21 C21            1.9523    10.1361     5.2310 C.3     
  22 C22            2.1034    11.0972     4.0502 C.3     
  23 C23            2.7680    10.3674     2.8811 C.3     
  24 C24            3.7269    11.3194     2.1635 C.3     
  25 N25            3.6767    11.0430     0.7138 N.am    
  26 C26            5.1290    11.1012     2.6710 C.2     
  27 O27            5.5139    11.6469     3.8354 O.3     
  28 O28            5.9067    10.4349     2.0297 O.2     
  29 C29            2.8511    11.8313    -0.0273 C.2     
  30 O30            2.2066    12.7127     0.5005 O.2     
  31 C31            2.7483    11.5954    -1.5122 C.3     
  32 N32            1.5339    12.2782    -2.0148 N.am    
  33 C33            3.9846    12.1661    -2.2100 C.3     
  34 C34            0.4812    11.4586    -2.3092 C.2     
  35 O35            0.5729    10.2582    -2.1625 O.2     
  36 C36           -0.7962    12.0745    -2.8192 C.3     
  37 N37           -1.9231    11.1811    -2.4848 N.am    
  38 C38           -1.0084    13.4373    -2.1569 C.3     
  39 C39           -3.0283    11.7689    -1.9493 C.2     
  40 O40           -3.0582    12.9667    -1.7615 O.2     
  41 C41           -4.2142    10.9097    -1.5939 C.3     
  42 C42            3.9378    11.8213    -3.6762 C.2     
  43 C43            3.2404    12.5688    -4.7254 C.ar    
  44 C44            3.4795    11.8718    -5.9236 C.ar    
  45 N45            4.2645    10.7846    -5.6115 N.pl3   
  46 C46            4.5322    10.7741    -4.2696 C.2     
  47 C47            2.4634    13.7289    -4.7372 C.ar    
  48 C48            1.9386    14.1817    -5.9146 C.ar    
  49 C49            2.1713    13.4972    -7.0998 C.ar    
  50 C50            2.9355    12.3512    -7.1110 C.ar    
  51 N51           -4.8012    11.4104    -0.3300 N.am    
  52 C52           -3.7611     9.4599    -1.4104 C.3     
  53 C53           -4.9596     8.5907    -1.1293 C.ar    
  54 C54           -5.9880     8.5134    -2.0491 C.ar    
  55 C55           -7.0882     7.7149    -1.7910 C.ar    
  56 C56           -7.1580     6.9945    -0.6122 C.ar    
  57 C57           -6.1287     7.0726     0.3072 C.ar    
  58 C58           -5.0275     7.8663     0.0465 C.ar    
  59 C59           -4.5158    10.3513     4.3494 C.2     
  60 O60           -5.7142    10.2192     4.4805 O.2     
  61 C61           -1.0197    13.2691    -0.6362 C.3     
  62 C62           -1.3784    14.6029     0.0219 C.3     
  63 N63           -1.3892    14.4418     1.4779 N.pl3   
  64 C64           -1.6873    15.5135     2.2859 C.2     
  65 N65           -1.6975    15.3623     3.6524 N.pl3   
  66 N66           -1.9602    16.6728     1.7565 N.2     
  67 N67           -3.9979    10.8393     3.1888 N.am    
  68 C68           -4.9647    11.1889     2.1290 C.3     
  69 C69           -4.4088    10.7490     0.7992 C.2     
  70 O70           -3.6271     9.8241     0.7325 O.2     
  71 C71           -5.1866    12.7027     2.1165 C.3     
  72 C72           -5.8511    13.1316     3.4262 C.3     
  73 C73           -6.0730    14.6453     3.4137 C.3     
  74 N74           -6.7110    15.0571     4.6712 N.3     
  75 Cl75          -8.3807     7.6177    -2.9459 Cl      
  76 O76           -0.5803     9.5040     4.8749 O.2     
  77 H77           -0.5389     4.6532     8.7655 H       
  78 H78           -2.0086     5.1401     9.6436 H       
  79 H79           -1.9882     3.6211     8.7159 H       
  80 H80           -0.2733     5.8362     6.8343 H       
  81 H81           -0.8394     7.0039     4.9100 H       
  82 H82           -3.3334     5.2716     5.2065 H       
  83 H83           -2.9520     6.2566     3.7739 H       
  84 H84           -0.8304     5.0072     3.4797 H       
  85 H85           -1.2118     4.0222     4.9123 H       
  86 H86           -3.2734     3.2059     3.8022 H       
  87 H87           -2.8919     4.1910     2.3696 H       
  88 H88           -0.6724     2.5363     2.9286 H       
  89 H89           -4.0449     2.3317     1.8900 H       
  90 H90           -3.8542     0.9330     0.9790 H       
  91 H91           -1.7600    -0.0571     0.8558 H       
  92 H92           -2.3590     8.8225     4.1694 H       
  93 H93           -4.1569     9.7050     6.3515 H       
  94 H94           -2.2777    11.5878     4.8736 H       
  95 H95           -3.2547    11.9284     6.3219 H       
  96 H96           -1.1869    11.5319     7.3108 H       
  97 H97           -1.8571     9.8830     7.3200 H       
  98 H98            1.0772    11.2339     6.8737 H       
  99 H99            2.8931    10.0784     5.7783 H       
 100 H100           1.6784     9.1468     4.8645 H       
 101 H101           1.1201    11.4541     3.7440 H       
 102 H102           2.7211    11.9445     4.3480 H       
 103 H103           3.3231     9.5082     3.2576 H       
 104 H104           2.0030    10.0278     2.1828 H       
 105 H105           3.4255    12.3503     2.3495 H       
 106 H106           4.2045    10.3360     0.3107 H       
 107 H107           6.4228    11.4790     4.1197 H       
 108 H108           2.6746    10.5258    -1.7087 H       
 109 H109           1.4892    13.2406    -2.1274 H       
 110 H110           4.0008    13.2495    -2.0918 H       
 111 H111           4.8829    11.7385    -1.7646 H       
 112 H112          -0.7360    12.1974    -3.9006 H       
 113 H113          -1.8783    10.2244    -2.6383 H       
 114 H114          -0.1993    14.1098    -2.4420 H       
 115 H115          -1.9605    13.8556    -2.4832 H       
 116 H116          -4.9574    10.9650    -2.3894 H       
 117 H117           4.5834    10.1263    -6.2485 H       
 118 H118           5.1271    10.0293    -3.7619 H       
 119 H119           2.2777    14.2662    -3.8189 H       
 120 H120           1.3377    15.0790    -5.9233 H       
 121 H121           1.7493    13.8673    -8.0225 H       
 122 H122           3.1110    11.8260    -8.0383 H       
 123 H123          -5.4209    12.1562    -0.3055 H       
 124 H124          -3.2678     9.1156    -2.3194 H       
 125 H125          -3.0646     9.4000    -0.5741 H       
 126 H126          -5.9331     9.0764    -2.9692 H       
 127 H127          -8.0166     6.3714    -0.4100 H       
 128 H128          -6.1830     6.5102     1.2276 H       
 129 H129          -4.2234     7.9268     0.7649 H       
 130 H130          -1.7585    12.5170    -0.3593 H       
 131 H131          -0.0333    12.9509    -0.2985 H       
 132 H132          -0.6395    15.3550    -0.2550 H       
 133 H133          -2.3647    14.9210    -0.3158 H       
 134 H134          -1.1861    13.5790     1.8719 H       
 135 H135          -1.4944    14.4995     4.0464 H       
 136 H136          -1.9077    16.1184     4.2225 H       
 137 H137          -2.1705    17.4289     2.3266 H       
 138 H138          -3.0425    10.9519     3.0646 H       
 139 H139          -5.9108    10.6807     2.3155 H       
 140 H140          -4.2273    13.2097     2.0127 H       
 141 H141          -5.8307    12.9686     1.2782 H       
 142 H142          -6.8104    12.6246     3.5300 H       
 143 H143          -5.2071    12.8657     4.2644 H       
 144 H144          -5.1137    15.1523     3.3099 H       
 145 H145          -6.7170    14.9112     2.5755 H       
 146 H146          -6.1640    14.7644     5.4670 H       
 147 H147          -6.8683    16.0536     4.6875 H       
@<TRIPOS>BOND
   1    1    2 1
   2    1    3 am
   3    1    4 2
   4    2   77 1
   5    2   78 1
   6    2   79 1
   7    3    5 1
   8    3   80 1
   9    5    6 1
  10    5    7 1
  11    5   81 1
  12    6    8 1
  13    6   82 1
  14    6   83 1
  15    7   14 2
  16    7   15 am
  17    8    9 1
  18    8   84 1
  19    8   85 1
  20    9   10 1
  21    9   86 1
  22    9   87 1
  23   10   11 1
  24   10   88 1
  25   11   12 1
  26   11   13 2
  27   12   89 1
  28   12   90 1
  29   13   91 1
  30   15   16 1
  31   15   92 1
  32   16   17 1
  33   16   59 1
  34   16   93 1
  35   17   18 1
  36   17   94 1
  37   17   95 1
  38   18   19 1
  39   18   96 1
  40   18   97 1
  41   19   20 am
  42   19   76 2
  43   20   21 1
  44   20   98 1
  45   21   22 1
  46   21   99 1
  47   21  100 1
  48   22   23 1
  49   22  101 1
  50   22  102 1
  51   23   24 1
  52   23  103 1
  53   23  104 1
  54   24   25 1
  55   24   26 1
  56   24  105 1
  57   25   29 am
  58   25  106 1
  59   26   27 1
  60   26   28 2
  61   27  107 1
  62   29   30 2
  63   29   31 1
  64   31   32 1
  65   31   33 1
  66   31  108 1
  67   32   34 am
  68   32  109 1
  69   33   42 1
  70   33  110 1
  71   33  111 1
  72   34   35 2
  73   34   36 1
  74   36   37 1
  75   36   38 1
  76   36  112 1
  77   37   39 am
  78   37  113 1
  79   38   61 1
  80   38  114 1
  81   38  115 1
  82   39   40 2
  83   39   41 1
  84   41   51 1
  85   41   52 1
  86   41  116 1
  87   42   43 1
  88   42   46 2
  89   43   44 ar
  90   43   47 ar
  91   44   45 1
  92   44   50 ar
  93   45   46 1
  94   45  117 1
  95   46  118 1
  96   47   48 ar
  97   47  119 1
  98   48   49 ar
  99   48  120 1
 100   49   50 ar
 101   49  121 1
 102   50  122 1
 103   51   69 am
 104   51  123 1
 105   52   53 1
 106   52  124 1
 107   52  125 1
 108   53   54 ar
 109   53   58 ar
 110   54   55 ar
 111   54  126 1
 112   55   56 ar
 113   55   75 1
 114   56   57 ar
 115   56  127 1
 116   57   58 ar
 117   57  128 1
 118   58  129 1
 119   59   60 2
 120   59   67 am
 121   61   62 1
 122   61  130 1
 123   61  131 1
 124   62   63 1
 125   62  132 1
 126   62  133 1
 127   63   64 1
 128   63  134 1
 129   64   65 1
 130   64   66 2
 131   65  135 1
 132   65  136 1
 133   66  137 1
 134   67   68 1
 135   67  138 1
 136   68   69 1
 137   68   71 1
 138   68  139 1
 139   69   70 2
 140   71   72 1
 141   71  140 1
 142   71  141 1
 143   72   73 1
 144   72  142 1
 145   72  143 1
 146   73   74 1
 147   73  144 1
 148   73  145 1
 149   74  146 1
 150   74  147 1

#	End of record

