#	Name: ASD01410896
#	Creating user name:	WinNT
#	Creation time:	15. 06. 2019 19:18

#	Modifying user name:	WinNT
#	Modification time:	15. 06. 2019 19:18

#	Program:	/corina/corina34_cracker 3.40 0067  02.08.2006

@<TRIPOS>MOLECULE
ASD01410896
  81   85    0    0    0
SMALL
NO_CHARGES


@<TRIPOS>ATOM
   1 C1            -2.2751     3.3344     0.5993 C.ar    
   2 C2            -2.0006     1.1761    -0.4215 C.ar    
   3 C3            -3.3116     0.8523    -0.1012 C.ar    
   4 C4            -4.1096     1.7780     0.5883 C.ar    
   5 C5            -3.5817     3.0252     0.9308 C.ar    
   6 O6            -1.7588     4.5459     0.9373 O.3     
   7 C7            -1.5066     5.4313    -0.0592 C.ar    
   8 N8            -3.8304    -0.3929    -0.4533 N.am    
   9 C9            -3.8348    -1.3991     0.4433 C.2     
  10 C10           -3.3718    -1.1516     1.8559 C.3     
  11 O11           -4.2112    -2.5038     0.1133 O.2     
  12 C12           -3.9730    -2.2103     2.7825 C.3     
  13 C13           -1.3748    -0.9801     3.3477 C.3     
  14 C14           -1.9761    -2.0387     4.2743 C.3     
  15 C15           -3.5030    -1.9590     4.2167 C.3     
  16 C16           -1.5060    -1.7874     5.7084 C.3     
  17 N17           -1.8592     5.1387    -1.3004 N.ar    
  18 C18           -4.3710    -0.6076    -1.7979 C.3     
  19 C19           -0.8858     6.6387     0.2341 C.ar    
  20 C20           -0.6346     7.5334    -0.7917 C.ar    
  21 C21           -1.0151     7.1867    -2.0805 C.ar    
  22 C22           -1.6331     5.9710    -2.2986 C.ar    
  23 C23           -1.8449    -1.2313     1.9135 C.3     
  24 C24           -1.4863     2.4086    -0.0733 C.ar    
  25 C25           -5.4453     0.4421    -2.0893 C.3     
  26 C26           -6.0098     0.2179    -3.4936 C.3     
  27 C27           -4.8836     0.3418    -4.5218 C.3     
  28 C28           -3.8093    -0.7079    -4.2304 C.3     
  29 C29           -3.2448    -0.4837    -2.8261 C.3     
  30 O30           -2.2414    -1.4641    -2.5540 O.3     
  31 C31           -0.9227    -1.0678    -2.9363 C.3     
  32 C32            0.0492    -2.1709    -2.6052 C.ar    
  33 C33            0.3236    -3.1533    -3.5382 C.ar    
  34 C34            1.2150    -4.1652    -3.2345 C.ar    
  35 C35            1.8324    -4.1945    -1.9980 C.ar    
  36 C36            1.5587    -3.2116    -1.0654 C.ar    
  37 C37            0.6705    -2.1972    -1.3707 C.ar    
  38 C38           -0.4916     6.9703     1.6503 C.3     
  39 F39            0.1114     8.2323     1.6832 F       
  40 F40           -1.6308     6.9766     2.4623 F       
  41 F41            0.4107     6.0100     2.1203 F       
  42 C42           -5.5032     1.4435     0.9325 C.2     
  43 O43           -5.9271     0.3231     0.7290 O.2     
  44 O44           -6.3072     2.3803     1.4729 O.3     
  45 H45           -1.3842     0.4655    -0.9522 H       
  46 H46           -4.1924     3.7462     1.4538 H       
  47 H47           -3.6963    -0.1616     2.1764 H       
  48 H48           -5.0608    -2.1535     2.7415 H       
  49 H49           -3.6485    -3.2002     2.4620 H       
  50 H50           -1.6994     0.0099     3.6682 H       
  51 H51           -0.2871    -1.0368     3.3887 H       
  52 H52           -1.6516    -3.0287     3.9538 H       
  53 H53           -3.8275    -0.9690     4.5372 H       
  54 H54           -3.9313    -2.7132     4.8768 H       
  55 H55           -1.8306    -0.7975     6.0290 H       
  56 H56           -1.9344    -2.5416     6.3686 H       
  57 H57           -0.4183    -1.8442     5.7495 H       
  58 H58           -4.8101    -1.6034    -1.8582 H       
  59 H59           -0.1536     8.4799    -0.5935 H       
  60 H60           -0.8339     7.8622    -2.9035 H       
  61 H61           -1.9308     5.6963    -3.2997 H       
  62 H62           -1.5204    -2.2213     1.5930 H       
  63 H63           -1.4166    -0.4771     1.2534 H       
  64 H64           -0.4654     2.6552    -0.3251 H       
  65 H65           -6.2476     0.3539    -1.3568 H       
  66 H66           -5.0062     1.4379    -2.0290 H       
  67 H67           -6.4490    -0.7779    -3.5539 H       
  68 H68           -6.7752     0.9657    -3.7011 H       
  69 H69           -5.2858     0.1820    -5.5222 H       
  70 H70           -4.4445     1.3376    -4.4614 H       
  71 H71           -4.2484    -1.7037    -4.2907 H       
  72 H72           -3.0070    -0.6197    -4.9629 H       
  73 H73           -2.8056     0.5121    -2.7658 H       
  74 H74           -0.8986    -0.8719    -4.0082 H       
  75 H75           -0.6439    -0.1635    -2.3953 H       
  76 H76           -0.1587    -3.1305    -4.5042 H       
  77 H77            1.4289    -4.9332    -3.9632 H       
  78 H78            2.5283    -4.9855    -1.7605 H       
  79 H79            2.0407    -3.2346    -0.0992 H       
  80 H80            0.4566    -1.4293    -0.6420 H       
  81 H81           -7.2130     2.1139     1.6818 H       
@<TRIPOS>BOND
   1    1   24 ar
   2    1    6 1
   3    1    5 ar
   4    2    3 ar
   5    2   24 ar
   6    2   45 1
   7    3    4 ar
   8    3    8 1
   9    4    5 ar
  10    4   42 1
  11    5   46 1
  12    6    7 1
  13    7   19 ar
  14    7   17 ar
  15    8    9 am
  16    8   18 1
  17    9   11 2
  18    9   10 1
  19   10   12 1
  20   10   23 1
  21   10   47 1
  22   12   15 1
  23   12   48 1
  24   12   49 1
  25   13   14 1
  26   13   23 1
  27   13   50 1
  28   13   51 1
  29   14   15 1
  30   14   16 1
  31   14   52 1
  32   15   53 1
  33   15   54 1
  34   16   55 1
  35   16   56 1
  36   16   57 1
  37   17   22 ar
  38   18   25 1
  39   18   29 1
  40   18   58 1
  41   19   20 ar
  42   19   38 1
  43   20   21 ar
  44   20   59 1
  45   21   22 ar
  46   21   60 1
  47   22   61 1
  48   23   62 1
  49   23   63 1
  50   24   64 1
  51   25   26 1
  52   25   65 1
  53   25   66 1
  54   26   27 1
  55   26   67 1
  56   26   68 1
  57   27   28 1
  58   27   69 1
  59   27   70 1
  60   28   29 1
  61   28   71 1
  62   28   72 1
  63   29   30 1
  64   29   73 1
  65   30   31 1
  66   31   32 1
  67   31   74 1
  68   31   75 1
  69   32   33 ar
  70   32   37 ar
  71   33   34 ar
  72   33   76 1
  73   34   35 ar
  74   34   77 1
  75   35   36 ar
  76   35   78 1
  77   36   37 ar
  78   36   79 1
  79   37   80 1
  80   38   39 1
  81   38   40 1
  82   38   41 1
  83   42   43 2
  84   42   44 1
  85   44   81 1

#	End of record

