#	Name: ASD07150006
#	Creating user name:	WinNT
#	Creation time:	15. 06. 2019 21:09

#	Modifying user name:	WinNT
#	Modification time:	15. 06. 2019 21:09

#	Program:	/corina/corina34_cracker 3.40 0067  02.08.2006

@<TRIPOS>MOLECULE
ASD07150006
  43   46    0    0    0
SMALL
NO_CHARGES


@<TRIPOS>ATOM
   1 N1            -0.0160     1.3305     0.0094 N.am    
   2 C2             0.0021    -0.0041     0.0020 C.2     
   3 S3             1.6983    -0.5193    -0.0169 S.3     
   4 C4             2.3569     1.1824    -0.0141 C.3     
   5 C5             1.1050     2.0320     0.0024 C.2     
   6 O6             1.1275     3.2442     0.0081 O.2     
   7 O7            -0.9696    -0.7347     0.0074 O.2     
   8 C8             3.1985     1.4347     1.2385 C.3     
   9 C9             4.4366     0.5768     1.1930 C.ar    
  10 C10            5.5065    -1.5027     1.7202 C.ar    
  11 C11            4.4056    -0.7024     1.7443 C.ar    
  12 C12            5.5669     1.0613     0.6090 C.ar    
  13 C13            6.7231     0.2645     0.5646 C.ar    
  14 C14            6.6934    -1.0350     1.1306 C.ar    
  15 C15            7.8487    -1.8327     1.0870 C.ar    
  16 C16            7.9079     0.7320    -0.0310 C.ar    
  17 C17            9.0093    -0.0650    -0.0574 C.ar    
  18 C18            8.9841    -1.3451     0.5055 C.ar    
  19 C19           13.2367    -4.6961     0.5221 C.ar    
  20 C20           12.1989    -3.7836     0.4783 C.ar    
  21 C21           12.3894    -2.5474    -0.1088 C.ar    
  22 C22           13.6205    -2.2225    -0.6534 C.ar    
  23 C23           14.6589    -3.1369    -0.6090 C.ar    
  24 C24           14.4659    -4.3729    -0.0212 C.ar    
  25 O25           10.1012    -2.1177     0.4643 O.3     
  26 C26           11.2578    -1.5533    -0.1568 C.3     
  27 F27           13.8078    -1.0142    -1.2280 F       
  28 H28           -0.8677     1.7947     0.0159 H       
  29 H29            2.9394     1.3718    -0.9157 H       
  30 H30            3.4858     2.4855     1.2776 H       
  31 H31            2.6153     1.1843     2.1246 H       
  32 H32            5.4682    -2.4917     2.1522 H       
  33 H33            3.4947    -1.0643     2.1978 H       
  34 H34            5.5746     2.0531     0.1815 H       
  35 H35            7.8393    -2.8258     1.5112 H       
  36 H36            7.9429     1.7199    -0.4659 H       
  37 H37            9.9175     0.2971    -0.5160 H       
  38 H38           13.0882    -5.6605     0.9851 H       
  39 H39           11.2387    -4.0374     0.9028 H       
  40 H40           15.6193    -2.8847    -1.0337 H       
  41 H41           15.2760    -5.0863     0.0139 H       
  42 H42           11.5485    -0.6461     0.3730 H       
  43 H43           11.0310    -1.3109    -1.1950 H       
@<TRIPOS>BOND
   1    1    2 am
   2    1    5 am
   3    1   28 1
   4    2    3 1
   5    2    7 2
   6    3    4 1
   7    4    5 1
   8    4    8 1
   9    4   29 1
  10    5    6 2
  11    8    9 1
  12    8   30 1
  13    8   31 1
  14    9   12 ar
  15    9   11 ar
  16   10   11 ar
  17   10   14 ar
  18   10   32 1
  19   11   33 1
  20   12   13 ar
  21   12   34 1
  22   13   16 ar
  23   13   14 ar
  24   14   15 ar
  25   15   18 ar
  26   15   35 1
  27   16   17 ar
  28   16   36 1
  29   17   18 ar
  30   17   37 1
  31   18   25 1
  32   19   20 ar
  33   19   24 ar
  34   19   38 1
  35   20   21 ar
  36   20   39 1
  37   21   22 ar
  38   21   26 1
  39   22   23 ar
  40   22   27 1
  41   23   24 ar
  42   23   40 1
  43   24   41 1
  44   25   26 1
  45   26   42 1
  46   26   43 1

#	End of record

