#	Name: ASD01870042
#	Creating user name:	WinNT
#	Creation time:	15. 06. 2019 19:38

#	Modifying user name:	WinNT
#	Modification time:	15. 06. 2019 19:38

#	Program:	/corina/corina34_cracker 3.40 0067  02.08.2006

@<TRIPOS>MOLECULE
ASD01870042
  40   43    0    0    0
SMALL
NO_CHARGES


@<TRIPOS>ATOM
   1 C1            -0.0167     1.3774     0.0096 C.ar    
   2 C2             0.0021    -0.0041     0.0020 C.ar    
   3 N3             1.1354    -0.6695    -0.0124 N.ar    
   4 C4             2.3261    -0.0578    -0.0204 C.ar    
   5 C5             2.3957     1.3311    -0.0137 C.ar    
   6 C6             1.1851     2.0719     0.0019 C.ar    
   7 S7             3.9418    -0.7499    -0.0395 S.3     
   8 C8             4.7120     0.8266    -0.0385 C.2     
   9 C9             3.7719     1.8347    -0.0242 C.2     
  10 C10            6.0889     1.1773    -0.0506 C.2     
  11 N11            6.4256     2.4824    -0.0475 N.am    
  12 C12            5.4572     3.4333    -0.0332 C.2     
  13 N13            4.1962     3.1281    -0.0221 N.2     
  14 N14            1.2027     3.4594     0.0092 N.3     
  15 C15            7.8371     2.8747    -0.0592 C.3     
  16 O16            6.9500     0.3135    -0.0630 O.2     
  17 C17            0.5124     4.0008    -1.1691 C.3     
  18 C18            0.6190     3.9867     1.2498 C.3     
  19 C19            8.3074     3.0160    -1.4839 C.ar    
  20 C20            8.2026     4.2343    -2.1288 C.ar    
  21 C21            8.6340     4.3639    -3.4357 C.ar    
  22 C22            9.1705     3.2754    -4.0976 C.ar    
  23 C23            9.2761     2.0574    -3.4525 C.ar    
  24 C24            8.8487     1.9288    -2.1442 C.ar    
  25 H25           -0.9557     1.9109     0.0170 H       
  26 H26           -0.9315    -0.5470     0.0084 H       
  27 H27            5.7447     4.4743    -0.0305 H       
  28 H28            7.9538     3.8269     0.4581 H       
  29 H29            8.4303     2.1120     0.4453 H       
  30 H30           -0.5244     3.6643    -1.1692 H       
  31 H31            0.5409     5.0900    -1.1383 H       
  32 H32            1.0084     3.6497    -2.0740 H       
  33 H33            1.1925     3.6255     2.1034 H       
  34 H34            0.6453     5.0762     1.2293 H       
  35 H35           -0.4139     3.6498     1.3373 H       
  36 H36            7.7834     5.0847    -1.6116 H       
  37 H37            8.5514     5.3155    -3.9397 H       
  38 H38            9.5069     3.3765    -5.1189 H       
  39 H39            9.6950     1.2069    -3.9698 H       
  40 H40            8.9313     0.9772    -1.6402 H       
@<TRIPOS>BOND
   1    1    2 ar
   2    1    6 ar
   3    1   25 1
   4    2    3 ar
   5    2   26 1
   6    3    4 ar
   7    4    5 ar
   8    4    7 1
   9    5    6 ar
  10    5    9 1
  11    6   14 1
  12    7    8 1
  13    8    9 2
  14    8   10 1
  15    9   13 1
  16   10   11 am
  17   10   16 2
  18   11   12 1
  19   11   15 1
  20   12   13 2
  21   12   27 1
  22   14   17 1
  23   14   18 1
  24   15   19 1
  25   15   28 1
  26   15   29 1
  27   17   30 1
  28   17   31 1
  29   17   32 1
  30   18   33 1
  31   18   34 1
  32   18   35 1
  33   19   20 ar
  34   19   24 ar
  35   20   21 ar
  36   20   36 1
  37   21   22 ar
  38   21   37 1
  39   22   23 ar
  40   22   38 1
  41   23   24 ar
  42   23   39 1
  43   24   40 1

#	End of record

