#	Name: ASD01880002
#	Creating user name:	WinNT
#	Creation time:	15. 06. 2019 19:39

#	Modifying user name:	WinNT
#	Modification time:	15. 06. 2019 19:39

#	Program:	/corina/corina34_cracker 3.40 0067  02.08.2006

@<TRIPOS>MOLECULE
ASD01880002
  50   52    0    0    0
SMALL
NO_CHARGES


@<TRIPOS>ATOM
   1 C1            -0.4122     0.7389    -1.3371 C.ar    
   2 C2            -0.0980    -0.6060    -1.2929 C.ar    
   3 N3             1.0397    -1.0161    -0.7668 N.ar    
   4 C4             1.9173    -0.1689    -0.2660 C.ar    
   5 C5             1.6719     1.1914    -0.2757 C.ar    
   6 C6             0.4863     1.6601    -0.8200 C.ar    
   7 C7             2.6801     2.1527     0.2992 C.3     
   8 N8             3.6152     2.5652    -0.7504 N.am    
   9 C9             3.2880     3.6267    -1.6012 C.ar    
  10 C10            2.3936     4.6028    -1.1819 C.ar    
  11 C11            2.0711     5.6502    -2.0222 C.ar    
  12 C12            2.6404     5.7273    -3.2851 C.ar    
  13 C13            3.5339     4.7525    -3.7046 C.ar    
  14 C14            3.8618     3.7077    -2.8633 C.ar    
  15 O15            2.3220     6.7586    -4.1121 O.3     
  16 C16            3.0651     7.8944    -4.0314 C.ar    
  17 C17            4.1769     7.9395    -3.2057 C.ar    
  18 C18            4.9315     9.0954    -3.1249 C.ar    
  19 C19            4.5795    10.2075    -3.8663 C.ar    
  20 C20            3.4711    10.1693    -4.6924 C.ar    
  21 C21            2.7140     9.0128    -4.7826 C.ar    
  22 S22            5.0595     1.7752    -0.9298 S.o2    
  23 O23            5.9396     2.7660    -1.4424 O.2     
  24 O24            5.2904     1.1750     0.3374 O.2     
  25 C25            4.7290     0.5070    -2.1840 C.3     
  26 O26            1.6238     8.9735    -5.5944 O.3     
  27 C27            1.3167    10.1619    -6.3262 C.3     
  28 C28            5.9332    -0.4307    -2.2909 C.3     
  29 F29            6.1570    -1.0451    -1.0542 F       
  30 F30            5.6783    -1.4087    -3.2582 F       
  31 F31            7.0655     0.3044    -2.6581 F       
  32 H32           -1.3437     1.0688    -1.7728 H       
  33 H33           -0.7924    -1.3297    -1.6934 H       
  34 H34            2.8383    -0.5421     0.1569 H       
  35 H35            0.2676     2.7175    -0.8412 H       
  36 H36            2.1640     3.0292     0.6911 H       
  37 H37            3.2296     1.6646     1.1041 H       
  38 H38            1.9501     4.5427    -0.1990 H       
  39 H39            1.3753     6.4092    -1.6964 H       
  40 H40            3.9767     4.8133    -4.6878 H       
  41 H41            4.5577     2.9491    -3.1899 H       
  42 H42            4.4539     7.0721    -2.6250 H       
  43 H43            5.7976     9.1294    -2.4806 H       
  44 H44            5.1712    11.1085    -3.8001 H       
  45 H45            3.1981    11.0398    -5.2703 H       
  46 H46            3.8468    -0.0658    -1.8980 H       
  47 H47            4.5546     0.9857    -3.1476 H       
  48 H48            1.1340    10.9803    -5.6298 H       
  49 H49            2.1554    10.4166    -6.9741 H       
  50 H50            0.4265     9.9953    -6.9327 H       
@<TRIPOS>BOND
   1    1    2 ar
   2    1    6 ar
   3    1   32 1
   4    2    3 ar
   5    2   33 1
   6    3    4 ar
   7    4    5 ar
   8    4   34 1
   9    5    6 ar
  10    5    7 1
  11    6   35 1
  12    7    8 1
  13    7   36 1
  14    7   37 1
  15    8    9 1
  16    8   22 am
  17    9   10 ar
  18    9   14 ar
  19   10   11 ar
  20   10   38 1
  21   11   12 ar
  22   11   39 1
  23   12   13 ar
  24   12   15 1
  25   13   14 ar
  26   13   40 1
  27   14   41 1
  28   15   16 1
  29   16   17 ar
  30   16   21 ar
  31   17   18 ar
  32   17   42 1
  33   18   19 ar
  34   18   43 1
  35   19   20 ar
  36   19   44 1
  37   20   21 ar
  38   20   45 1
  39   21   26 1
  40   22   23 2
  41   22   24 2
  42   22   25 1
  43   25   28 1
  44   25   46 1
  45   25   47 1
  46   26   27 1
  47   27   48 1
  48   27   49 1
  49   27   50 1
  50   28   29 1
  51   28   30 1
  52   28   31 1

#	End of record

