#	Name: ASD01910448
#	Creating user name:	WinNT
#	Creation time:	15. 06. 2019 19:55

#	Modifying user name:	WinNT
#	Modification time:	15. 06. 2019 19:55

#	Program:	/corina/corina34_cracker 3.40 0067  02.08.2006

@<TRIPOS>MOLECULE
ASD01910448
  50   54    0    0    0
SMALL
NO_CHARGES


@<TRIPOS>ATOM
   1 C1             1.7399    -0.4104    -0.5061 C.ar    
   2 C2             2.0700    -1.7396    -0.7166 C.ar    
   3 C3             3.3936    -2.1092    -0.8942 C.ar    
   4 C4             4.3888    -1.1544    -0.8616 C.ar    
   5 C5             4.0613     0.1835    -0.6502 C.ar    
   6 C6             2.7288     0.5509    -0.4725 C.ar    
   7 F7             1.0986    -2.6780    -0.7484 F       
   8 C8             5.1284     1.2139    -0.6138 C.2     
   9 N9             4.9566     2.5410    -0.4188 N.2     
  10 C10            6.1577     3.0615    -0.4631 C.2     
  11 O11            7.0138     2.0580    -0.6797 O.3     
  12 N12            6.4117     1.0080    -0.7588 N.2     
  13 C13            6.5085     4.5180    -0.3009 C.3     
  14 C14            7.4429     4.6878     0.8992 C.3     
  15 C15            7.7735     6.1705     1.0848 C.3     
  16 C16            8.4921     6.6895    -0.1647 C.3     
  17 N17            7.6627     6.3990    -1.3421 N.am    
  18 C18            7.2127     5.0183    -1.5660 C.3     
  19 C19            7.3213     7.3802    -2.2006 C.2     
  20 C20            6.5925     7.0543    -3.4414 C.ar    
  21 O21            7.6138     8.5340    -1.9526 O.2     
  22 C22            7.0405     6.0202    -4.2673 C.ar    
  23 C23            6.3565     5.7187    -5.4248 C.ar    
  24 C24            5.2264     6.4370    -5.7763 C.ar    
  25 C25            4.7701     7.4671    -4.9683 C.ar    
  26 C26            5.4447     7.7768    -3.7937 C.ar    
  27 O27            3.6610     8.1646    -5.3382 O.3     
  28 C28            3.0193     8.9398    -4.3198 C.3     
  29 C29            4.0988     9.7213    -3.5587 C.3     
  30 O30            5.0105     8.7767    -2.9836 O.3     
  31 H31            0.7067    -0.1260    -0.3726 H       
  32 H32            3.6465    -3.1464    -1.0580 H       
  33 H33            5.4202    -1.4434    -0.9994 H       
  34 H34            2.4707     1.5868    -0.3088 H       
  35 H35            5.5985     5.0955    -0.1380 H       
  36 H36            6.9534     4.3098     1.7968 H       
  37 H37            8.3628     4.1296     0.7251 H       
  38 H38            6.8518     6.7328     1.2344 H       
  39 H39            8.4201     6.2931     1.9536 H       
  40 H40            8.6416     7.7659    -0.0796 H       
  41 H41            9.4564     6.1914    -0.2650 H       
  42 H42            8.0727     4.3840    -1.7806 H       
  43 H43            6.5181     4.9920    -2.4055 H       
  44 H44            7.9226     5.4578    -3.9988 H       
  45 H45            6.7038     4.9182    -6.0612 H       
  46 H46            4.6972     6.1937    -6.6858 H       
  47 H47            2.3151     9.6353    -4.7763 H       
  48 H48            2.4910     8.2788    -3.6328 H       
  49 H49            4.6303    10.3790    -4.2466 H       
  50 H50            3.6363    10.3120    -2.7680 H       
@<TRIPOS>BOND
   1    1    2 ar
   2    1    6 ar
   3    1   31 1
   4    2    3 ar
   5    2    7 1
   6    3    4 ar
   7    3   32 1
   8    4    5 ar
   9    4   33 1
  10    5    6 ar
  11    5    8 1
  12    6   34 1
  13    8    9 1
  14    8   12 2
  15    9   10 2
  16   10   11 1
  17   10   13 1
  18   11   12 1
  19   13   14 1
  20   13   18 1
  21   13   35 1
  22   14   15 1
  23   14   36 1
  24   14   37 1
  25   15   16 1
  26   15   38 1
  27   15   39 1
  28   16   17 1
  29   16   40 1
  30   16   41 1
  31   17   18 1
  32   17   19 am
  33   18   42 1
  34   18   43 1
  35   19   20 1
  36   19   21 2
  37   20   22 ar
  38   20   26 ar
  39   22   23 ar
  40   22   44 1
  41   23   24 ar
  42   23   45 1
  43   24   25 ar
  44   24   46 1
  45   25   26 ar
  46   25   27 1
  47   26   30 1
  48   27   28 1
  49   28   29 1
  50   28   47 1
  51   28   48 1
  52   29   30 1
  53   29   49 1
  54   29   50 1

#	End of record

