#	Name: ASD08170271
#	Creating user name:	WinNT
#	Creation time:	15. 06. 2019 21:17

#	Modifying user name:	WinNT
#	Modification time:	15. 06. 2019 21:17

#	Program:	/corina/corina34_cracker 3.40 0067  02.08.2006

@<TRIPOS>MOLECULE
ASD08170271
  66   69    0    0    0
SMALL
NO_CHARGES


@<TRIPOS>ATOM
   1 C1            -0.0162     1.3436     0.0094 C.2     
   2 N2             0.0021    -0.0041     0.0020 N.am    
   3 C3             1.2158    -0.6830    -0.0132 C.2     
   4 S4             1.4076    -2.3853    -0.0242 S.3     
   5 C5             3.1580    -2.1679    -0.0404 C.2     
   6 C6             4.1900    -3.2660    -0.0570 C.3     
   7 C7             5.9649    -5.1406     2.7999 C.3     
   8 C8             6.9968    -6.2387     2.7833 C.2     
   9 S9             6.6713    -7.9723     2.7767 S.3     
  10 C10            8.3583    -8.2694     2.7582 C.2     
  11 N11            2.3916    -0.1314    -0.0272 N.2     
  12 N12            3.3971    -0.8949    -0.0360 N.2     
  13 N13            8.2821    -6.0790     2.7658 N.2     
  14 N14            8.9817    -7.1299     2.7585 N.2     
  15 O15            1.0258     1.9642     0.0028 O.2     
  16 C16           -1.3314     2.0792     0.0197 C.3     
  17 N17            8.9606    -9.5229     2.7455 N.am    
  18 C18           10.3044    -9.6248     2.7315 C.2     
  19 C19           10.9570   -10.9831     2.7177 C.3     
  20 O20           10.9885    -8.6233     2.7299 O.2     
  21 C21            4.5536    -3.6458     1.3798 C.3     
  22 C22            5.6013    -4.7607     1.3631 C.3     
  23 C23           12.4780   -10.8180     2.7033 C.3     
  24 C24           -1.0722     3.5871     0.0266 C.3     
  25 O25           12.9221   -10.2035     3.9262 O.3     
  26 O26           -0.4315     3.9861    -1.1983 O.3     
  27 C27           -2.3834     4.3419     0.0722 C.2     
  28 O28           -2.4613     5.0766    -1.0544 O.3     
  29 C29           -1.1092     5.1943    -1.5888 C.3     
  30 O30           -3.2072     4.2941     0.9548 O.2     
  31 C31           -0.4068     6.4128    -0.9864 C.3     
  32 C32           -1.1514     5.3075    -3.1140 C.3     
  33 C33           13.1498   -12.1734     2.6541 C.2     
  34 O34           13.8838   -12.2970     3.7771 O.3     
  35 C35           14.0878   -10.9549     4.3108 C.3     
  36 O36           13.0466   -12.9925     1.7718 O.2     
  37 C37           15.3445   -10.3294     3.7025 C.3     
  38 C38           14.2056   -11.0045     5.8355 C.3     
  39 H39           -0.8313    -0.5005     0.0073 H       
  40 H40            3.7851    -4.1373    -0.5717 H       
  41 H41            5.0822    -2.9183    -0.5777 H       
  42 H42            5.0727    -5.4882     3.3206 H       
  43 H43            6.3698    -4.2692     3.3146 H       
  44 H44           -1.9035     1.8130    -0.8691 H       
  45 H45           -1.8951     1.8033     0.9108 H       
  46 H46            8.4135   -10.3239     2.7467 H       
  47 H47           10.6602   -11.5378     3.6077 H       
  48 H48           10.6423   -11.5284     1.8279 H       
  49 H49            4.9585    -2.7745     1.8946 H       
  50 H50            3.6614    -3.9935     1.9006 H       
  51 H51            6.4935    -4.4131     0.8423 H       
  52 H52            5.1964    -5.6320     0.8483 H       
  53 H53           12.7822   -10.2151     1.8477 H       
  54 H54           -0.4516     3.8575     0.8809 H       
  55 H55           -0.3768     6.3153     0.0988 H       
  56 H56            0.6101     6.4744    -1.3739 H       
  57 H57           -0.9534     7.3169    -1.2550 H       
  58 H58           -1.7029     6.2042    -3.3966 H       
  59 H59           -0.1347     5.3688    -3.5021 H       
  60 H60           -1.6468     4.4302    -3.5299 H       
  61 H61           15.2438   -10.2931     2.6177 H       
  62 H62           15.4710    -9.3183     4.0896 H       
  63 H63           16.2142   -10.9310     3.9667 H       
  64 H64           15.0677   -11.6106     6.1137 H       
  65 H65           14.3317    -9.9936     6.2232 H       
  66 H66           13.3012   -11.4446     6.2556 H       
@<TRIPOS>BOND
   1    1    2 am
   2    1   15 2
   3    1   16 1
   4    2    3 1
   5    2   39 1
   6    3    4 1
   7    3   11 2
   8    4    5 1
   9    5    6 1
  10    5   12 2
  11    6   21 1
  12    6   40 1
  13    6   41 1
  14    7    8 1
  15    7   22 1
  16    7   42 1
  17    7   43 1
  18    8    9 1
  19    8   13 2
  20    9   10 1
  21   10   17 1
  22   10   14 2
  23   11   12 1
  24   13   14 1
  25   16   24 1
  26   16   44 1
  27   16   45 1
  28   17   18 am
  29   17   46 1
  30   18   19 1
  31   18   20 2
  32   19   23 1
  33   19   47 1
  34   19   48 1
  35   21   22 1
  36   21   49 1
  37   21   50 1
  38   22   51 1
  39   22   52 1
  40   23   25 1
  41   23   33 1
  42   23   53 1
  43   24   26 1
  44   24   27 1
  45   24   54 1
  46   25   35 1
  47   26   29 1
  48   27   28 1
  49   27   30 2
  50   28   29 1
  51   29   31 1
  52   29   32 1
  53   31   55 1
  54   31   56 1
  55   31   57 1
  56   32   58 1
  57   32   59 1
  58   32   60 1
  59   33   34 1
  60   33   36 2
  61   34   35 1
  62   35   37 1
  63   35   38 1
  64   37   61 1
  65   37   62 1
  66   37   63 1
  67   38   64 1
  68   38   65 1
  69   38   66 1

#	End of record

