#	Name: ASD01948132
#	Creating user name:	WinNT
#	Creation time:	15. 06. 2019 20:13

#	Modifying user name:	WinNT
#	Modification time:	15. 06. 2019 20:13

#	Program:	/corina/corina34_cracker 3.40 0067  02.08.2006

@<TRIPOS>MOLECULE
ASD01948132
  45   47    0    0    0
SMALL
NO_CHARGES


@<TRIPOS>ATOM
   1 C1             1.7937     1.4249    -1.0422 C.ar    
   2 C2             1.5957     0.0500    -1.1425 C.ar    
   3 C3             1.7692    -0.5923    -2.3623 C.ar    
   4 C4             2.1385     0.1297    -3.4773 C.ar    
   5 C5             2.3380     1.5077    -3.3812 C.ar    
   6 C6             2.1577     2.1529    -2.1559 C.ar    
   7 N7             1.2222    -0.6849    -0.0142 N.pl3   
   8 C8             3.6353    -2.2748    -0.4411 C.2     
   9 C9             2.3570    -2.8681    -0.2922 C.2     
  10 C10            1.1549    -2.0643    -0.0789 C.2     
  11 N11            4.6940    -3.0930    -0.6398 N.am    
  12 F12            1.6238     2.0467     0.1451 F       
  13 C13            2.2467    -4.2644    -0.3512 C.2     
  14 N14            1.0218    -4.8536    -0.2091 N.am    
  15 C15           -0.0894    -4.1248    -0.0118 C.2     
  16 C16           -0.0544    -2.7278     0.0570 C.2     
  17 C17            4.5205    -4.4347    -0.6920 C.2     
  18 N18            3.3519    -4.9972    -0.5465 N.2     
  19 O19            3.7756    -1.0654    -0.3968 O.2     
  20 C20            0.9183    -6.3136    -0.2725 C.3     
  21 O21           -1.1605    -4.6976     0.1089 O.2     
  22 C22            2.7220     2.2593    -4.5380 C.1     
  23 C23            6.0347    -2.5246    -0.7996 C.3     
  24 C24            6.7060    -2.4082     0.5704 C.3     
  25 C25            8.1062    -1.8145     0.4034 C.3     
  26 O26            5.9253    -1.5577     1.4126 O.3     
  27 O27            8.7767    -1.8135     1.6654 O.3     
  28 F28           -1.1934    -2.0291     0.2562 F       
  29 C29            3.0369     2.8754    -5.4864 C.1     
  30 H30            1.6149    -1.6586    -2.4370 H       
  31 H31            2.2737    -0.3710    -4.4247 H       
  32 H32            2.3110     3.2192    -2.0785 H       
  33 H33            1.0102    -0.2273     0.8144 H       
  34 H34            5.3834    -5.0641    -0.8518 H       
  35 H35            1.0366    -6.7300     0.7279 H       
  36 H36           -0.0584    -6.5917    -0.6686 H       
  37 H37            1.6995    -6.7053    -0.9238 H       
  38 H38            6.6302    -3.1733    -1.4420 H       
  39 H39            5.9586    -1.5358    -1.2521 H       
  40 H40            6.7821    -3.3969     1.0229 H       
  41 H41            8.6728    -2.4146    -0.3086 H       
  42 H42            8.0257    -0.7922     0.0340 H       
  43 H43            5.8156    -0.6596     1.0713 H       
  44 H44            9.6722    -1.4499     1.6347 H       
  45 H45            3.3184     3.4265    -6.3347 H       
@<TRIPOS>BOND
   1    1    2 ar
   2    1   12 1
   3    1    6 ar
   4    2    3 ar
   5    2    7 1
   6    3    4 ar
   7    3   30 1
   8    4    5 ar
   9    4   31 1
  10    5    6 ar
  11    5   22 1
  12    6   32 1
  13    7   10 1
  14    7   33 1
  15    8    9 1
  16    8   19 2
  17    8   11 am
  18    9   10 1
  19    9   13 2
  20   10   16 2
  21   11   17 1
  22   11   23 1
  23   13   14 1
  24   13   18 1
  25   14   15 am
  26   14   20 1
  27   15   16 1
  28   15   21 2
  29   16   28 1
  30   17   18 2
  31   17   34 1
  32   20   35 1
  33   20   36 1
  34   20   37 1
  35   22   29 3
  36   23   24 1
  37   23   38 1
  38   23   39 1
  39   24   25 1
  40   24   26 1
  41   24   40 1
  42   25   27 1
  43   25   41 1
  44   25   42 1
  45   26   43 1
  46   27   44 1
  47   29   45 1

#	End of record

