#	Name: ASD04910250
#	Creating user name:	WinNT
#	Creation time:	15. 06. 2019 20:55

#	Modifying user name:	WinNT
#	Modification time:	15. 06. 2019 20:55

#	Program:	/corina/corina34_cracker 3.40 0067  02.08.2006

@<TRIPOS>MOLECULE
ASD04910250
  62   64    0    0    0
SMALL
NO_CHARGES


@<TRIPOS>ATOM
   1 C1            -0.4103     1.4011     0.2913 C.2     
   2 C2            -0.3261    -0.1031     0.2528 C.3     
   3 C3             1.1402    -0.5296     0.1589 C.3     
   4 O4             0.5990     2.0639     0.2481 O.2     
   5 O5            -1.6068     2.0046     0.3680 O.3     
   6 C6             2.4231    -2.5977     0.0389 C.2     
   7 C7             2.5057    -4.0733     0.0011 C.ar    
   8 C8             3.7480    -4.7039    -0.0844 C.ar    
   9 C9             3.8180    -6.0812    -0.1187 C.ar    
  10 C10            2.6603    -6.8373    -0.0691 C.ar    
  11 C11            1.4257    -6.2185     0.0157 C.ar    
  12 C12            1.3420    -4.8421     0.0567 C.ar    
  13 O13            3.4385    -1.9308    -0.0045 O.2     
  14 N14            1.2220    -1.9918     0.1215 N.am    
  15 C15            2.7445    -8.3415    -0.1081 C.3     
  16 C16            2.6051    -8.8970     1.3107 C.3     
  17 C17            2.8147   -10.4124     1.2879 C.3     
  18 C18            2.6752   -10.9679     2.7066 C.3     
  19 O19            1.6925    -8.8563    -0.9268 O.3     
  20 C20            1.9560    -9.9894    -1.6302 C.ar    
  21 C21            3.2252   -10.5486    -1.5941 C.ar    
  22 C22            3.4934   -11.6994    -2.3084 C.ar    
  23 C23            2.4927   -12.2973    -3.0623 C.ar    
  24 C24            1.2226   -11.7376    -3.0976 C.ar    
  25 C25            0.9542   -10.5895    -2.3792 C.ar    
  26 N26            2.7648   -13.4664    -3.7886 N.pl3   
  27 N27            2.2452   -13.7960    -5.0470 N.2     
  28 C28            2.7268   -14.9605    -5.4002 C.2     
  29 C29            3.5702   -15.4173    -4.3828 C.2     
  30 C30            3.5843   -14.4787    -3.3992 C.2     
  31 C31            2.4231   -15.6866    -6.6854 C.3     
  32 O32            4.2863   -14.5422    -2.2389 O.3     
  33 C33            5.1732   -15.6509    -2.0771 C.3     
  34 H34           -0.7670    -0.5150     1.1606 H       
  35 H35           -0.8691    -0.4752    -0.6160 H       
  36 H36            1.5811    -0.1177    -0.7488 H       
  37 H37            1.6832    -0.1574     1.0277 H       
  38 H38           -1.6103     2.9713     0.3900 H       
  39 H39            4.6523    -4.1148    -0.1239 H       
  40 H40            4.7786    -6.5704    -0.1849 H       
  41 H41            0.5259    -6.8145     0.0541 H       
  42 H42            0.3780    -4.3604     0.1274 H       
  43 H43            0.4118    -2.5240     0.1562 H       
  44 H44            3.7071    -8.6409    -0.5226 H       
  45 H45            3.3528    -8.4365     1.9563 H       
  46 H46            1.6087    -8.6737     1.6920 H       
  47 H47            2.0669   -10.8730     0.6422 H       
  48 H48            3.8111   -10.6357     0.9065 H       
  49 H49            3.4230   -10.5074     3.3522 H       
  50 H50            1.6788   -10.7447     3.0880 H       
  51 H51            2.8246   -12.0476     2.6904 H       
  52 H52            4.0037   -10.0834    -1.0076 H       
  53 H53            4.4817   -12.1342    -2.2808 H       
  54 H54            0.4439   -12.2022    -3.6842 H       
  55 H55           -0.0348   -10.1561    -2.4036 H       
  56 H56            4.1167   -16.3489    -4.3804 H       
  57 H57            3.1467   -15.3955    -7.4468 H       
  58 H58            2.4841   -16.7620    -6.5183 H       
  59 H59            1.4188   -15.4273    -7.0205 H       
  60 H60            5.6050   -15.6277    -1.0765 H       
  61 H61            4.6210   -16.5808    -2.2131 H       
  62 H62            5.9701   -15.5898    -2.8182 H       
@<TRIPOS>BOND
   1    1    2 1
   2    1    4 2
   3    1    5 1
   4    2    3 1
   5    2   34 1
   6    2   35 1
   7    3   14 1
   8    3   36 1
   9    3   37 1
  10    5   38 1
  11    6    7 1
  12    6   13 2
  13    6   14 am
  14    7    8 ar
  15    7   12 ar
  16    8    9 ar
  17    8   39 1
  18    9   10 ar
  19    9   40 1
  20   10   11 ar
  21   10   15 1
  22   11   12 ar
  23   11   41 1
  24   12   42 1
  25   14   43 1
  26   15   16 1
  27   15   19 1
  28   15   44 1
  29   16   17 1
  30   16   45 1
  31   16   46 1
  32   17   18 1
  33   17   47 1
  34   17   48 1
  35   18   49 1
  36   18   50 1
  37   18   51 1
  38   19   20 1
  39   20   21 ar
  40   20   25 ar
  41   21   22 ar
  42   21   52 1
  43   22   23 ar
  44   22   53 1
  45   23   24 ar
  46   23   26 1
  47   24   25 ar
  48   24   54 1
  49   25   55 1
  50   26   27 1
  51   26   30 1
  52   27   28 2
  53   28   29 1
  54   28   31 1
  55   29   30 2
  56   29   56 1
  57   30   32 1
  58   31   57 1
  59   31   58 1
  60   31   59 1
  61   32   33 1
  62   33   60 1
  63   33   61 1
  64   33   62 1

#	End of record

