#	Name: ASD01812452
#	Creating user name:	WinNT
#	Creation time:	15. 06. 2019 19:28

#	Modifying user name:	WinNT
#	Modification time:	15. 06. 2019 19:28

#	Program:	/corina/corina34_cracker 3.40 0067  02.08.2006

@<TRIPOS>MOLECULE
ASD01812452
  53   57    0    0    0
SMALL
NO_CHARGES


@<TRIPOS>ATOM
   1 C1            -0.2714     1.3769    -0.0735 C.ar    
   2 C2            -0.2713    -0.0040    -0.1225 C.ar    
   3 C3             0.9236    -0.6929    -0.2170 C.ar    
   4 C4             2.1189    -0.0034    -0.2647 C.ar    
   5 C5             2.1281     1.3871    -0.2170 C.ar    
   6 C6             0.9259     2.0772    -0.1189 C.ar    
   7 N7             3.3579     2.0508    -0.2735 N.3     
   8 C8             3.2710     3.4209     0.2450 C.3     
   9 C9             2.0891     4.1267    -0.4323 C.3     
  10 O10            0.8918     3.4369    -0.0586 O.3     
  11 C11            4.4002     1.2882     0.4264 C.3     
  12 C12            5.7558     1.8300     0.0522 C.ar    
  13 C13            6.4686     1.2517    -0.9820 C.ar    
  14 C14            6.2818     2.9081     0.7401 C.ar    
  15 C15            7.5237     3.4072     0.3992 C.ar    
  16 C16            8.2441     2.8254    -0.6352 C.ar    
  17 C17            7.7112     1.7461    -1.3272 C.ar    
  18 N18            2.9963     6.4243    -0.3022 N.am    
  19 C19            2.0177     5.5592     0.0303 C.2     
  20 O20            1.0797     5.9335     0.7018 O.2     
  21 N21            9.5048     3.3297    -0.9836 N.pl3   
  22 C22           10.3068     2.8590    -1.9653 C.2     
  23 C23           11.4284     3.6159    -1.9791 C.2     
  24 C24           11.3090     4.5813    -0.9733 C.2     
  25 N25           10.1543     4.4144    -0.3802 N.2     
  26 C26            2.8866     7.7739     0.0505 C.ar    
  27 C27            2.2833     8.1332     1.2486 C.ar    
  28 C28            2.1765     9.4662     1.5938 C.ar    
  29 C29            2.6691    10.4427     0.7477 C.ar    
  30 C30            3.2704    10.0882    -0.4461 C.ar    
  31 C31            3.3858     8.7566    -0.7942 C.ar    
  32 H32           -1.2063     1.9131    -0.0041 H       
  33 H33           -1.2051    -0.5454    -0.0867 H       
  34 H34            0.9222    -1.7723    -0.2531 H       
  35 H35            3.0501    -0.5454    -0.3389 H       
  36 H36            3.1125     3.3948     1.3231 H       
  37 H37            4.1938     3.9560     0.0211 H       
  38 H38            2.2105     4.0946    -1.5151 H       
  39 H39            4.2567     1.3801     1.5030 H       
  40 H40            4.3368     0.2385     0.1397 H       
  41 H41            6.0534     0.4124    -1.5201 H       
  42 H42            5.7208     3.3605     1.5445 H       
  43 H43            7.9339     4.2495     0.9366 H       
  44 H44            8.2678     1.2936    -2.1346 H       
  45 H45            3.7766     6.1113    -0.7859 H       
  46 H46           10.0910     2.0281    -2.6206 H       
  47 H47           12.2678     3.4958    -2.6480 H       
  48 H48           12.0417     5.3369    -0.7310 H       
  49 H49            1.8977     7.3710     1.9096 H       
  50 H50            1.7074     9.7463     2.5255 H       
  51 H51            2.5838    11.4844     1.0195 H       
  52 H52            3.6542    10.8532    -1.1048 H       
  53 H53            3.8598     8.4802    -1.7244 H       
@<TRIPOS>BOND
   1    1    2 ar
   2    1    6 ar
   3    1   32 1
   4    2    3 ar
   5    2   33 1
   6    3    4 ar
   7    3   34 1
   8    4    5 ar
   9    4   35 1
  10    5    7 1
  11    5    6 ar
  12    6   10 1
  13    7   11 1
  14    7    8 1
  15    8    9 1
  16    8   36 1
  17    8   37 1
  18    9   10 1
  19    9   19 1
  20    9   38 1
  21   11   12 1
  22   11   39 1
  23   11   40 1
  24   12   14 ar
  25   12   13 ar
  26   13   17 ar
  27   13   41 1
  28   14   15 ar
  29   14   42 1
  30   15   16 ar
  31   15   43 1
  32   16   17 ar
  33   16   21 1
  34   17   44 1
  35   18   19 am
  36   18   26 1
  37   18   45 1
  38   19   20 2
  39   21   22 1
  40   21   25 1
  41   22   23 2
  42   22   46 1
  43   23   24 1
  44   23   47 1
  45   24   25 2
  46   24   48 1
  47   26   27 ar
  48   26   31 ar
  49   27   28 ar
  50   27   49 1
  51   28   29 ar
  52   28   50 1
  53   29   30 ar
  54   29   51 1
  55   30   31 ar
  56   30   52 1
  57   31   53 1

#	End of record

