#	Name: ASD03320090
#	Creating user name:	WinNT
#	Creation time:	15. 06. 2019 20:36

#	Modifying user name:	WinNT
#	Modification time:	15. 06. 2019 20:36

#	Program:	/corina/corina34_cracker 3.40 0067  02.08.2006

@<TRIPOS>MOLECULE
ASD03320090
  38   40    0    0    0
SMALL
NO_CHARGES


@<TRIPOS>ATOM
   1 C1            -0.0169     1.3914    -0.0024 C.ar    
   2 C2             0.0024    -0.0047    -0.0127 C.ar    
   3 C3            -1.1823    -0.7135    -0.0119 C.ar    
   4 C4            -2.3922    -0.0474    -0.0013 C.ar    
   5 C5            -2.4248     1.3468     0.0090 C.ar    
   6 C6            -1.2358     2.0679     0.0141 C.ar    
   7 C7             1.2518     2.1502    -0.0028 C.2     
   8 O8             1.2331     3.3657     0.0062 O.2     
   9 N9             2.4292     1.4944    -0.0131 N.am    
  10 C10            3.6279     2.2093    -0.1264 C.ar    
  11 C11           -3.7265     2.0596     0.0199 C.ar    
  12 C12            4.7645     1.7688     0.5378 C.ar    
  13 C13            5.9473     2.4743     0.4266 C.ar    
  14 C14            6.0003     3.6222    -0.3485 C.ar    
  15 C15            4.8636     4.0647    -1.0141 C.ar    
  16 C16            3.6814     3.3563    -0.9079 C.ar    
  17 O17            7.1652     4.3160    -0.4573 O.3     
  18 C18            8.2939     3.8042     0.2541 C.3     
  19 F19            8.5826     2.5118    -0.1969 F       
  20 F20            9.3992     4.6330     0.0333 F       
  21 F21            8.0050     3.7670     1.6225 F       
  22 C22           -4.9317     1.3533     0.0200 C.ar    
  23 N23           -6.0687     2.0276     0.0303 N.ar    
  24 C24           -6.0749     3.3459     0.0405 C.ar    
  25 N25           -4.9607     4.0505     0.0409 N.ar    
  26 C26           -3.7802     3.4555     0.0363 C.ar    
  27 F27            4.9153     5.1838    -1.7691 F       
  28 H28            0.9455    -0.5309    -0.0218 H       
  29 H29           -1.1630    -1.7933    -0.0199 H       
  30 H30           -3.3155    -0.6077    -0.0015 H       
  31 H31           -1.2566     3.1477     0.0225 H       
  32 H32            2.4463     0.5272     0.0579 H       
  33 H33            4.7242     0.8745     1.1420 H       
  34 H34            6.8309     2.1313     0.9442 H       
  35 H35            2.7975     3.6995    -1.4250 H       
  36 H36           -4.9345     0.2733     0.0113 H       
  37 H37           -7.0221     3.8646     0.0484 H       
  38 H38           -2.8717     4.0394     0.0370 H       
@<TRIPOS>BOND
   1    1    2 ar
   2    1    7 1
   3    1    6 ar
   4    2    3 ar
   5    2   28 1
   6    3    4 ar
   7    3   29 1
   8    4    5 ar
   9    4   30 1
  10    5    6 ar
  11    5   11 1
  12    6   31 1
  13    7    8 2
  14    7    9 am
  15    9   10 1
  16    9   32 1
  17   10   12 ar
  18   10   16 ar
  19   11   22 ar
  20   11   26 ar
  21   12   13 ar
  22   12   33 1
  23   13   14 ar
  24   13   34 1
  25   14   15 ar
  26   14   17 1
  27   15   16 ar
  28   15   27 1
  29   16   35 1
  30   17   18 1
  31   18   19 1
  32   18   20 1
  33   18   21 1
  34   22   23 ar
  35   22   36 1
  36   23   24 ar
  37   24   25 ar
  38   24   37 1
  39   25   26 ar
  40   26   38 1

#	End of record

