#	Name: ASD00310061
#	Creating user name:	WinNT
#	Creation time:	15. 06. 2019 18:33

#	Modifying user name:	WinNT
#	Modification time:	15. 06. 2019 18:33

#	Program:	/corina/corina34_cracker 3.40 0067  02.08.2006

@<TRIPOS>MOLECULE
ASD00310061
  40   42    0    0    0
SMALL
NO_CHARGES


@<TRIPOS>ATOM
   1 C1            -0.0188     1.5336     0.0105 C.3     
   2 C2             0.0021    -0.0041     0.0020 C.3     
   3 C3             1.3815     0.0967    -0.6702 C.3     
   4 C4             1.5179     1.4762    -0.0045 C.3     
   5 O5            -0.5818     2.1049    -1.1721 O.3     
   6 C6            -0.5886     2.1226     1.2751 C.ar    
   7 C7            -1.2401     3.3412     1.2340 C.ar    
   8 C8            -1.7649     3.8864     2.3917 C.ar    
   9 C9            -1.6347     3.2021     3.6025 C.ar    
  10 C10           -0.9759     1.9735     3.6345 C.ar    
  11 C11           -0.4622     1.4384     2.4719 C.ar    
  12 F12           -2.4013     5.0775     2.3517 F       
  13 O13           -2.1042     3.1304     6.1679 O.3     
  14 B14           -2.2269     3.8137     4.9216 Du      
  15 O15           -2.9034     5.0698     4.9098 O.3     
  16 C16           -2.4333     5.9591     5.9303 C.3     
  17 C17           -2.4825     5.2391     7.2812 C.3     
  18 C18           -1.6167     3.9774     7.2159 C.3     
  19 C19           -1.9498     6.1677     8.3743 C.3     
  20 C20           -3.9275     4.8506     7.6003 C.3     
  21 H21            0.0329    -0.4458     0.9980 H       
  22 H22           -0.7629    -0.4476    -0.6353 H       
  23 H23            2.0998    -0.6373    -0.3050 H       
  24 H24            1.3349     0.1396    -1.7584 H       
  25 H25            1.9766     2.2276    -0.6471 H       
  26 H26            1.9632     1.4391     0.9897 H       
  27 H27           -0.5977     3.0718    -1.1727 H       
  28 H28           -1.3391     3.8684     0.2966 H       
  29 H29           -0.8717     1.4398     4.5677 H       
  30 H30            0.0442     0.4847     2.4960 H       
  31 H31           -1.4073     6.2550     5.7119 H       
  32 H32           -3.0698     6.8433     5.9650 H       
  33 H33           -1.6708     3.4484     8.1674 H       
  34 H34           -0.5830     4.2548     7.0095 H       
  35 H35           -2.5650     7.0664     8.4191 H       
  36 H36           -1.9849     5.6550     9.3355 H       
  37 H37           -0.9200     6.4433     8.1469 H       
  38 H38           -4.3061     4.1883     6.8217 H       
  39 H39           -3.9622     4.3382     8.5617 H       
  40 H40           -4.5438     5.7486     7.6447 H       
@<TRIPOS>BOND
   1    1    2 1
   2    1    4 1
   3    1    5 1
   4    1    6 1
   5    2    3 1
   6    2   21 1
   7    2   22 1
   8    3    4 1
   9    3   23 1
  10    3   24 1
  11    4   25 1
  12    4   26 1
  13    5   27 1
  14    6    7 ar
  15    6   11 ar
  16    7    8 ar
  17    7   28 1
  18    8    9 ar
  19    8   12 1
  20    9   10 ar
  21    9   14 1
  22   10   11 ar
  23   10   29 1
  24   11   30 1
  25   13   14 1
  26   13   18 1
  27   14   15 1
  28   15   16 1
  29   16   17 1
  30   16   31 1
  31   16   32 1
  32   17   18 1
  33   17   19 1
  34   17   20 1
  35   18   33 1
  36   18   34 1
  37   19   35 1
  38   19   36 1
  39   19   37 1
  40   20   38 1
  41   20   39 1
  42   20   40 1

#	End of record

