#	Name: ASD01913194
#	Creating user name:	WinNT
#	Creation time:	15. 06. 2019 20:01

#	Modifying user name:	WinNT
#	Modification time:	15. 06. 2019 20:01

#	Program:	/corina/corina34_cracker 3.40 0067  02.08.2006

@<TRIPOS>MOLECULE
ASD01913194
  52   55    0    0    0
SMALL
NO_CHARGES


@<TRIPOS>ATOM
   1 C1             0.7307     1.1795    -1.0051 C.3     
   2 N2             0.3537    -0.1343    -0.4728 N.am    
   3 C3             1.3089    -0.7960     0.4314 C.3     
   4 C4             2.5766    -1.0990    -0.3659 C.3     
   5 C5             3.0157     0.1072    -1.1538 C.ar    
   6 C6             4.3348     0.1465    -1.5870 C.ar    
   7 C7             4.8016     1.2214    -2.3233 C.ar    
   8 C8             3.9442     2.2679    -2.6316 C.ar    
   9 C9             2.6363     2.2287    -2.1976 C.ar    
  10 C10            2.1699     1.1513    -1.4555 C.ar    
  11 C11           -0.8197    -0.7121    -0.7979 C.2     
  12 C12           -1.8120     0.0319    -1.5989 C.ar    
  13 C13           -2.6073    -0.6421    -2.5247 C.ar    
  14 C14           -3.5423     0.0652    -3.2772 C.ar    
  15 C15           -3.6764     1.4519    -3.0975 C.ar    
  16 C16           -2.8793     2.1121    -2.1737 C.ar    
  17 C17           -1.9584     1.4117    -1.4250 C.ar    
  18 O18           -1.0611    -1.8459    -0.4315 O.2     
  19 C19           -4.3631    -0.6187    -4.2307 C.1     
  20 C20           -5.0360    -1.1794    -5.0125 C.1     
  21 C21           -5.8568    -1.8633    -5.9660 C.ar    
  22 C22           -6.7924    -1.1463    -6.7170 C.ar    
  23 C23           -7.5770    -1.8218    -7.6334 C.ar    
  24 C24           -7.4040    -3.1928    -7.7724 C.ar    
  25 C25           -6.4598    -3.8407    -6.9974 C.ar    
  26 N26           -5.7197    -3.1752    -6.1345 N.ar    
  27 O27           -4.5849     2.1454    -3.8274 O.3     
  28 C28           -4.6675     3.5526    -3.5929 C.3     
  29 O29            6.0941     1.2520    -2.7421 O.3     
  30 C30            6.5045     2.3936    -3.4975 C.3     
  31 H31            0.0903     1.4250    -1.8523 H       
  32 H32            0.6085     1.9343    -0.2282 H       
  33 H33            1.5465    -0.1350     1.2648 H       
  34 H34            0.8787    -1.7244     0.8070 H       
  35 H35            3.3720    -1.3872     0.3215 H       
  36 H36            2.3804    -1.9232    -1.0516 H       
  37 H37            5.0018    -0.6684    -1.3471 H       
  38 H38            4.2997     3.1090    -3.2084 H       
  39 H39            1.9685     3.0432    -2.4364 H       
  40 H40           -2.4988    -1.7083    -2.6581 H       
  41 H41           -2.9840     3.1783    -2.0375 H       
  42 H42           -1.3444     1.9312    -0.7041 H       
  43 H43           -6.9011    -0.0801    -6.5833 H       
  44 H44           -8.3087    -1.2949    -8.2279 H       
  45 H45           -8.0022    -3.7482    -8.4795 H       
  46 H46           -6.3241    -4.9068    -7.1043 H       
  47 H47           -5.4309     3.9846    -4.2400 H       
  48 H48           -4.9306     3.7324    -2.5505 H       
  49 H49           -3.7041     4.0142    -3.8093 H       
  50 H50            5.9015     2.4662    -4.4026 H       
  51 H51            6.3695     3.2937    -2.8978 H       
  52 H52            7.5554     2.2915    -3.7681 H       
@<TRIPOS>BOND
   1    1    2 1
   2    1   10 1
   3    1   31 1
   4    1   32 1
   5    2    3 1
   6    2   11 am
   7    3    4 1
   8    3   33 1
   9    3   34 1
  10    4    5 1
  11    4   35 1
  12    4   36 1
  13    5    6 ar
  14    5   10 ar
  15    6    7 ar
  16    6   37 1
  17    7    8 ar
  18    7   29 1
  19    8    9 ar
  20    8   38 1
  21    9   10 ar
  22    9   39 1
  23   11   12 1
  24   11   18 2
  25   12   13 ar
  26   12   17 ar
  27   13   14 ar
  28   13   40 1
  29   14   15 ar
  30   14   19 1
  31   15   16 ar
  32   15   27 1
  33   16   17 ar
  34   16   41 1
  35   17   42 1
  36   19   20 3
  37   20   21 1
  38   21   22 ar
  39   21   26 ar
  40   22   23 ar
  41   22   43 1
  42   23   24 ar
  43   23   44 1
  44   24   25 ar
  45   24   45 1
  46   25   26 ar
  47   25   46 1
  48   27   28 1
  49   28   47 1
  50   28   48 1
  51   28   49 1
  52   29   30 1
  53   30   50 1
  54   30   51 1
  55   30   52 1

#	End of record

