#	Name: ASD07300226
#	Creating user name:	WinNT
#	Creation time:	15. 06. 2019 21:09

#	Modifying user name:	WinNT
#	Modification time:	15. 06. 2019 21:09

#	Program:	/corina/corina34_cracker 3.40 0067  02.08.2006

@<TRIPOS>MOLECULE
ASD07300226
  51   56    0    0    0
SMALL
NO_CHARGES


@<TRIPOS>ATOM
   1 C1            -0.0169     1.3941     0.0097 C.ar    
   2 C2             0.0021    -0.0041     0.0020 C.ar    
   3 C3             1.2199    -0.6674    -0.0136 C.ar    
   4 C4             2.3808     0.0923    -0.0210 C.ar    
   5 C5             2.2878     1.4714    -0.0127 C.ar    
   6 N6             1.1161     2.0768     0.0026 N.ar    
   7 C7            -2.1139     0.6622     0.0347 C.2     
   8 N8            -1.3542     1.7734     0.0301 N.am    
   9 N9            -1.3234    -0.4279     0.0129 N.am    
  10 O10           -3.3304     0.6453     0.0517 O.2     
  11 C11           -1.7801    -1.8199     0.0092 C.3     
  12 C12           -1.9245    -2.3131     1.4503 C.3     
  13 O13           -2.9604    -1.5772     2.1041 O.3     
  14 C14           -1.8317     3.0925     0.0441 C.ar    
  15 C15           -3.1985     3.3357     0.0642 C.ar    
  16 C16           -3.6686     4.6336     0.0780 C.ar    
  17 C17           -2.7742     5.6962     0.0722 C.ar    
  18 C18           -1.4069     5.4526     0.0526 C.ar    
  19 C19           -0.9373     4.1545     0.0437 C.ar    
  20 C20           -4.5832     7.3814     0.1056 C.2     
  21 N21           -5.7737     6.8079     0.1185 N.2     
  22 C22           -6.7426     7.7571     0.1296 C.ar    
  23 C23           -6.0981     9.0043     0.1231 C.ar    
  24 N24           -4.7387     8.7331     0.1080 N.pl3   
  25 C25           -8.1389     7.7053     0.1446 C.ar    
  26 C26           -8.8663     8.8747     0.1528 C.ar    
  27 C27           -8.2240    10.1036     0.1463 C.ar    
  28 C28           -6.8455    10.1715     0.1315 C.ar    
  29 N29           -3.2506     7.0124     0.0857 N.pl3   
  30 C30           -2.4152     8.2182     0.0810 C.3     
  31 C31           -3.4204     9.3823     0.0937 C.3     
  32 H32            1.2635    -1.7465    -0.0195 H       
  33 H33            3.3475    -0.3890    -0.0328 H       
  34 H34            3.1908     2.0638    -0.0185 H       
  35 H35           -2.7441    -1.8847    -0.4953 H       
  36 H36           -1.0529    -2.4395    -0.5157 H       
  37 H37           -2.1780    -3.3732     1.4478 H       
  38 H38           -0.9838    -2.1657     1.9808 H       
  39 H39           -3.1075    -1.8375     3.0237 H       
  40 H40           -3.8940     2.5095     0.0687 H       
  41 H41           -4.7318     4.8228     0.0929 H       
  42 H42           -0.7112     6.2786     0.0482 H       
  43 H43            0.1259     3.9650     0.0323 H       
  44 H44           -8.6459     6.7517     0.1494 H       
  45 H45           -9.9455     8.8343     0.1641 H       
  46 H46           -8.8060    11.0133     0.1525 H       
  47 H47           -6.3507    11.1315     0.1265 H       
  48 H48           -1.7827     8.2465     0.9683 H       
  49 H49           -1.8068     8.2562    -0.8225 H       
  50 H50           -3.3065     9.9919    -0.8027 H       
  51 H51           -3.2867     9.9910     0.9880 H       
@<TRIPOS>BOND
   1    1    2 ar
   2    1    6 ar
   3    1    8 1
   4    2    3 ar
   5    2    9 1
   6    3    4 ar
   7    3   32 1
   8    4    5 ar
   9    4   33 1
  10    5    6 ar
  11    5   34 1
  12    7    8 am
  13    7    9 am
  14    7   10 2
  15    8   14 1
  16    9   11 1
  17   11   12 1
  18   11   35 1
  19   11   36 1
  20   12   13 1
  21   12   37 1
  22   12   38 1
  23   13   39 1
  24   14   15 ar
  25   14   19 ar
  26   15   16 ar
  27   15   40 1
  28   16   17 ar
  29   16   41 1
  30   17   18 ar
  31   17   29 1
  32   18   19 ar
  33   18   42 1
  34   19   43 1
  35   20   21 2
  36   20   24 1
  37   20   29 1
  38   21   22 1
  39   22   23 ar
  40   22   25 ar
  41   23   24 1
  42   23   28 ar
  43   24   31 1
  44   25   26 ar
  45   25   44 1
  46   26   27 ar
  47   26   45 1
  48   27   28 ar
  49   27   46 1
  50   28   47 1
  51   29   30 1
  52   30   31 1
  53   30   48 1
  54   30   49 1
  55   31   50 1
  56   31   51 1

#	End of record

