#	Name: ASD09740465
#	Creating user name:	WinNT
#	Creation time:	15. 06. 2019 21:23

#	Modifying user name:	WinNT
#	Modification time:	15. 06. 2019 21:23

#	Program:	/corina/corina34_cracker 3.40 0067  02.08.2006

@<TRIPOS>MOLECULE
ASD09740465
  71   75    0    0    0
SMALL
NO_CHARGES


@<TRIPOS>ATOM
   1 N1            -0.0881     1.3324    -0.0174 N.2     
   2 C2            -0.1188     0.0237    -0.0592 C.2     
   3 C3             1.0832     1.8985     0.0654 C.2     
   4 S4             2.3288     0.6533     0.0968 S.3     
   5 C5             1.0839    -0.5898    -0.0109 C.2     
   6 C6             1.3275     3.3546     0.1229 C.ar    
   7 C7             0.2553     4.2423     0.0900 C.ar    
   8 C8             2.6354     3.8410     0.2162 C.ar    
   9 C9             2.8690     5.1978     0.2706 C.ar    
  10 C10            1.8082     6.0920     0.2332 C.ar    
  11 C11            0.4919     5.6153     0.1446 C.ar    
  12 O12            2.0440     7.4268     0.2876 O.3     
  13 C13            3.3952     7.8387     0.5035 C.3     
  14 C14            4.1351     7.8826    -0.8350 C.3     
  15 C15            3.4088     9.2301     1.1397 C.3     
  16 C16           -0.6046     6.5355     0.1058 C.1     
  17 N17           -1.4745     7.2655     0.0751 N.1     
  18 C18            1.3153    -2.0491    -0.0419 C.ar    
  19 C19            2.2439    -2.5918    -0.9356 C.ar    
  20 C20            2.4556    -3.9546    -0.9593 C.ar    
  21 C21            1.7478    -4.7798    -0.0986 C.ar    
  22 C22            0.8281    -4.2484     0.7858 C.ar    
  23 C23            0.6121    -2.8863     0.8240 C.ar    
  24 C24            3.1292    -1.9166    -1.9608 C.3     
  25 C25            4.2141    -2.9589    -2.3059 C.3     
  26 C26            3.4988    -4.2926    -2.0031 C.3     
  27 N27            2.8571    -4.8116    -3.2136 N.am    
  28 S28            3.3802    -6.2326    -3.8839 S.o2    
  29 O29            2.5617    -6.4002    -5.0333 O.2     
  30 O30            4.7864    -6.0668    -4.0038 O.2     
  31 C31            2.9918    -7.4913    -2.6367 C.3     
  32 C32            3.5421    -8.8451    -3.0898 C.3     
  33 N33            3.2275    -9.8644    -2.0799 N.3     
  34 C34            3.5269   -11.2129    -2.5816 C.3     
  35 C35            3.2615   -12.2365    -1.4751 C.3     
  36 N36            1.8598   -12.1368    -1.0451 N.3     
  37 C37            1.5604   -10.7884    -0.5434 C.3     
  38 C38            1.8258    -9.7647    -1.6498 C.3     
  39 H39           -1.0444    -0.5286    -0.1275 H       
  40 H40           -0.7558     3.8688     0.0221 H       
  41 H41            3.4653     3.1506     0.2461 H       
  42 H42            3.8814     5.5669     0.3430 H       
  43 H43            3.8891     7.1302     1.1686 H       
  44 H44            4.1254     6.8913    -1.2882 H       
  45 H45            3.6412     8.5910    -1.5001 H       
  46 H46            5.1657     8.1967    -0.6703 H       
  47 H47            2.8817     9.1988     2.0932 H       
  48 H48            4.4395     9.5442     1.3044 H       
  49 H49            2.9149     9.9385     0.4746 H       
  50 H50            1.9162    -5.8464    -0.1198 H       
  51 H51            0.2816    -4.8999     1.4516 H       
  52 H52           -0.1065    -2.4707     1.5150 H       
  53 H53            2.5523    -1.6625    -2.8500 H       
  54 H54            3.5853    -1.0222    -1.5364 H       
  55 H55            4.4899    -2.8973    -3.3586 H       
  56 H56            5.0885    -2.8343    -1.6671 H       
  57 H57            4.2072    -5.0206    -1.6079 H       
  58 H58            2.1258    -4.3227    -3.6225 H       
  59 H59            3.4473    -7.2137    -1.6862 H       
  60 H60            1.9108    -7.5608    -2.5151 H       
  61 H61            3.0866    -9.1227    -4.0404 H       
  62 H62            4.6231    -8.7756    -3.2115 H       
  63 H63            2.8907   -11.4313    -3.4393 H       
  64 H64            4.5733   -11.2651    -2.8820 H       
  65 H65            3.4551   -13.2400    -1.8541 H       
  66 H66            3.9170   -12.0345    -0.6280 H       
  67 H67            1.2329   -12.3915    -1.7936 H       
  68 H68            0.5140   -10.7361    -0.2430 H       
  69 H69            2.1966   -10.5699     0.3143 H       
  70 H70            1.6322    -8.7612    -1.2709 H       
  71 H71            1.1703    -9.9667    -2.4970 H       
@<TRIPOS>BOND
   1    1    2 1
   2    1    3 2
   3    2    5 2
   4    2   39 1
   5    3    4 1
   6    3    6 1
   7    4    5 1
   8    5   18 1
   9    6    7 ar
  10    6    8 ar
  11    7   11 ar
  12    7   40 1
  13    8    9 ar
  14    8   41 1
  15    9   10 ar
  16    9   42 1
  17   10   11 ar
  18   10   12 1
  19   11   16 1
  20   12   13 1
  21   13   14 1
  22   13   15 1
  23   13   43 1
  24   14   44 1
  25   14   45 1
  26   14   46 1
  27   15   47 1
  28   15   48 1
  29   15   49 1
  30   16   17 3
  31   18   19 ar
  32   18   23 ar
  33   19   20 ar
  34   19   24 1
  35   20   21 ar
  36   20   26 1
  37   21   22 ar
  38   21   50 1
  39   22   23 ar
  40   22   51 1
  41   23   52 1
  42   24   25 1
  43   24   53 1
  44   24   54 1
  45   25   26 1
  46   25   55 1
  47   25   56 1
  48   26   27 1
  49   26   57 1
  50   27   28 am
  51   27   58 1
  52   28   29 2
  53   28   30 2
  54   28   31 1
  55   31   32 1
  56   31   59 1
  57   31   60 1
  58   32   33 1
  59   32   61 1
  60   32   62 1
  61   33   34 1
  62   33   38 1
  63   34   35 1
  64   34   63 1
  65   34   64 1
  66   35   36 1
  67   35   65 1
  68   35   66 1
  69   36   37 1
  70   36   67 1
  71   37   38 1
  72   37   68 1
  73   37   69 1
  74   38   70 1
  75   38   71 1

#	End of record

