#	Name: ASD01180036
#	Creating user name:	WinNT
#	Creation time:	15. 06. 2019 19:06

#	Modifying user name:	WinNT
#	Modification time:	15. 06. 2019 19:06

#	Program:	/corina/corina34_cracker 3.40 0067  02.08.2006

@<TRIPOS>MOLECULE
ASD01180036
  38   39    0    0    0
SMALL
NO_CHARGES


@<TRIPOS>ATOM
   1 N1             0.0245     1.3795    -0.0880 N.ar    
   2 C2            -0.0396     0.0721    -0.0175 C.ar    
   3 C3             1.1334    -0.6988     0.0702 C.ar    
   4 N4             2.3176    -0.1171     0.0823 N.ar    
   5 C5             2.4008     1.2175     0.0106 C.ar    
   6 C6             3.6465     1.8661     0.0219 C.ar    
   7 C7             3.7011     3.2258    -0.0520 C.ar    
   8 C8             2.5354     3.9856    -0.1389 C.ar    
   9 C9             1.3114     3.3900    -0.1518 C.ar    
  10 C10            1.2162     1.9902    -0.0772 C.ar    
  11 S11           -1.6100    -0.7269    -0.0320 S.o2    
  12 O12           -2.5035     0.2654    -0.5181 O.2     
  13 O13           -1.3852    -1.9285    -0.7565 O.2     
  14 C14           -1.9495    -1.0895     1.7126 C.3     
  15 Cl15           5.2433     4.0227    -0.0371 Cl      
  16 C16            2.2617    -2.8957     0.1116 C.3     
  17 N17            1.0447    -2.0807     0.1448 N.pl3   
  18 C18            1.9988    -4.2334     0.8062 C.3     
  19 C19            1.7147    -3.9905     2.2898 C.3     
  20 C20            2.6677    -3.1469    -1.3420 C.3     
  21 N21            2.6300     5.4606    -0.2178 N.pl3   
  22 O22            1.6170     6.1327    -0.2939 O.2     
  23 O23            3.7208     6.0024    -0.2065 O.2     
  24 H24            4.5573     1.2897     0.0892 H       
  25 H25            0.4168     3.9913    -0.2188 H       
  26 H26           -1.9717    -0.1588     2.2795 H       
  27 H27           -2.9138    -1.5904     1.7986 H       
  28 H28           -1.1671    -1.7372     2.1080 H       
  29 H29            3.0651    -2.3701     0.6276 H       
  30 H30            0.1769    -2.5077     0.2191 H       
  31 H31            1.1380    -4.7187     0.3461 H       
  32 H32            2.8747    -4.8741     0.7041 H       
  33 H33            1.5274    -4.9435     2.7846 H       
  34 H34            2.5755    -3.5052     2.7499 H       
  35 H35            0.8388    -3.3498     2.3919 H       
  36 H36            1.8642    -3.6725    -1.8580 H       
  37 H37            2.8550    -2.1939    -1.8368 H       
  38 H38            3.5731    -3.7533    -1.3667 H       
@<TRIPOS>BOND
   1    1    2 ar
   2    1   10 ar
   3    2    3 ar
   4    2   11 1
   5    3    4 ar
   6    3   17 1
   7    4    5 ar
   8    5    6 ar
   9    5   10 ar
  10    6    7 ar
  11    6   24 1
  12    7    8 ar
  13    7   15 1
  14    8    9 ar
  15    8   21 1
  16    9   10 ar
  17    9   25 1
  18   11   12 2
  19   11   13 2
  20   11   14 1
  21   14   26 1
  22   14   27 1
  23   14   28 1
  24   16   18 1
  25   16   20 1
  26   16   17 1
  27   16   29 1
  28   17   30 1
  29   18   19 1
  30   18   31 1
  31   18   32 1
  32   19   33 1
  33   19   34 1
  34   19   35 1
  35   20   36 1
  36   20   37 1
  37   20   38 1
  38   21   22 2
  39   21   23 2

#	End of record

