#	Name: ASD01814128
#	Creating user name:	WinNT
#	Creation time:	15. 06. 2019 19:31

#	Modifying user name:	WinNT
#	Modification time:	15. 06. 2019 19:31

#	Program:	/corina/corina34_cracker 3.40 0067  02.08.2006

@<TRIPOS>MOLECULE
ASD01814128
  51   53    0    0    0
SMALL
NO_CHARGES


@<TRIPOS>ATOM
   1 C1            -0.0180     1.4775     0.0102 C.ar    
   2 C2             0.0021    -0.0041     0.0020 C.2     
   3 N3             1.1783    -0.6620    -0.0127 N.am    
   4 O4            -1.0419    -0.6259     0.0086 O.2     
   5 C5             1.1981    -2.1268    -0.0208 C.3     
   6 C6             2.6473    -2.6171    -0.0373 C.3     
   7 N7             2.6673    -4.0860    -0.0454 N.3     
   8 C8             4.0456    -4.5937    -0.0612 C.3     
   9 C9             4.0772    -6.0013     0.5413 C.3     
  10 C10            5.4923    -6.5793     0.3807 C.3     
  11 N11            5.7514    -6.7121    -1.0733 N.am    
  12 C12            5.9374    -5.3114    -1.5232 C.3     
  13 C13            4.5555    -4.6387    -1.5046 C.3     
  14 C14            6.4990    -5.5040     0.8503 C.3     
  15 C15            6.7938    -4.6645    -0.4104 C.3     
  16 C16            5.8051    -7.8388    -1.8110 C.2     
  17 O17            6.0547    -7.7671    -3.1322 O.3     
  18 O18            5.6284    -8.9192    -1.2838 O.2     
  19 C19            6.0980    -9.0206    -3.8637 C.3     
  20 C20            6.3913    -8.7402    -5.3390 C.3     
  21 N21            1.1254     2.1511     0.0029 N.ar    
  22 C22            1.1517     3.4661     0.0097 C.ar    
  23 C23           -0.0227     4.2012     0.0253 C.ar    
  24 C24           -1.2397     3.5375     0.0333 C.ar    
  25 C25           -1.2371     2.1517     0.0196 C.ar    
  26 H26            2.0116    -0.1656    -0.0180 H       
  27 H27            0.6978    -2.5019     0.8720 H       
  28 H28            0.6808    -2.4923    -0.9079 H       
  29 H29            3.1477    -2.2421    -0.9301 H       
  30 H30            3.1647    -2.2516     0.8498 H       
  31 H31            2.1536    -4.4589     0.7390 H       
  32 H32            4.6823    -3.9330     0.5271 H       
  33 H33            3.8211    -5.9513     1.5996 H       
  34 H34            3.3616    -6.6375     0.0204 H       
  35 H35            5.6111    -7.5256     0.9085 H       
  36 H36            6.4088    -5.2529    -2.5043 H       
  37 H37            3.8618    -5.2126    -2.1191 H       
  38 H38            4.6380    -3.6242    -1.8945 H       
  39 H39            6.0544    -4.8806     1.6261 H       
  40 H40            7.4124    -5.9731     1.2162 H       
  41 H41            7.8522    -4.7205    -0.6649 H       
  42 H42            6.4942    -3.6280    -0.2549 H       
  43 H43            6.8826    -9.6550    -3.4515 H       
  44 H44            5.1368    -9.5269    -3.7743 H       
  45 H45            7.3524    -8.2339    -5.4284 H       
  46 H46            6.4238    -9.6812    -5.8882 H       
  47 H47            5.6067    -8.1058    -5.7512 H       
  48 H48            2.1016     3.9799     0.0034 H       
  49 H49            0.0098     5.2807     0.0315 H       
  50 H50           -2.1689     4.0879     0.0455 H       
  51 H51           -2.1668     1.6021     0.0254 H       
@<TRIPOS>BOND
   1    1    2 1
   2    1   21 ar
   3    1   25 ar
   4    2    3 am
   5    2    4 2
   6    3    5 1
   7    3   26 1
   8    5    6 1
   9    5   27 1
  10    5   28 1
  11    6    7 1
  12    6   29 1
  13    6   30 1
  14    7    8 1
  15    7   31 1
  16    8    9 1
  17    8   13 1
  18    8   32 1
  19    9   10 1
  20    9   33 1
  21    9   34 1
  22   10   11 1
  23   10   14 1
  24   10   35 1
  25   11   12 1
  26   11   16 am
  27   12   13 1
  28   12   15 1
  29   12   36 1
  30   13   37 1
  31   13   38 1
  32   14   15 1
  33   14   39 1
  34   14   40 1
  35   15   41 1
  36   15   42 1
  37   16   17 1
  38   16   18 2
  39   17   19 1
  40   19   20 1
  41   19   43 1
  42   19   44 1
  43   20   45 1
  44   20   46 1
  45   20   47 1
  46   21   22 ar
  47   22   23 ar
  48   22   48 1
  49   23   24 ar
  50   23   49 1
  51   24   25 ar
  52   24   50 1
  53   25   51 1

#	End of record

