#	Name: ASD03090170
#	Creating user name:	WinNT
#	Creation time:	15. 06. 2019 20:28

#	Modifying user name:	WinNT
#	Modification time:	15. 06. 2019 20:28

#	Program:	/corina/corina34_cracker 3.40 0067  02.08.2006

@<TRIPOS>MOLECULE
ASD03090170
  58   60    0    0    0
SMALL
NO_CHARGES


@<TRIPOS>ATOM
   1 N1             0.4488     1.5145     1.4699 N.ar    
   2 C2             0.4106     0.1962     1.4355 C.ar    
   3 C3             1.5369    -0.5372     1.1242 C.ar    
   4 C4             2.7298     0.1378     0.8429 C.ar    
   5 C5             2.7244     1.5358     0.8911 C.ar    
   6 C6             1.5521     2.1897     1.2115 C.ar    
   7 C7             3.9634    -0.6068     0.5044 C.2     
   8 N8             5.7411    -3.4558    -0.5330 N.pl3   
   9 C9             4.8141    -4.4453    -0.8766 C.ar    
  10 C10            3.5972    -4.0910    -1.4442 C.ar    
  11 C11            2.6832    -5.0699    -1.7827 C.ar    
  12 C12            2.9793    -6.4032    -1.5559 C.ar    
  13 C13            4.1922    -6.7588    -0.9899 C.ar    
  14 C14            5.1116    -5.7841    -0.6557 C.ar    
  15 N15            4.0272    -1.8628     0.1105 N.2     
  16 C16            5.2984    -2.2021    -0.1070 C.2     
  17 N17            6.0671    -1.1671     0.1449 N.2     
  18 N18            5.2225    -0.1167     0.5390 N.pl3   
  19 C19            5.6267     1.2390     0.9198 C.3     
  20 C20            5.7310     2.1110    -0.3330 C.3     
  21 C21            6.1468     3.5055     0.0587 C.2     
  22 F22            2.0835    -7.3588    -1.8869 F       
  23 O23            6.3026     4.4489    -0.8833 O.3     
  24 O24            6.3399     3.7743     1.2207 O.2     
  25 C25            6.7046     5.7696    -0.4334 C.3     
  26 C26            8.0539     5.6760     0.2818 C.3     
  27 C27            6.8302     6.7029    -1.6393 C.3     
  28 C28            5.6532     6.3217     0.5314 C.3     
  29 C29           -0.8806    -0.5182     1.7410 C.3     
  30 N30           -1.0140    -0.6888     3.1940 N.3     
  31 C31            4.5114    -8.2109    -0.7439 C.3     
  32 F32            5.7826    -8.3182    -0.1697 F       
  33 F33            3.5600    -8.7569     0.1243 F       
  34 F34            4.4880    -8.9057    -1.9580 F       
  35 H35            1.4984    -1.6162     1.0982 H       
  36 H36            3.6241     2.0950     0.6810 H       
  37 H37            1.5377     3.2688     1.2509 H       
  38 H38            6.6916    -3.6407    -0.5907 H       
  39 H39            3.3655    -3.0510    -1.6206 H       
  40 H40            1.7367    -4.7948    -2.2242 H       
  41 H41            6.0575    -6.0618    -0.2147 H       
  42 H42            4.8848     1.6627     1.5967 H       
  43 H43            6.5951     1.2027     1.4189 H       
  44 H44            6.4729     1.6872    -1.0099 H       
  45 H45            4.7626     2.1472    -0.8321 H       
  46 H46            8.8029     5.2827    -0.4055 H       
  47 H47            8.3557     6.6675     0.6196 H       
  48 H48            7.9644     5.0111     1.1409 H       
  49 H49            5.8689     6.7696    -2.1488 H       
  50 H50            7.1320     7.6943    -1.3015 H       
  51 H51            7.5792     6.3096    -2.3266 H       
  52 H52            5.5637     5.6568     1.3905 H       
  53 H53            5.9550     7.3131     0.8692 H       
  54 H54            4.6920     6.3884     0.0219 H       
  55 H55           -1.7185     0.0694     1.3658 H       
  56 H56           -0.8778    -1.4958     1.2591 H       
  57 H57           -1.8727    -1.1657     3.4248 H       
  58 H58           -0.2165    -1.1750     3.5757 H       
@<TRIPOS>BOND
   1    1    2 ar
   2    1    6 ar
   3    2    3 ar
   4    2   29 1
   5    3    4 ar
   6    3   35 1
   7    4    5 ar
   8    4    7 1
   9    5    6 ar
  10    5   36 1
  11    6   37 1
  12    7   15 2
  13    7   18 1
  14    8    9 1
  15    8   16 1
  16    8   38 1
  17    9   10 ar
  18    9   14 ar
  19   10   11 ar
  20   10   39 1
  21   11   12 ar
  22   11   40 1
  23   12   13 ar
  24   12   22 1
  25   13   14 ar
  26   13   31 1
  27   14   41 1
  28   15   16 1
  29   16   17 2
  30   17   18 1
  31   18   19 1
  32   19   20 1
  33   19   42 1
  34   19   43 1
  35   20   21 1
  36   20   44 1
  37   20   45 1
  38   21   23 1
  39   21   24 2
  40   23   25 1
  41   25   26 1
  42   25   27 1
  43   25   28 1
  44   26   46 1
  45   26   47 1
  46   26   48 1
  47   27   49 1
  48   27   50 1
  49   27   51 1
  50   28   52 1
  51   28   53 1
  52   28   54 1
  53   29   30 1
  54   29   55 1
  55   29   56 1
  56   30   57 1
  57   30   58 1
  58   31   32 1
  59   31   33 1
  60   31   34 1

#	End of record

