#	Name: ASD01908096
#	Creating user name:	WinNT
#	Creation time:	15. 06. 2019 19:54

#	Modifying user name:	WinNT
#	Modification time:	15. 06. 2019 19:54

#	Program:	/corina/corina34_cracker 3.40 0067  02.08.2006

@<TRIPOS>MOLECULE
ASD01908096
  34   35    0    0    0
SMALL
NO_CHARGES


@<TRIPOS>ATOM
   1 C1            -0.0184     1.5028     0.0103 C.2     
   2 C2             0.0021    -0.0041     0.0020 C.3     
   3 N3             2.6927     3.9024    -0.0037 N.pl3   
   4 N4             3.3977     2.6940    -0.0170 N.2     
   5 C5             2.5471     1.7061    -0.0136 C.2     
   6 C6             1.2417     2.2533     0.0023 C.2     
   7 C7             1.3792     3.6310     0.0081 C.2     
   8 C8             0.2596     4.6396     0.0249 C.3     
   9 F9            -0.1002     4.9590    -1.2888 F       
  10 F10           -0.8447     4.0993     0.6926 F       
  11 F11            0.6842     5.7968     0.6866 F       
  12 C12            3.2893     5.2404     0.0028 C.3     
  13 C13            3.4848     5.7101    -1.4158 C.ar    
  14 C14            2.4802     6.4131    -2.0546 C.ar    
  15 C15            2.6570     6.8447    -3.3550 C.ar    
  16 C16            3.8437     6.5723    -4.0198 C.ar    
  17 C17            4.8503     5.8667    -3.3765 C.ar    
  18 C18            4.6708     5.4422    -2.0742 C.ar    
  19 O19            4.0199     6.9955    -5.2991 O.3     
  20 C20            5.2669     6.6792    -5.9212 C.3     
  21 Br21          -1.8423    -0.6846     0.0160 Br      
  22 O22           -1.0771     2.0950     0.0185 O.2     
  23 H23            0.5123    -0.3556    -0.8948 H       
  24 H24            0.5293    -0.3651     0.8851 H       
  25 H25            2.7948     0.6549    -0.0215 H       
  26 H26            2.6278     5.9307     0.5262 H       
  27 H27            4.2534     5.2058     0.5102 H       
  28 H28            1.5563     6.6246    -1.5368 H       
  29 H29            1.8718     7.3935    -3.8537 H       
  30 H30            5.7750     5.6534    -3.8919 H       
  31 H31            5.4559     4.8970    -1.5714 H       
  32 H32            5.2765     7.0738    -6.9372 H       
  33 H33            6.0812     7.1255    -5.3504 H       
  34 H34            5.3942     5.5970    -5.9505 H       
@<TRIPOS>BOND
   1    1    2 1
   2    1    6 1
   3    1   22 2
   4    2   21 1
   5    2   23 1
   6    2   24 1
   7    3    4 1
   8    3    7 1
   9    3   12 1
  10    4    5 2
  11    5    6 1
  12    5   25 1
  13    6    7 2
  14    7    8 1
  15    8    9 1
  16    8   10 1
  17    8   11 1
  18   12   13 1
  19   12   26 1
  20   12   27 1
  21   13   14 ar
  22   13   18 ar
  23   14   15 ar
  24   14   28 1
  25   15   16 ar
  26   15   29 1
  27   16   17 ar
  28   16   19 1
  29   17   18 ar
  30   17   30 1
  31   18   31 1
  32   19   20 1
  33   20   32 1
  34   20   33 1
  35   20   34 1

#	End of record

