#	Name: ASD00180026
#	Creating user name:	WinNT
#	Creation time:	15. 06. 2019 18:33

#	Modifying user name:	WinNT
#	Modification time:	15. 06. 2019 18:33

#	Program:	/corina/corina34_cracker 3.40 0067  02.08.2006

@<TRIPOS>MOLECULE
ASD00180026
  47   48    0    0    0
SMALL
NO_CHARGES


@<TRIPOS>ATOM
   1 N1             0.0167     1.1142    -0.1658 N.ar    
   2 C2             0.1779    -0.1863    -0.2826 C.ar    
   3 C3             1.4627    -0.7408    -0.2645 C.ar    
   4 N4             2.5243     0.0433    -0.1293 N.ar    
   5 C5             2.3671     1.3561    -0.0110 C.ar    
   6 C6             1.0772     1.9087    -0.0296 C.ar    
   7 C7             0.8959     3.3687     0.1010 C.2     
   8 N8            -0.3242     3.9078    -0.0369 N.2     
   9 O9             1.8550     4.0833     0.3342 O.2     
  10 C10           -0.5167     4.8995    -0.8923 C.2     
  11 N11            3.4719     2.1773     0.1306 N.pl3   
  12 N12            0.4968     5.2984    -1.7135 N.pl3   
  13 N13           -1.7287     5.5226    -0.9526 N.pl3   
  14 Cl14          -1.2074    -1.2177    -0.4593 Cl      
  15 N15            1.6263    -2.1105    -0.3875 N.pl3   
  16 C16            2.9707    -2.6923    -0.3687 C.3     
  17 C17            2.8711    -4.2115    -0.5207 C.3     
  18 N18            4.2155    -4.7932    -0.5019 N.am    
  19 S19            4.4098    -6.4220    -0.2746 S.o2    
  20 C20            3.6917    -7.2319    -1.6650 C.ar    
  21 C21            3.8984    -8.1391    -3.8711 C.ar    
  22 C22            2.5651    -8.5032    -3.8463 C.ar    
  23 C23            1.7934    -8.2259    -2.7334 C.ar    
  24 C24            2.3568    -7.5905    -1.6426 C.ar    
  25 C25            4.4618    -7.5037    -2.7803 C.ar    
  26 O26            5.8069    -6.6727    -0.3417 O.2     
  27 O27            3.6110    -6.7686     0.8483 O.2     
  28 C28            1.9509    -9.1959    -5.0354 C.3     
  29 H29            4.3554     1.7891     0.2290 H       
  30 H30            3.3629     3.1412     0.1316 H       
  31 H31            1.3336     4.8079    -1.7245 H       
  32 H32            0.3808     6.0725    -2.2864 H       
  33 H33           -2.4494     5.2390    -0.3687 H       
  34 H34           -1.8698     6.2493    -1.5794 H       
  35 H35            0.8507    -2.6846    -0.4861 H       
  36 H36            3.5555    -2.2823    -1.1920 H       
  37 H37            3.4570    -2.4529     0.5770 H       
  38 H38            2.2863    -4.6215     0.3027 H       
  39 H39            2.3848    -4.4509    -1.4664 H       
  40 H40            4.9919    -4.2244    -0.6225 H       
  41 H41            4.5013    -8.3558    -4.7406 H       
  42 H42            0.7517    -8.5103    -2.7140 H       
  43 H43            1.7542    -7.3745    -0.7728 H       
  44 H44            5.5034    -7.2193    -2.7997 H       
  45 H45            2.0592   -10.2747    -4.9234 H       
  46 H46            0.8928    -8.9415    -5.0976 H       
  47 H47            2.4564    -8.8726    -5.9454 H       
@<TRIPOS>BOND
   1    1    2 ar
   2    1    6 ar
   3    2    3 ar
   4    2   14 1
   5    3    4 ar
   6    3   15 1
   7    4    5 ar
   8    5    6 ar
   9    5   11 1
  10    6    7 1
  11    7    8 1
  12    7    9 2
  13    8   10 2
  14   10   12 1
  15   10   13 1
  16   11   29 1
  17   11   30 1
  18   12   31 1
  19   12   32 1
  20   13   33 1
  21   13   34 1
  22   15   16 1
  23   15   35 1
  24   16   17 1
  25   16   36 1
  26   16   37 1
  27   17   18 1
  28   17   38 1
  29   17   39 1
  30   18   19 am
  31   18   40 1
  32   19   20 1
  33   19   26 2
  34   19   27 2
  35   20   25 ar
  36   20   24 ar
  37   21   22 ar
  38   21   25 ar
  39   21   41 1
  40   22   23 ar
  41   22   28 1
  42   23   24 ar
  43   23   42 1
  44   24   43 1
  45   25   44 1
  46   28   45 1
  47   28   46 1
  48   28   47 1

#	End of record

