#	Name: ASD01914663
#	Creating user name:	WinNT
#	Creation time:	15. 06. 2019 20:04

#	Modifying user name:	WinNT
#	Modification time:	15. 06. 2019 20:04

#	Program:	/corina/corina34_cracker 3.40 0067  02.08.2006

@<TRIPOS>MOLECULE
ASD01914663
  56   61    0    0    0
SMALL
NO_CHARGES


@<TRIPOS>ATOM
   1 C1            -0.0171     1.4076     0.0098 C.2     
   2 C2             0.0021    -0.0041     0.0020 C.2     
   3 C3             1.1952    -0.6543    -0.0129 C.2     
   4 C4             2.3920     0.0845    -0.0203 C.2     
   5 C5             2.3598     1.4335    -0.0123 C.2     
   6 N6             1.1670     2.1016     0.0022 N.pl3   
   7 N7            -1.0113     2.2795     0.0293 N.2     
   8 C8            -0.5023     3.5253     0.0282 C.2     
   9 C9             0.8601     3.4284     0.0122 C.2     
  10 C10           -1.2811     4.7788     0.0458 C.2     
  11 O11           -0.7075     5.8510     0.0425 O.2     
  12 N12           -2.6280     4.7352     0.0656 N.am    
  13 C13           -3.4010     5.9795     0.0830 C.3     
  14 C14           -4.8953     5.6514     0.1035 C.3     
  15 C15           -5.7026     6.9509     0.1218 C.3     
  16 C16           -5.3776     7.7708    -1.1285 C.3     
  17 C17           -3.8833     8.0989    -1.1490 C.3     
  18 C18           -3.5214     8.9067     0.0990 C.3     
  19 C19           -3.8464     8.0869     1.3492 C.3     
  20 C20           -3.0390     6.7873     1.3310 C.3     
  21 C21           -5.3406     7.7587     1.3697 C.3     
  22 C22           -3.0760     6.7994    -1.1672 C.3     
  23 N23           -7.1333     6.6368     0.1414 N.am    
  24 C24           -8.0417     7.6323     0.1597 C.2     
  25 O25           -7.6739     8.7904     0.1598 O.2     
  26 C26           -9.4888     7.3145     0.1796 C.ar    
  27 C27          -10.4227     8.3480     0.1984 C.ar    
  28 C28          -11.7727     8.0351     0.2164 C.ar    
  29 C29          -12.1418     6.6989     0.2149 C.ar    
  30 C30          -11.1587     5.7227     0.1957 C.ar    
  31 N31           -9.8844     6.0477     0.1737 N.ar    
  32 Cl32           3.9179    -0.7431    -0.0393 Cl      
  33 H33           -0.9227    -0.5618     0.0082 H       
  34 H34            1.2243    -1.7339    -0.0186 H       
  35 H35            3.2850     1.9907    -0.0178 H       
  36 H36            1.5618     4.2494     0.0103 H       
  37 H37           -3.0855     3.8799     0.0682 H       
  38 H38           -5.1531     5.0759    -0.7855 H       
  39 H39           -5.1268     5.0673     0.9942 H       
  40 H40           -5.6354     7.1953    -2.0175 H       
  41 H41           -5.9527     8.6966    -1.1155 H       
  42 H42           -3.6518     8.6830    -2.0397 H       
  43 H43           -2.4568     9.1405     0.0843 H       
  44 H44           -4.0965     9.8326     0.1120 H       
  45 H45           -3.5885     8.6623     2.2383 H       
  46 H46           -3.2706     6.2032     2.2216 H       
  47 H47           -1.9745     7.0211     1.3163 H       
  48 H48           -5.9158     8.6845     1.3827 H       
  49 H49           -5.5721     7.1746     2.2604 H       
  50 H50           -2.0115     7.0332    -1.1818 H       
  51 H51           -3.3339     6.2239    -2.0563 H       
  52 H52           -7.4269     5.7122     0.1413 H       
  53 H53          -10.0993     9.3784     0.1993 H       
  54 H54          -12.5201     8.8145     0.2315 H       
  55 H55          -13.1855     6.4215     0.2290 H       
  56 H56          -11.4427     4.6807     0.1945 H       
@<TRIPOS>BOND
   1    1    2 1
   2    1    6 1
   3    1    7 2
   4    2    3 2
   5    2   33 1
   6    3    4 1
   7    3   34 1
   8    4    5 2
   9    4   32 1
  10    5    6 1
  11    5   35 1
  12    6    9 1
  13    7    8 1
  14    8    9 2
  15    8   10 1
  16    9   36 1
  17   10   11 2
  18   10   12 am
  19   12   13 1
  20   12   37 1
  21   13   14 1
  22   13   20 1
  23   13   22 1
  24   14   15 1
  25   14   38 1
  26   14   39 1
  27   15   16 1
  28   15   21 1
  29   15   23 1
  30   16   17 1
  31   16   40 1
  32   16   41 1
  33   17   18 1
  34   17   22 1
  35   17   42 1
  36   18   19 1
  37   18   43 1
  38   18   44 1
  39   19   20 1
  40   19   21 1
  41   19   45 1
  42   20   46 1
  43   20   47 1
  44   21   48 1
  45   21   49 1
  46   22   50 1
  47   22   51 1
  48   23   24 am
  49   23   52 1
  50   24   25 2
  51   24   26 1
  52   26   27 ar
  53   26   31 ar
  54   27   28 ar
  55   27   53 1
  56   28   29 ar
  57   28   54 1
  58   29   30 ar
  59   29   55 1
  60   30   31 ar
  61   30   56 1

#	End of record

