#	Name: ASD01884314
#	Creating user name:	WinNT
#	Creation time:	15. 06. 2019 19:48

#	Modifying user name:	WinNT
#	Modification time:	15. 06. 2019 19:48

#	Program:	/corina/corina34_cracker 3.40 0067  02.08.2006

@<TRIPOS>MOLECULE
ASD01884314
  33   34    0    0    0
SMALL
NO_CHARGES


@<TRIPOS>ATOM
   1 C1            -0.4055     1.4819    -1.4382 C.ar    
   2 C2            -0.4364     0.1125    -1.6273 C.ar    
   3 C3            -1.4924    -0.6302    -1.1360 C.ar    
   4 C4            -2.5228    -0.0008    -0.4522 C.ar    
   5 C5            -2.4894     1.3736    -0.2639 C.ar    
   6 C6            -1.4282     2.1108    -0.7523 C.ar    
   7 O7            -3.5630    -0.7290     0.0317 O.3     
   8 C8            -3.5019    -2.0819    -0.0812 C.ar    
   9 C9            -2.9057    -2.8363     0.9192 C.ar    
  10 C10           -4.0406    -2.7112    -1.1942 C.ar    
  11 C11           -3.9773    -4.0865    -1.3069 C.ar    
  12 C12           -3.3773    -4.8363    -0.3110 C.ar    
  13 C13           -2.8446    -4.2113     0.8024 C.ar    
  14 Br14          -3.2928    -6.7189    -0.4678 Br      
  15 C15            0.7479     2.2895    -1.9753 C.3     
  16 C16            0.2649     3.6987    -2.3244 C.3     
  17 C17            1.8478     2.3754    -0.9153 C.3     
  18 O18            1.2654     1.6590    -3.1487 O.3     
  19 H19            0.3657    -0.3768    -2.1599 H       
  20 H20           -1.5162    -1.6997    -1.2842 H       
  21 H21           -3.2901     1.8658     0.2680 H       
  22 H22           -1.4015     3.1804    -0.6056 H       
  23 H23           -2.4894    -2.3487     1.7883 H       
  24 H24           -4.5094    -2.1263    -1.9717 H       
  25 H25           -4.3969    -4.5768    -2.1730 H       
  26 H26           -2.3767    -4.7985     1.5786 H       
  27 H27           -0.1298     4.1796    -1.4294 H       
  28 H28            1.0991     4.2828    -2.7129 H       
  29 H29           -0.5187     3.6375    -3.0797 H       
  30 H30            2.1919     1.3715    -0.6665 H       
  31 H31            2.6820     2.9595    -1.3037 H       
  32 H32            1.4531     2.8563    -0.0203 H       
  33 H33            0.6211     1.5707    -3.8644 H       
@<TRIPOS>BOND
   1    1    2 ar
   2    1   15 1
   3    1    6 ar
   4    2    3 ar
   5    2   19 1
   6    3    4 ar
   7    3   20 1
   8    4    5 ar
   9    4    7 1
  10    5    6 ar
  11    5   21 1
  12    6   22 1
  13    7    8 1
  14    8    9 ar
  15    8   10 ar
  16    9   13 ar
  17    9   23 1
  18   10   11 ar
  19   10   24 1
  20   11   12 ar
  21   11   25 1
  22   12   13 ar
  23   12   14 1
  24   13   26 1
  25   15   16 1
  26   15   17 1
  27   15   18 1
  28   16   27 1
  29   16   28 1
  30   16   29 1
  31   17   30 1
  32   17   31 1
  33   17   32 1
  34   18   33 1

#	End of record

