#	Name: ASD01911190
#	Creating user name:	WinNT
#	Creation time:	15. 06. 2019 19:57

#	Modifying user name:	WinNT
#	Modification time:	15. 06. 2019 19:57

#	Program:	/corina/corina34_cracker 3.40 0067  02.08.2006

@<TRIPOS>MOLECULE
ASD01911190
  42   45    0    0    0
SMALL
NO_CHARGES


@<TRIPOS>ATOM
   1 C1             0.9241     0.7439     0.1947 C.ar    
   2 N2             0.6917    -0.5473     0.1056 N.ar    
   3 C3             1.4831    -1.3507    -0.5950 C.ar    
   4 C4             2.5950    -0.8430    -1.2628 C.ar    
   5 C5             2.8645     0.5147    -1.1865 C.ar    
   6 C6             2.0121     1.3171    -0.4446 C.ar    
   7 C7             1.1813    -2.7991    -0.6667 C.2     
   8 N8             0.1071    -3.2964    -0.0222 N.am    
   9 C9            -0.2325    -4.6461    -0.1666 C.ar    
  10 C10           -1.5560    -5.0472    -0.0420 C.ar    
  11 C11           -1.8891    -6.3801    -0.1849 C.ar    
  12 C12           -0.9043    -7.3161    -0.4517 C.ar    
  13 C13            0.4165    -6.9182    -0.5760 C.ar    
  14 C14            0.7530    -5.5858    -0.4405 C.ar    
  15 C15           -2.6282    -4.0291     0.2494 C.3     
  16 N16           -3.0207    -3.3634    -0.9952 N.am    
  17 C17           -3.9215    -3.8504    -1.8675 C.2     
  18 C18           -4.0487    -2.9022    -2.9922 C.ar    
  19 C19           -3.1631    -1.8428    -2.7062 C.ar    
  20 C20           -2.5320    -2.1818    -1.4132 C.2     
  21 O21           -1.7051    -1.5101    -0.8300 O.2     
  22 O22           -4.5283    -4.8960    -1.7500 O.2     
  23 O23            1.9024    -3.5391    -1.3066 O.2     
  24 F24           -1.2321    -8.6193    -0.5906 F       
  25 C25           -4.8055    -2.8741    -4.1549 C.ar    
  26 C26           -4.6848    -1.8027    -5.0279 C.ar    
  27 C27           -3.8160    -0.7642    -4.7465 C.ar    
  28 C28           -3.0530    -0.7798    -3.5868 C.ar    
  29 Cl29          -3.6785     0.5680    -5.8510 Cl      
  30 Cl30          -5.8980    -4.1740    -4.5158 Cl      
  31 H31            0.2556     1.3670     0.7702 H       
  32 H32            3.2383    -1.4978    -1.8318 H       
  33 H33            3.7194     0.9374    -1.6932 H       
  34 H34            2.1939     2.3787    -0.3654 H       
  35 H35           -0.4306    -2.7186     0.5416 H       
  36 H36           -2.9184    -6.6925    -0.0880 H       
  37 H37            1.1833    -7.6500    -0.7834 H       
  38 H38            1.7830    -5.2760    -0.5375 H       
  39 H39           -3.4947    -4.5281     0.6834 H       
  40 H40           -2.2453    -3.2892     0.9522 H       
  41 H41           -5.2730    -1.7796    -5.9334 H       
  42 H42           -2.3764     0.0342    -3.3721 H       
@<TRIPOS>BOND
   1    1    2 ar
   2    1    6 ar
   3    1   31 1
   4    2    3 ar
   5    3    4 ar
   6    3    7 1
   7    4    5 ar
   8    4   32 1
   9    5    6 ar
  10    5   33 1
  11    6   34 1
  12    7    8 am
  13    7   23 2
  14    8    9 1
  15    8   35 1
  16    9   10 ar
  17    9   14 ar
  18   10   11 ar
  19   10   15 1
  20   11   12 ar
  21   11   36 1
  22   12   13 ar
  23   12   24 1
  24   13   14 ar
  25   13   37 1
  26   14   38 1
  27   15   16 1
  28   15   39 1
  29   15   40 1
  30   16   17 am
  31   16   20 am
  32   17   18 1
  33   17   22 2
  34   18   19 ar
  35   18   25 ar
  36   19   20 1
  37   19   28 ar
  38   20   21 2
  39   25   26 ar
  40   25   30 1
  41   26   27 ar
  42   26   41 1
  43   27   28 ar
  44   27   29 1
  45   28   42 1

#	End of record

