#	Name: ASD01028048
#	Creating user name:	WinNT
#	Creation time:	15. 06. 2019 18:56

#	Modifying user name:	WinNT
#	Modification time:	15. 06. 2019 18:56

#	Program:	/corina/corina34_cracker 3.40 0067  02.08.2006

@<TRIPOS>MOLECULE
ASD01028048
  54   58    0    0    0
SMALL
NO_CHARGES


@<TRIPOS>ATOM
   1 C1            -0.0187     1.5248     0.0104 C.3     
   2 C2             0.0021    -0.0041     0.0020 C.3     
   3 C3             1.4430     3.4934     0.5172 C.3     
   4 C4             1.4177     2.0546    -0.0004 C.3     
   5 N5             2.9648     3.9448     2.3857 N.3     
   6 N6             1.5640     1.0328     4.5624 N.pl3   
   7 C7             2.4609     1.8511     5.2311 C.ar    
   8 C8             3.2671     2.6816     4.4589 C.ar    
   9 C9             3.1619     2.6108     2.9583 C.3     
  10 C10            2.5745     1.8704     6.6178 C.ar    
  11 C11            3.4793     2.7332     7.2217 C.ar    
  12 C12            4.2645     3.5748     6.4416 C.ar    
  13 C13            4.1533     3.5442     5.0644 C.ar    
  14 O14           -1.1345    -0.5184     0.6999 O.3     
  15 C15           -0.9189    -1.0178     1.9463 C.ar    
  16 C16           -0.1286    -0.3083     2.8081 C.ar    
  17 C17            0.1136    -0.8076     4.0927 C.ar    
  18 C18            0.9621    -0.1104     4.9998 C.ar    
  19 N19            1.1317    -0.6265     6.2064 N.ar    
  20 O20            1.9269     1.1590     7.5824 O.3     
  21 C21            2.5078     1.5108     8.8427 C.3     
  22 O22            3.4226     2.5781     8.5737 O.3     
  23 C23           -1.4946    -2.2325     2.3427 C.ar    
  24 C24           -1.2803    -2.7344     3.6096 C.ar    
  25 C25           -0.4717    -2.0256     4.5079 C.ar    
  26 N26           -0.2228    -2.4592     5.7537 N.ar    
  27 C27            0.5511    -1.7654     6.5558 C.ar    
  28 O28           -2.2720    -2.9238     1.4691 O.3     
  29 C29           -2.8306    -4.1551     1.9318 C.3     
  30 C30            2.8691     3.8746     0.9195 C.3     
  31 Br31           5.4843     4.7620     7.2653 Br      
  32 H32           -0.5458     1.8859    -0.8726 H       
  33 H33           -0.5288     1.8763     0.9072 H       
  34 H34           -0.0156    -0.3596    -1.0282 H       
  35 H35            0.9128    -0.3554     0.4870 H       
  36 H36            1.0954     4.1666    -0.2665 H       
  37 H37            0.7872     3.5784     1.3836 H       
  38 H38            2.0397     1.4285     0.6391 H       
  39 H39            1.8057     2.0290    -1.0187 H       
  40 H40            2.1503     4.3909     2.7803 H       
  41 H41            1.3330     1.3107     3.6623 H       
  42 H42            2.3179     1.9763     2.6877 H       
  43 H43            4.0778     2.1793     2.5547 H       
  44 H44            4.7638     4.1994     4.4607 H       
  45 H45            0.3054     0.6312     2.4993 H       
  46 H46            1.7331     1.8455     9.5325 H       
  47 H47            3.0402     0.6569     9.2617 H       
  48 H48           -1.7339    -3.6681     3.9077 H       
  49 H49            0.7247    -2.1434     7.5525 H       
  50 H50           -2.0270    -4.8364     2.2111 H       
  51 H51           -3.4629    -3.9641     2.7989 H       
  52 H52           -3.4281    -4.6039     1.1382 H       
  53 H53            3.5648     3.1234     0.5457 H       
  54 H54            3.1195     4.8456     0.4923 H       
@<TRIPOS>BOND
   1    1    2 1
   2    1    4 1
   3    1   32 1
   4    1   33 1
   5    2   14 1
   6    2   34 1
   7    2   35 1
   8    3    4 1
   9    3   30 1
  10    3   36 1
  11    3   37 1
  12    4   38 1
  13    4   39 1
  14    5   30 1
  15    5    9 1
  16    5   40 1
  17    6    7 1
  18    6   18 1
  19    6   41 1
  20    7    8 ar
  21    7   10 ar
  22    8    9 1
  23    8   13 ar
  24    9   42 1
  25    9   43 1
  26   10   11 ar
  27   10   20 1
  28   11   12 ar
  29   11   22 1
  30   12   13 ar
  31   12   31 1
  32   13   44 1
  33   14   15 1
  34   15   16 ar
  35   15   23 ar
  36   16   17 ar
  37   16   45 1
  38   17   18 ar
  39   17   25 ar
  40   18   19 ar
  41   19   27 ar
  42   20   21 1
  43   21   22 1
  44   21   46 1
  45   21   47 1
  46   23   24 ar
  47   23   28 1
  48   24   25 ar
  49   24   48 1
  50   25   26 ar
  51   26   27 ar
  52   27   49 1
  53   28   29 1
  54   29   50 1
  55   29   51 1
  56   29   52 1
  57   30   53 1
  58   30   54 1

#	End of record

