#	Name: ASD01900463
#	Creating user name:	WinNT
#	Creation time:	15. 06. 2019 19:52

#	Modifying user name:	WinNT
#	Modification time:	15. 06. 2019 19:52

#	Program:	/corina/corina34_cracker 3.40 0067  02.08.2006

@<TRIPOS>MOLECULE
ASD01900463
  35   38    0    0    0
SMALL
NO_CHARGES


@<TRIPOS>ATOM
   1 C1             0.3993     4.0128     0.5629 C.ar    
   2 C2             0.8408     5.0810     1.3669 C.ar    
   3 C3             2.2072     5.3464     1.4495 C.ar    
   4 C4             3.0732     4.5435     0.7335 C.ar    
   5 C5             2.5677     3.5065    -0.0397 C.ar    
   6 N6             1.2773     3.2696    -0.1065 N.ar    
   7 N7            -1.4090     4.9637     1.4822 N.2     
   8 N8            -0.2737     5.6524     1.9219 N.pl3   
   9 C9            -1.0609     3.9951     0.6772 C.2     
  10 N10           -1.9266     3.0974     0.0450 N.pl3   
  11 C11           -4.1623     2.1743     0.0491 C.ar    
  12 C12           -3.3114     3.2653     0.1552 C.ar    
  13 C13           -3.8538     4.5305     0.3735 C.ar    
  14 C14           -5.2294     4.6487     0.4764 C.ar    
  15 C15           -6.0178     3.5101     0.3594 C.ar    
  16 N16           -5.4688     2.3253     0.1520 N.ar    
  17 O17           -7.3680     3.6158     0.4589 O.3     
  18 C18           -8.1060     2.4836     0.3398 C.ar    
  19 C19           -9.4903     2.5513     0.4358 C.ar    
  20 C20          -10.2314     1.3893     0.3120 C.ar    
  21 C21           -9.5583     0.1946     0.0955 C.ar    
  22 C22           -8.1803     0.2014     0.0107 C.ar    
  23 N23           -7.5011     1.3266     0.1278 N.ar    
  24 Cl24          -5.9604     6.1996     0.7486 Cl      
  25 H25            2.5784     6.1586     2.0569 H       
  26 H26            4.1377     4.7212     0.7744 H       
  27 H27            3.2496     2.8818    -0.5975 H       
  28 H28           -0.2753     6.4130     2.5239 H       
  29 H29           -1.5672     2.3581    -0.4700 H       
  30 H30           -3.7506     1.1911    -0.1245 H       
  31 H31           -3.2163     5.3979     0.4606 H       
  32 H32           -9.9815     3.4982     0.6052 H       
  33 H33          -11.3089     1.4112     0.3827 H       
  34 H34          -10.1067    -0.7304    -0.0053 H       
  35 H35           -7.6519    -0.7254    -0.1573 H       
@<TRIPOS>BOND
   1    1    2 ar
   2    1    6 ar
   3    1    9 1
   4    2    3 ar
   5    2    8 1
   6    3    4 ar
   7    3   25 1
   8    4    5 ar
   9    4   26 1
  10    5    6 ar
  11    5   27 1
  12    7    8 1
  13    7    9 2
  14    8   28 1
  15    9   10 1
  16   10   12 1
  17   10   29 1
  18   11   12 ar
  19   11   16 ar
  20   11   30 1
  21   12   13 ar
  22   13   14 ar
  23   13   31 1
  24   14   15 ar
  25   14   24 1
  26   15   16 ar
  27   15   17 1
  28   17   18 1
  29   18   19 ar
  30   18   23 ar
  31   19   20 ar
  32   19   32 1
  33   20   21 ar
  34   20   33 1
  35   21   22 ar
  36   21   34 1
  37   22   23 ar
  38   22   35 1

#	End of record

