#	Name: ASD08150192
#	Creating user name:	WinNT
#	Creation time:	15. 06. 2019 21:15

#	Modifying user name:	WinNT
#	Modification time:	15. 06. 2019 21:15

#	Program:	/corina/corina34_cracker 3.40 0067  02.08.2006

@<TRIPOS>MOLECULE
ASD08150192
  49   53    0    0    0
SMALL
NO_CHARGES


@<TRIPOS>ATOM
   1 N1            -0.0157     1.2951    -0.0515 N.2     
   2 C2             0.0018    -0.0026    -0.0874 C.2     
   3 N3             1.1464    -0.7343    -0.1048 N.am    
   4 C4             2.3544    -0.1243    -0.0848 C.2     
   5 C5             2.3698     1.3455    -0.0439 C.ar    
   6 C6             3.5600     2.0697    -0.0212 C.ar    
   7 C7             3.5164     3.4462     0.0164 C.ar    
   8 C8             2.2988     4.1141     0.0322 C.ar    
   9 C9             1.1117     3.4172     0.0107 C.ar    
  10 C10            1.1297     2.0215    -0.0284 C.ar    
  11 O11            3.3878    -0.7674    -0.0995 O.2     
  12 C12            4.8853     1.3525    -0.0372 C.3     
  13 C13            1.0724    -2.1968    -0.1451 C.3     
  14 C14            1.7706    -2.7253    -1.4104 C.3     
  15 C15            2.9258    -3.6286    -0.9316 C.3     
  16 C16            2.4968    -4.0730     0.4888 C.3     
  17 C17            1.8276    -2.7975     1.0585 C.3     
  18 C18           -1.3151    -0.7349    -0.1106 C.3     
  19 N19           -3.9978     1.5268     0.6775 N.2     
  20 C20           -3.0835     0.6662     1.0196 C.2     
  21 N21           -2.4134     0.2343    -0.0861 N.pl3   
  22 C22           -2.9558     0.8742    -1.1718 C.ar    
  23 N23           -2.7253     0.8613    -2.4805 N.ar    
  24 C24           -3.4376     1.6115    -3.2947 C.ar    
  25 N25           -4.4025     2.4044    -2.8660 N.ar    
  26 C26           -4.7052     2.4839    -1.5742 C.ar    
  27 C27           -3.9727     1.7014    -0.6656 C.ar    
  28 N28           -5.7179     3.3182    -1.1343 N.pl3   
  29 H29            4.4369     4.0107     0.0341 H       
  30 H30            2.2830     5.1935     0.0621 H       
  31 H31            0.1710     3.9475     0.0234 H       
  32 H32            5.1525     1.1056    -1.0647 H       
  33 H33            5.6522     1.9967     0.3929 H       
  34 H34            4.8098     0.4365     0.5487 H       
  35 H35            0.0309    -2.5182    -0.1315 H       
  36 H36            1.0682    -3.3038    -2.0104 H       
  37 H37            2.1645    -1.8935    -1.9945 H       
  38 H38            3.0303    -4.4936    -1.5866 H       
  39 H39            3.8582    -3.0657    -0.8898 H       
  40 H40            1.7818    -4.8942     0.4372 H       
  41 H41            3.3654    -4.3526     1.0850 H       
  42 H42            2.5827    -2.1003     1.4216 H       
  43 H43            1.1307    -3.0560     1.8557 H       
  44 H44           -1.3809    -1.3357    -1.0178 H       
  45 H45           -1.3848    -1.3850     0.7615 H       
  46 H46           -2.8847     0.3422     2.0305 H       
  47 H47           -3.2245     1.5774    -4.3529 H       
  48 H48           -6.2162     3.8537    -1.7714 H       
  49 H49           -5.9294     3.3675    -0.1890 H       
@<TRIPOS>BOND
   1    1    2 2
   2    1   10 1
   3    2    3 1
   4    2   18 1
   5    3    4 am
   6    3   13 1
   7    4    5 1
   8    4   11 2
   9    5    6 ar
  10    5   10 ar
  11    6    7 ar
  12    6   12 1
  13    7    8 ar
  14    7   29 1
  15    8    9 ar
  16    8   30 1
  17    9   10 ar
  18    9   31 1
  19   12   32 1
  20   12   33 1
  21   12   34 1
  22   13   14 1
  23   13   17 1
  24   13   35 1
  25   14   15 1
  26   14   36 1
  27   14   37 1
  28   15   16 1
  29   15   38 1
  30   15   39 1
  31   16   17 1
  32   16   40 1
  33   16   41 1
  34   17   42 1
  35   17   43 1
  36   18   21 1
  37   18   44 1
  38   18   45 1
  39   19   20 2
  40   19   27 1
  41   20   21 1
  42   20   46 1
  43   21   22 1
  44   22   23 ar
  45   22   27 ar
  46   23   24 ar
  47   24   25 ar
  48   24   47 1
  49   25   26 ar
  50   26   27 ar
  51   26   28 1
  52   28   48 1
  53   28   49 1

#	End of record

