#	Name: ASD01882285
#	Creating user name:	WinNT
#	Creation time:	15. 06. 2019 19:44

#	Modifying user name:	WinNT
#	Modification time:	15. 06. 2019 19:44

#	Program:	/corina/corina34_cracker 3.40 0067  02.08.2006

@<TRIPOS>MOLECULE
ASD01882285
  24   25    0    0    0
SMALL
NO_CHARGES


@<TRIPOS>ATOM
   1 O1            -0.0173     1.4248     0.0099 O.3     
   2 C2             0.0021    -0.0041     0.0020 C.3     
   3 C3             1.2831     0.8325    -0.0057 C.3     
   4 C4            -0.3680    -0.7292     1.2974 C.3     
   5 O5            -1.5561    -1.4961     1.0913 O.3     
   6 C6            -1.9905    -2.2166     2.2464 C.3     
   7 C7            -3.2439    -2.9856     1.9167 C.ar    
   8 C8            -3.1550    -4.2764     1.4301 C.ar    
   9 C9            -4.3048    -4.9817     1.1277 C.ar    
  10 C10           -5.5434    -4.3965     1.3124 C.ar    
  11 C11           -5.6323    -3.1060     1.7999 C.ar    
  12 C12           -4.4827    -2.4022     2.1064 C.ar    
  13 H13           -0.2792    -0.5108    -0.9211 H       
  14 H14            1.8523     0.8812    -0.9340 H       
  15 H15            1.8699     0.8713     0.9120 H       
  16 H16            0.4467    -1.3924     1.5881 H       
  17 H17           -0.5402     0.0024     2.0869 H       
  18 H18           -1.2095    -2.9107     2.5567 H       
  19 H19           -2.1964    -1.5159     3.0555 H       
  20 H20           -2.1873    -4.7336     1.2858 H       
  21 H21           -4.2353    -5.9899     0.7468 H       
  22 H22           -6.4417    -4.9473     1.0754 H       
  23 H23           -6.6001    -2.6486     1.9439 H       
  24 H24           -4.5523    -1.3953     2.4908 H       
@<TRIPOS>BOND
   1    1    2 1
   2    1    3 1
   3    2    3 1
   4    2    4 1
   5    2   13 1
   6    3   14 1
   7    3   15 1
   8    4    5 1
   9    4   16 1
  10    4   17 1
  11    5    6 1
  12    6    7 1
  13    6   18 1
  14    6   19 1
  15    7    8 ar
  16    7   12 ar
  17    8    9 ar
  18    8   20 1
  19    9   10 ar
  20    9   21 1
  21   10   11 ar
  22   10   22 1
  23   11   12 ar
  24   11   23 1
  25   12   24 1

#	End of record

