#	Name: ASD01670046
#	Creating user name:	WinNT
#	Creation time:	15. 06. 2019 19:22

#	Modifying user name:	WinNT
#	Modification time:	15. 06. 2019 19:22

#	Program:	/corina/corina34_cracker 3.40 0067  02.08.2006

@<TRIPOS>MOLECULE
ASD01670046
  65   68    0    0    0
SMALL
NO_CHARGES


@<TRIPOS>ATOM
   1 C1             0.3143     1.7539    -0.0701 C.ar    
   2 C2             0.1792     0.3805     0.0039 C.ar    
   3 C3             1.5722     2.3198    -0.1480 C.ar    
   4 C4             1.3024    -0.4239    -0.0002 C.ar    
   5 C5             1.9044    -2.9445     1.2317 C.ar    
   6 C6             1.0572    -3.9793     0.8732 C.ar    
   7 C7             3.4375    -3.5955    -0.5005 C.ar    
   8 C8             2.6990     1.5153    -0.1521 C.ar    
   9 C9             2.5639     0.1413    -0.0778 C.ar    
  10 C10            3.0881    -2.7480     0.5548 C.ar    
  11 C11            1.3901    -4.8299    -0.1696 C.ar    
  12 C12            2.5791    -4.6426    -0.8637 C.ar    
  13 C13            4.7025    -3.3889    -1.2284 C.2     
  14 C14            7.2945     1.0801    -0.0655 C.2     
  15 C15           -2.2990    -8.7857    -1.8529 C.2     
  16 C16            4.1657     1.8817    -0.2276 C.3     
  17 C17            2.2302    -6.7104    -1.9796 C.3     
  18 C18            3.9306    -0.5089    -0.0979 C.3     
  19 C19            4.9216     0.6225     0.2468 C.3     
  20 C20            0.7316    -6.4463    -1.7847 C.3     
  21 C21            4.0054    -1.6200     0.9514 C.3     
  22 C22            8.5853     0.9123    -0.8248 C.3     
  23 C23           -1.5406    -7.4852    -1.7843 C.3     
  24 C24           -0.0384    -7.7666    -1.8543 C.3     
  25 C25            9.6904     1.7154    -0.1358 C.3     
  26 C26           11.0010     1.5451    -0.9067 C.3     
  27 N27            6.1765     0.4594    -0.4914 N.am    
  28 N28           12.0620     2.3161    -0.2452 N.3     
  29 O29            5.7171    -3.9420    -0.8525 O.2     
  30 O30           -1.6995    -9.8304    -1.9480 O.2     
  31 O31            4.7339    -2.5866    -2.3106 O.3     
  32 O32            7.2616     1.7736     0.9289 O.2     
  33 O33           -3.6406    -8.7835    -1.8083 O.3     
  34 O34            2.9210    -5.4593    -1.8935 O.3     
  35 O35            0.5451    -5.8453    -0.4987 O.3     
  36 H36           -0.5629     2.3840    -0.0715 H       
  37 H37           -0.8034    -0.0635     0.0653 H       
  38 H38            1.6769     3.3931    -0.2061 H       
  39 H39            1.1961    -1.4971     0.0576 H       
  40 H40            1.6338    -2.2852     2.0432 H       
  41 H41            0.1313    -4.1249     1.4097 H       
  42 H42            4.4425     2.1249    -1.2535 H       
  43 H43            4.3800     2.7225     0.4322 H       
  44 H44            2.5895    -7.3823    -1.2002 H       
  45 H45            2.4003    -7.1581    -2.9588 H       
  46 H46            4.1447    -0.9087    -1.0891 H       
  47 H47            5.1049     0.6621     1.3205 H       
  48 H48            0.3734    -5.7706    -2.5614 H       
  49 H49            3.6988    -1.2259     1.9203 H       
  50 H50            5.0287    -1.9897     1.0168 H       
  51 H51            8.8608    -0.1421    -0.8446 H       
  52 H52            8.4562     1.2734    -1.8452 H       
  53 H53           -1.8309    -6.8508    -2.6218 H       
  54 H54           -1.7721    -6.9786    -0.8474 H       
  55 H55            0.1931    -8.2733    -2.7913 H       
  56 H56            0.2519    -8.4010    -1.0169 H       
  57 H57            9.4149     2.7698    -0.1160 H       
  58 H58            9.8196     1.3544     0.8846 H       
  59 H59           11.2765     0.4906    -0.9265 H       
  60 H60           10.8718     1.9061    -1.9271 H       
  61 H61            6.2028    -0.0953    -1.2867 H       
  62 H62           12.1572     2.0443     0.7219 H       
  63 H63           12.9384     2.2198    -0.7357 H       
  64 H64            5.5864    -2.4820    -2.7549 H       
  65 H65           -4.0828    -9.6421    -1.8555 H       
@<TRIPOS>BOND
   1    1    2 ar
   2    1    3 ar
   3    1   36 1
   4    2    4 ar
   5    2   37 1
   6    3    8 ar
   7    3   38 1
   8    4    9 ar
   9    4   39 1
  10    5    6 ar
  11    5   10 ar
  12    5   40 1
  13    6   11 ar
  14    6   41 1
  15    7   10 ar
  16    7   12 ar
  17    7   13 1
  18    8    9 ar
  19    8   16 1
  20    9   18 1
  21   10   21 1
  22   11   12 ar
  23   11   35 1
  24   12   34 1
  25   13   29 2
  26   13   31 1
  27   14   22 1
  28   14   27 am
  29   14   32 2
  30   15   23 1
  31   15   30 2
  32   15   33 1
  33   16   19 1
  34   16   42 1
  35   16   43 1
  36   17   20 1
  37   17   34 1
  38   17   44 1
  39   17   45 1
  40   18   19 1
  41   18   21 1
  42   18   46 1
  43   19   27 1
  44   19   47 1
  45   20   24 1
  46   20   35 1
  47   20   48 1
  48   21   49 1
  49   21   50 1
  50   22   25 1
  51   22   51 1
  52   22   52 1
  53   23   24 1
  54   23   53 1
  55   23   54 1
  56   24   55 1
  57   24   56 1
  58   25   26 1
  59   25   57 1
  60   25   58 1
  61   26   28 1
  62   26   59 1
  63   26   60 1
  64   27   61 1
  65   28   62 1
  66   28   63 1
  67   31   64 1
  68   33   65 1

#	End of record

