#	Name: ASD01140337
#	Creating user name:	WinNT
#	Creation time:	15. 06. 2019 19:00

#	Modifying user name:	WinNT
#	Modification time:	15. 06. 2019 19:00

#	Program:	/corina/corina34_cracker 3.40 0067  02.08.2006

@<TRIPOS>MOLECULE
ASD01140337
  38   41    0    0    0
SMALL
NO_CHARGES


@<TRIPOS>ATOM
   1 C1             0.0966     1.5710     0.2393 C.ar    
   2 C2             0.0466     0.1747     0.2325 C.ar    
   3 C3             1.2223    -0.5612     0.1539 C.ar    
   4 C4             2.4622     0.0869     0.0814 C.ar    
   5 C5             2.4943     1.4840     0.0654 C.ar    
   6 C6             1.3116     2.2127     0.1559 C.ar    
   7 C7             3.6698    -0.7459     0.0576 C.2     
   8 N8             4.7296    -0.5845    -0.6545 N.2     
   9 C9             4.8565     0.5187    -1.6139 C.3     
  10 C10            4.7552     1.8090    -0.8423 C.2     
  11 N11            3.6919     2.1899    -0.0737 N.pl3   
  12 C12            4.0100     3.3846     0.4853 C.2     
  13 C13            5.6690     2.7897    -0.7685 C.2     
  14 N14            5.1898     3.7410     0.0503 N.2     
  15 C15            3.6693    -1.9158     0.9648 C.ar    
  16 C16            3.6435    -1.7303     2.3496 C.ar    
  17 C17            3.6890    -3.2085     0.4411 C.ar    
  18 C18            3.6885    -4.2948     1.2914 C.ar    
  19 C19            3.6686    -4.1058     2.6621 C.ar    
  20 C20            3.6433    -2.8281     3.1901 C.ar    
  21 C21           -1.2157    -0.4975     0.3071 C.1     
  22 C22           -2.2505    -1.0485     0.3682 C.1     
  23 C23            6.9981     2.8181    -1.4782 C.3     
  24 F24            3.6192    -0.4819     2.8656 F       
  25 H25           -0.8157     2.1453     0.3052 H       
  26 H26            1.1802    -1.6403     0.1490 H       
  27 H27            1.3476     3.2921     0.1610 H       
  28 H28            5.8225     0.4629    -2.1158 H       
  29 H29            4.0535     0.4635    -2.3490 H       
  30 H30            3.3934     3.9454     1.1722 H       
  31 H31            3.7042    -3.3587    -0.6283 H       
  32 H32            3.7034    -5.2957     0.8861 H       
  33 H33            3.6680    -4.9603     3.3225 H       
  34 H34            3.6282    -2.6873     4.2607 H       
  35 H35           -3.1761    -1.5413     0.4229 H       
  36 H36            7.7570     2.3557    -0.8470 H       
  37 H37            6.9211     2.2679    -2.4160 H       
  38 H38            7.2777     3.8511    -1.6849 H       
@<TRIPOS>BOND
   1    1    2 ar
   2    1    6 ar
   3    1   25 1
   4    2    3 ar
   5    2   21 1
   6    3    4 ar
   7    3   26 1
   8    4    5 ar
   9    4    7 1
  10    5    6 ar
  11    5   11 1
  12    6   27 1
  13    7    8 2
  14    7   15 1
  15    8    9 1
  16    9   10 1
  17    9   28 1
  18    9   29 1
  19   10   11 1
  20   10   13 2
  21   11   12 1
  22   12   14 2
  23   12   30 1
  24   13   14 1
  25   13   23 1
  26   15   16 ar
  27   15   17 ar
  28   16   24 1
  29   16   20 ar
  30   17   18 ar
  31   17   31 1
  32   18   19 ar
  33   18   32 1
  34   19   20 ar
  35   19   33 1
  36   20   34 1
  37   21   22 3
  38   22   35 1
  39   23   36 1
  40   23   37 1
  41   23   38 1

#	End of record

