#	Name: ASD01911377
#	Creating user name:	WinNT
#	Creation time:	15. 06. 2019 19:57

#	Modifying user name:	WinNT
#	Modification time:	15. 06. 2019 19:57

#	Program:	/corina/corina34_cracker 3.40 0067  02.08.2006

@<TRIPOS>MOLECULE
ASD01911377
  47   50    0    0    0
SMALL
NO_CHARGES


@<TRIPOS>ATOM
   1 C1            -0.0173     1.4278     0.0099 C.ar    
   2 C2             0.0021    -0.0041     0.0020 C.1     
   3 C3             0.0180    -1.1779    -0.0044 C.1     
   4 C4             0.0374    -2.6098    -0.0123 C.ar    
   5 N5            -1.1126    -3.2811    -0.0049 N.ar    
   6 C6            -1.1402    -4.5954    -0.0108 C.ar    
   7 C7             0.0510    -5.3261    -0.0416 C.ar    
   8 C8             1.2772    -4.6525    -0.0428 C.ar    
   9 C9             1.2645    -3.2820    -0.0334 C.ar    
  10 C10           -2.4537    -5.3334     0.0374 C.3     
  11 C11           -2.3546    -6.6319    -0.7588 C.3     
  12 N12           -1.1812    -7.4046    -0.3573 N.am    
  13 C13           -0.0076    -6.7990    -0.0931 C.2     
  14 O14            0.9939    -7.4602     0.1020 O.2     
  15 C15           -1.2830    -8.8613    -0.2402 C.3     
  16 C16           -0.2933    -9.5207    -1.2028 C.3     
  17 C17           -0.3996   -11.0421    -1.0806 C.3     
  18 C18           -0.0730   -11.4625     0.3538 C.3     
  19 C19           -1.0626   -10.8031     1.3165 C.3     
  20 C20           -0.9563    -9.2817     1.1942 C.3     
  21 C21            1.1812     2.1462     0.0023 C.ar    
  22 C22            1.1543     3.5264     0.0095 C.ar    
  23 C23           -0.0566     4.1981     0.0246 C.ar    
  24 C24           -1.2470     3.4924     0.0327 C.ar    
  25 C25           -1.2355     2.1136     0.0194 C.ar    
  26 Cl26           2.6415     4.4218     0.0001 Cl      
  27 H27            2.2092    -5.1980    -0.0549 H       
  28 H28            2.1912    -2.7273    -0.0335 H       
  29 H29           -2.7017    -5.5629     1.0737 H       
  30 H30           -3.2365    -4.7065    -0.3895 H       
  31 H31           -3.2513    -7.2270    -0.5861 H       
  32 H32           -2.2816    -6.3961    -1.8205 H       
  33 H33           -2.2965    -9.1759    -0.4891 H       
  34 H34           -0.5261    -9.2212    -2.2247 H       
  35 H35            0.7201    -9.2061    -0.9539 H       
  36 H36           -1.4131   -11.3567    -1.3295 H       
  37 H37            0.3054   -11.5119    -1.7664 H       
  38 H38           -0.1487   -12.5464     0.4409 H       
  39 H39            0.9405   -11.1479     0.6028 H       
  40 H40           -2.0761   -11.1177     1.0675 H       
  41 H41           -0.8299   -11.1027     2.3384 H       
  42 H42            0.0572    -8.9672     1.4431 H       
  43 H43           -1.6614    -8.8120     1.8800 H       
  44 H44            2.1260     1.6231    -0.0088 H       
  45 H45           -0.0720     5.2780     0.0306 H       
  46 H46           -2.1875     4.0231     0.0448 H       
  47 H47           -2.1656     1.5646     0.0257 H       
@<TRIPOS>BOND
   1    1    2 1
   2    1   21 ar
   3    1   25 ar
   4    2    3 3
   5    3    4 1
   6    4    5 ar
   7    4    9 ar
   8    5    6 ar
   9    6    7 ar
  10    6   10 1
  11    7    8 ar
  12    7   13 1
  13    8    9 ar
  14    8   27 1
  15    9   28 1
  16   10   11 1
  17   10   29 1
  18   10   30 1
  19   11   12 1
  20   11   31 1
  21   11   32 1
  22   12   13 am
  23   12   15 1
  24   13   14 2
  25   15   16 1
  26   15   20 1
  27   15   33 1
  28   16   17 1
  29   16   34 1
  30   16   35 1
  31   17   18 1
  32   17   36 1
  33   17   37 1
  34   18   19 1
  35   18   38 1
  36   18   39 1
  37   19   20 1
  38   19   40 1
  39   19   41 1
  40   20   42 1
  41   20   43 1
  42   21   22 ar
  43   21   44 1
  44   22   23 ar
  45   22   26 1
  46   23   24 ar
  47   23   45 1
  48   24   25 ar
  49   24   46 1
  50   25   47 1

#	End of record

