#	Name: ASD01884080
#	Creating user name:	WinNT
#	Creation time:	15. 06. 2019 19:47

#	Modifying user name:	WinNT
#	Modification time:	15. 06. 2019 19:47

#	Program:	/corina/corina34_cracker 3.40 0067  02.08.2006

@<TRIPOS>MOLECULE
ASD01884080
  52   56    0    0    0
SMALL
NO_CHARGES


@<TRIPOS>ATOM
   1 C1            -0.0187     1.5258     0.0104 C.3     
   2 C2             0.0021    -0.0041     0.0020 C.3     
   3 C3             0.7421    -0.5109     1.2415 C.3     
   4 C4             2.1775     0.0187     1.2307 C.3     
   5 C5             2.1567     1.5485     1.2391 C.3     
   6 C6             1.4167     2.0553    -0.0004 C.3     
   7 O7            -0.7098     1.9991    -1.1473 O.3     
   8 N8             2.8860    -0.4666     2.4176 N.pl3   
   9 C9             2.5180    -0.2129     3.7107 C.2     
  10 C10            3.3776    -0.8032     4.5558 C.2     
  11 C11            4.3784    -1.4915     3.7363 C.ar    
  12 C12            5.5023    -2.2642     4.0269 C.ar    
  13 C13            6.2593    -2.7856     2.9855 C.ar    
  14 C14            5.8934    -2.5345     1.6577 C.ar    
  15 C15            4.7945    -1.7789     1.3693 C.ar    
  16 C16            4.0176    -1.2507     2.3972 C.ar    
  17 C17            8.6405    -5.7011     3.2178 C.2     
  18 C18            7.4899    -4.9448     2.9258 C.2     
  19 C19            7.4559    -3.6083     3.2803 C.2     
  20 C20            8.5766    -3.0349     3.9274 C.2     
  21 C21            9.6618    -3.7855     4.1930 C.2     
  22 N22            9.7046    -5.1066     3.8460 N.pl3   
  23 N23            8.9515    -6.9716     2.9960 N.2     
  24 C24           10.1776    -7.2107     3.4659 C.2     
  25 C25           10.6667    -6.0690     3.9980 C.2     
  26 C26           12.0197    -5.8878     4.6365 C.3     
  27 C27           13.0595    -5.5939     3.5534 C.3     
  28 F28           12.7052    -4.4246     2.8718 F       
  29 F29           14.3155    -5.4257     4.1461 F       
  30 F30           13.1087    -6.6625     2.6518 F       
  31 Cl31           6.1327    -5.6790     2.1305 Cl      
  32 H32           -0.5289     1.8773     0.9072 H       
  33 H33           -1.0205    -0.3814     0.0098 H       
  34 H34            0.5123    -0.3556    -0.8948 H       
  35 H35            0.2319    -0.1594     2.1383 H       
  36 H36            0.7568    -1.6008     1.2356 H       
  37 H37            2.6876    -0.3328     0.3339 H       
  38 H38            1.6465     1.9000     2.1359 H       
  39 H39            3.1793     1.9258     1.2314 H       
  40 H40            1.9269     1.7038    -0.8972 H       
  41 H41            1.4019     3.1452     0.0056 H       
  42 H42           -0.7617     2.9629    -1.2077 H       
  43 H43            1.6623     0.3754     4.0076 H       
  44 H44            3.3392    -0.7757     5.6348 H       
  45 H45            5.7818    -2.4553     5.0524 H       
  46 H46            6.4874    -2.9427     0.8534 H       
  47 H47            4.5242    -1.5929     0.3403 H       
  48 H48            8.5610    -1.9922     4.2084 H       
  49 H49           10.5111    -3.3372     4.6872 H       
  50 H50           10.6940    -8.1584     3.4252 H       
  51 H51           11.9814    -5.0552     5.3389 H       
  52 H52           12.2957    -6.7988     5.1676 H       
@<TRIPOS>BOND
   1    1    2 1
   2    1    6 1
   3    1    7 1
   4    1   32 1
   5    2    3 1
   6    2   33 1
   7    2   34 1
   8    3    4 1
   9    3   35 1
  10    3   36 1
  11    4    5 1
  12    4    8 1
  13    4   37 1
  14    5    6 1
  15    5   38 1
  16    5   39 1
  17    6   40 1
  18    6   41 1
  19    7   42 1
  20    8    9 1
  21    8   16 1
  22    9   10 2
  23    9   43 1
  24   10   11 1
  25   10   44 1
  26   11   12 ar
  27   11   16 ar
  28   12   13 ar
  29   12   45 1
  30   13   14 ar
  31   13   19 1
  32   14   15 ar
  33   14   46 1
  34   15   16 ar
  35   15   47 1
  36   17   18 1
  37   17   22 1
  38   17   23 2
  39   18   19 2
  40   18   31 1
  41   19   20 1
  42   20   21 2
  43   20   48 1
  44   21   22 1
  45   21   49 1
  46   22   25 1
  47   23   24 1
  48   24   25 2
  49   24   50 1
  50   25   26 1
  51   26   27 1
  52   26   51 1
  53   26   52 1
  54   27   28 1
  55   27   29 1
  56   27   30 1

#	End of record

