#	Name: ASD03730167
#	Creating user name:	WinNT
#	Creation time:	15. 06. 2019 20:44

#	Modifying user name:	WinNT
#	Modification time:	15. 06. 2019 20:44

#	Program:	/corina/corina34_cracker 3.40 0067  02.08.2006

@<TRIPOS>MOLECULE
ASD03730167
  44   47    0    0    0
SMALL
NO_CHARGES


@<TRIPOS>ATOM
   1 O1            -0.0175     1.4360     0.0099 O.3     
   2 C2             0.0021    -0.0041     0.0020 C.3     
   3 C3             1.3458    -0.3164    -0.6706 C.3     
   4 C4             2.1588     0.9229    -0.4084 C.ar    
   5 C5             1.2618     1.9062     0.0002 C.ar    
   6 C6             1.7488     3.1682     0.3263 C.ar    
   7 C7             3.1005     3.4396     0.2350 C.ar    
   8 C8             3.9829     2.4559    -0.1817 C.ar    
   9 C9             3.5059     1.1971    -0.5022 C.ar    
  10 N10            2.1590    -2.4046    -1.1209 N.am    
  11 C11            1.9847    -1.5478    -0.0952 C.2     
  12 C12            1.1885    -0.5976    -2.1353 C.ar    
  13 C13            0.6785     0.1217    -3.1932 C.ar    
  14 C14            0.6729    -0.4246    -4.4643 C.ar    
  15 C15            1.1800    -1.6948    -4.6701 C.ar    
  16 C16            1.6911    -2.4196    -3.6137 C.ar    
  17 C17            1.7020    -1.8771    -2.3310 C.ar    
  18 O18            2.2850    -1.7345     1.0650 O.2     
  19 C19            2.7584    -3.7343    -0.9828 C.3     
  20 C20            1.6620    -4.7597    -0.6872 C.3     
  21 C21            2.2879    -6.1483    -0.5430 C.3     
  22 C22            1.1916    -7.1738    -0.2474 C.3     
  23 C23            1.8175    -8.5624    -0.1032 C.3     
  24 F24            3.5633     4.6685     0.5526 F       
  25 Cl25           5.6801     2.8011    -0.3007 Cl      
  26 H26           -0.0223    -0.3969     1.0185 H       
  27 H27           -0.8261    -0.3989    -0.5864 H       
  28 H28            1.0668     3.9396     0.6521 H       
  29 H29            4.1910     0.4277    -0.8264 H       
  30 H30            0.2830     1.1134    -3.0305 H       
  31 H31            0.2730     0.1395    -5.2939 H       
  32 H32            1.1754    -2.1212    -5.6624 H       
  33 H33            2.0846    -3.4112    -3.7819 H       
  34 H34            3.2659    -4.0020    -1.9096 H       
  35 H35            3.4778    -3.7253    -0.1640 H       
  36 H36            1.1544    -4.4920     0.2395 H       
  37 H37            0.9426    -4.7687    -1.5060 H       
  38 H38            2.7955    -6.4161    -1.4698 H       
  39 H39            3.0073    -6.1394     0.2758 H       
  40 H40            0.6840    -6.9060     0.6793 H       
  41 H41            0.4721    -7.1827    -1.0662 H       
  42 H42            1.0364    -9.2929     0.1074 H       
  43 H43            2.3251    -8.8301    -1.0300 H       
  44 H44            2.5369    -8.5534     0.7156 H       
@<TRIPOS>BOND
   1    1    2 1
   2    1    5 1
   3    2    3 1
   4    2   26 1
   5    2   27 1
   6    3    4 1
   7    3   11 1
   8    3   12 1
   9    4    5 ar
  10    4    9 ar
  11    5    6 ar
  12    6    7 ar
  13    6   28 1
  14    7    8 ar
  15    7   24 1
  16    8    9 ar
  17    8   25 1
  18    9   29 1
  19   10   11 am
  20   10   17 1
  21   10   19 1
  22   11   18 2
  23   12   13 ar
  24   12   17 ar
  25   13   14 ar
  26   13   30 1
  27   14   15 ar
  28   14   31 1
  29   15   16 ar
  30   15   32 1
  31   16   17 ar
  32   16   33 1
  33   19   20 1
  34   19   34 1
  35   19   35 1
  36   20   21 1
  37   20   36 1
  38   20   37 1
  39   21   22 1
  40   21   38 1
  41   21   39 1
  42   22   23 1
  43   22   40 1
  44   22   41 1
  45   23   42 1
  46   23   43 1
  47   23   44 1

#	End of record

