#	Name: ASD03090931
#	Creating user name:	WinNT
#	Creation time:	15. 06. 2019 20:29

#	Modifying user name:	WinNT
#	Modification time:	15. 06. 2019 20:29

#	Program:	/corina/corina34_cracker 3.40 0067  02.08.2006

@<TRIPOS>MOLECULE
ASD03090931
  45   48    0    0    0
SMALL
NO_CHARGES


@<TRIPOS>ATOM
   1 N1            -0.0175     1.3431    -0.0865 N.am    
   2 C2             0.0012    -0.0044    -0.0682 C.2     
   3 O3             1.0649    -0.5994    -0.0778 O.2     
   4 N4            -1.1464    -0.6880    -0.0396 N.2     
   5 C5             1.2408     2.0927    -0.1178 C.3     
   6 C6             1.2278     3.4645    -2.2176 C.ar    
   7 C7             1.6486     2.3302    -1.5491 C.ar    
   8 C8             2.4507     1.4141    -2.2116 C.ar    
   9 C9             2.8012     1.6743    -3.5279 C.ar    
  10 C10            2.3426     2.8298    -4.1310 C.ar    
  11 N11            1.5804     3.6791    -3.4699 N.ar    
  12 C12           -1.2961     2.0582    -0.0810 C.3     
  13 S13            0.2595    -3.0387    -0.0302 S.3     
  14 C14           -1.1280    -2.0187    -0.0216 C.2     
  15 N15           -2.1987    -2.8518     0.0077 N.pl3   
  16 C16           -1.9391    -4.1884     0.0222 C.2     
  17 C17           -0.6633    -4.5510     0.0063 C.2     
  18 C18           -0.1140    -5.9542     0.0173 C.3     
  19 O19           -7.4524    -1.1574     0.0453 O.3     
  20 C20           -8.0539    -2.4331     0.3354 C.3     
  21 O21           -7.0845    -3.3848    -0.1417 O.3     
  22 C22           -5.8790    -2.7494    -0.0608 C.ar    
  23 C23           -6.1048    -1.3793     0.0543 C.ar    
  24 C24           -4.5832    -3.2363    -0.0763 C.ar    
  25 C25           -3.5113    -2.3592     0.0230 C.ar    
  26 C26           -3.7393    -0.9949     0.1377 C.ar    
  27 C27           -5.0326    -0.5079     0.1538 C.ar    
  28 F28           -8.2518    -2.5814     1.7124 F       
  29 F29           -9.2627    -2.5748    -0.3544 F       
  30 H30            1.1060     3.0503     0.3852 H       
  31 H31            2.0170     1.5212     0.3910 H       
  32 H32            0.5990     4.1809    -1.7100 H       
  33 H33            2.7947     0.5192    -1.7145 H       
  34 H34            3.4251     0.9826    -4.0745 H       
  35 H35            2.6112     3.0397    -5.1558 H       
  36 H36           -1.6010     2.2496     0.9478 H       
  37 H37           -1.1851     3.0052    -0.6092 H       
  38 H38           -2.0536     1.4518    -0.5776 H       
  39 H39           -2.7344    -4.9188     0.0456 H       
  40 H40            0.9752    -5.9182    -0.0004 H       
  41 H41           -0.4460    -6.4672     0.9200 H       
  42 H42           -0.4741    -6.4923    -0.8596 H       
  43 H43           -4.4060    -4.2979    -0.1651 H       
  44 H44           -2.9052    -0.3132     0.2149 H       
  45 H45           -5.2076     0.5542     0.2426 H       
@<TRIPOS>BOND
   1    1    2 am
   2    1    5 1
   3    1   12 1
   4    2    3 2
   5    2    4 1
   6    4   14 2
   7    5    7 1
   8    5   30 1
   9    5   31 1
  10    6    7 ar
  11    6   11 ar
  12    6   32 1
  13    7    8 ar
  14    8    9 ar
  15    8   33 1
  16    9   10 ar
  17    9   34 1
  18   10   11 ar
  19   10   35 1
  20   12   36 1
  21   12   37 1
  22   12   38 1
  23   13   14 1
  24   13   17 1
  25   14   15 1
  26   15   16 1
  27   15   25 1
  28   16   17 2
  29   16   39 1
  30   17   18 1
  31   18   40 1
  32   18   41 1
  33   18   42 1
  34   19   20 1
  35   19   23 1
  36   20   21 1
  37   20   28 1
  38   20   29 1
  39   21   22 1
  40   22   23 ar
  41   22   24 ar
  42   23   27 ar
  43   24   25 ar
  44   24   43 1
  45   25   26 ar
  46   26   27 ar
  47   26   44 1
  48   27   45 1

#	End of record

