#	Name: ASD00122067
#	Creating user name:	WinNT
#	Creation time:	15. 06. 2019 18:31

#	Modifying user name:	WinNT
#	Modification time:	15. 06. 2019 18:31

#	Program:	/corina/corina34_cracker 3.40 0067  02.08.2006

@<TRIPOS>MOLECULE
ASD00122067
  35   38    0    0    0
SMALL
NO_CHARGES


@<TRIPOS>ATOM
   1 C1            -0.0168     1.3891     0.0097 C.ar    
   2 C2             0.0021    -0.0041     0.0020 C.ar    
   3 C3             1.1784    -0.6890    -0.0125 C.ar    
   4 C4             2.3935     0.0164    -0.0203 C.ar    
   5 C5             2.3742     1.4337    -0.0130 C.ar    
   6 C6             1.1405     2.1058     0.0025 C.ar    
   7 C7             3.6277    -0.6558    -0.0347 C.ar    
   8 C8             4.7846     0.0608    -0.0415 C.ar    
   9 C9             4.7657     1.4544    -0.0344 C.ar    
  10 C10            3.5898     2.1393    -0.0205 C.ar    
  11 C11            3.6697    -2.1622    -0.0420 C.3     
  12 S12            3.6709    -2.7574    -1.7514 S.3     
  13 C13            3.7220    -4.4960    -1.4699 C.ar    
  14 C14            3.7375    -5.3981    -2.5485 C.ar    
  15 C15            3.7784    -6.7733    -2.2657 C.ar    
  16 N16            3.8010    -7.1737    -0.9981 N.ar    
  17 C17            3.7853    -6.2908    -0.0125 C.ar    
  18 N18            3.7524    -4.9831    -0.2335 N.ar    
  19 N19            3.7221    -5.2679    -3.8977 N.2     
  20 C20            3.7504    -6.4469    -4.4470 C.2     
  21 N21            3.7857    -7.4098    -3.4810 N.pl3   
  22 N22            3.8098    -6.7476     1.2950 N.pl3   
  23 H23           -0.9639     1.9082     0.0170 H       
  24 H24           -0.9305    -0.5487     0.0080 H       
  25 H25            1.1776    -1.7690    -0.0176 H       
  26 H26            1.1105     3.1854     0.0078 H       
  27 H27            5.7317    -0.4582    -0.0522 H       
  28 H28            5.6983     1.9990    -0.0401 H       
  29 H29            3.5906     3.2192    -0.0155 H       
  30 H30            4.5742    -2.5029     0.4620 H       
  31 H31            2.7950    -2.5526     0.4780 H       
  32 H32            3.7464    -6.6355    -5.5104 H       
  33 H33            3.8117    -8.3684    -3.6267 H       
  34 H34            3.8380    -7.7003     1.4754 H       
  35 H35            3.7988    -6.1149     2.0301 H       
@<TRIPOS>BOND
   1    1    2 ar
   2    1    6 ar
   3    1   23 1
   4    2    3 ar
   5    2   24 1
   6    3    4 ar
   7    3   25 1
   8    4    5 ar
   9    4    7 ar
  10    5    6 ar
  11    5   10 ar
  12    6   26 1
  13    7    8 ar
  14    7   11 1
  15    8    9 ar
  16    8   27 1
  17    9   10 ar
  18    9   28 1
  19   10   29 1
  20   11   12 1
  21   11   30 1
  22   11   31 1
  23   12   13 1
  24   13   14 ar
  25   13   18 ar
  26   14   15 ar
  27   14   19 1
  28   15   16 ar
  29   15   21 1
  30   16   17 ar
  31   17   18 ar
  32   17   22 1
  33   19   20 2
  34   20   21 1
  35   20   32 1
  36   21   33 1
  37   22   34 1
  38   22   35 1

#	End of record

