#	Name: ASD03730023
#	Creating user name:	WinNT
#	Creation time:	15. 06. 2019 20:43

#	Modifying user name:	WinNT
#	Modification time:	15. 06. 2019 20:43

#	Program:	/corina/corina34_cracker 3.40 0067  02.08.2006

@<TRIPOS>MOLECULE
ASD03730023
  47   51    0    0    0
SMALL
NO_CHARGES


@<TRIPOS>ATOM
   1 O1            -0.0174     1.4356     0.0099 O.3     
   2 C2             0.0021    -0.0041     0.0020 C.3     
   3 O3             1.2456    -0.3263    -0.6482 O.3     
   4 C4             2.0710     0.7338    -0.4031 C.ar    
   5 C5             1.2937     1.8173    -0.0005 C.ar    
   6 C6             3.4456     0.8628    -0.4910 C.ar    
   7 C7             4.0611     2.0722    -0.1826 C.ar    
   8 C8             3.2733     3.1508     0.2082 C.ar    
   9 C9             1.9033     3.0231     0.3038 C.ar    
  10 O10            5.3844     2.4027    -0.1854 O.3     
  11 C11            4.2112     4.3054     0.4395 C.3     
  12 C12            5.5159     3.8370    -0.2193 C.3     
  13 N13            3.6183     6.4774     0.8342 N.am    
  14 C14            3.7035     5.5810    -0.1690 C.2     
  15 C15            4.3981     4.6068     1.8970 C.ar    
  16 C16            4.8343     3.8658     2.9744 C.ar    
  17 C17            4.8978     4.4417     4.2320 C.ar    
  18 C18            4.5233     5.7616     4.4045 C.ar    
  19 C19            4.0869     6.5080     3.3285 C.ar    
  20 C20            4.0195     5.9365     2.0589 C.ar    
  21 O21            3.4252     5.7681    -1.3346 O.2     
  22 C22            3.1594     7.8578     0.6609 C.3     
  23 C23            1.6437     7.9202     0.8597 C.3     
  24 C24            1.1645     9.3619     0.6786 C.3     
  25 C25           -0.3513     9.4243     0.8774 C.3     
  26 C26           -0.8305    10.8659     0.6963 C.3     
  27 Cl27           3.6199     8.1643     3.5573 Cl      
  28 Cl28           5.3038     2.2090     2.7545 Cl      
  29 H29           -0.0096    -0.3928     1.0203 H       
  30 H30           -0.8406    -0.3953    -0.5679 H       
  31 H31            4.0449     0.0194    -0.8006 H       
  32 H32            1.3043     3.8655     0.6168 H       
  33 H33            6.3803     4.1603     0.3607 H       
  34 H34            5.5814     4.1956    -1.2465 H       
  35 H35            5.2387     3.8611     5.0765 H       
  36 H36            4.5721     6.2104     5.3856 H       
  37 H37            3.6488     8.4982     1.3947 H       
  38 H38            3.4085     8.2000    -0.3436 H       
  39 H39            1.1543     7.2798     0.1259 H       
  40 H40            1.3946     7.5780     1.8641 H       
  41 H41            1.6538    10.0023     1.4124 H       
  42 H42            1.4136     9.7041    -0.3259 H       
  43 H43           -0.8406     8.7838     0.1436 H       
  44 H44           -0.6004     9.0820     1.8819 H       
  45 H45           -0.5814    11.2082    -0.3082 H       
  46 H46           -1.9103    10.9104     0.8380 H       
  47 H47           -0.3411    11.5064     1.4301 H       
@<TRIPOS>BOND
   1    1    2 1
   2    1    5 1
   3    2    3 1
   4    2   29 1
   5    2   30 1
   6    3    4 1
   7    4    5 ar
   8    4    6 ar
   9    5    9 ar
  10    6    7 ar
  11    6   31 1
  12    7    8 ar
  13    7   10 1
  14    8    9 ar
  15    8   11 1
  16    9   32 1
  17   10   12 1
  18   11   12 1
  19   11   14 1
  20   11   15 1
  21   12   33 1
  22   12   34 1
  23   13   14 am
  24   13   20 1
  25   13   22 1
  26   14   21 2
  27   15   16 ar
  28   15   20 ar
  29   16   17 ar
  30   16   28 1
  31   17   18 ar
  32   17   35 1
  33   18   19 ar
  34   18   36 1
  35   19   20 ar
  36   19   27 1
  37   22   23 1
  38   22   37 1
  39   22   38 1
  40   23   24 1
  41   23   39 1
  42   23   40 1
  43   24   25 1
  44   24   41 1
  45   24   42 1
  46   25   26 1
  47   25   43 1
  48   25   44 1
  49   26   45 1
  50   26   46 1
  51   26   47 1

#	End of record

