#	Name: ASD05790099
#	Creating user name:	WinNT
#	Creation time:	15. 06. 2019 21:03

#	Modifying user name:	WinNT
#	Modification time:	15. 06. 2019 21:03

#	Program:	/corina/corina34_cracker 3.40 0067  02.08.2006

@<TRIPOS>MOLECULE
ASD05790099
  99  105    0    0    0
SMALL
NO_CHARGES


@<TRIPOS>ATOM
   1 C1             2.1551    -0.2283    -0.3469 C.3     
   2 C2             2.5499    -1.6851    -0.5995 C.3     
   3 C3             3.2469    -1.7929    -1.9558 C.3     
   4 C4             4.5092    -0.9263    -1.9602 C.3     
   5 C5             4.1175     0.5378    -1.6957 C.3     
   6 C6             3.4129     0.6422    -0.3444 C.3     
   7 C7             5.1977    -1.0654    -3.3187 C.3     
   8 C8             4.3042    -0.5260    -4.4487 C.3     
   9 C9             4.0089     0.9290    -4.1372 C.3     
  10 C10            3.1964     0.9643    -2.8162 C.3     
  11 C11            3.0511     1.6389    -5.1007 C.3     
  12 C12            2.4333     2.7564    -4.2646 C.2     
  13 C13            2.6730     2.3934    -2.7940 C.3     
  14 C14            3.8351     2.2031    -6.2700 C.3     
  15 C15            2.9931     2.8883    -7.2929 C.3     
  16 C16            2.5771     4.2984    -6.9524 C.3     
  17 C17            1.4106     4.3359    -5.9806 C.3     
  18 C18            1.7815     3.7711    -4.6572 C.2     
  19 C19            2.1467     5.0201    -8.2652 C.3     
  20 C20            2.7422     6.4194    -8.0452 C.3     
  21 C21            4.0723     6.0121    -7.3511 C.3     
  22 O22            3.6963     5.0331    -6.4090 O.3     
  23 N23            3.1367     7.1342    -9.2542 N.am    
  24 C24            3.9459     8.3522    -9.0420 C.3     
  25 C25            5.1645     8.0546    -8.1708 C.3     
  26 C26            4.7715     7.2714    -6.9057 C.3     
  27 C27            5.3732     1.4120    -1.6888 C.3     
  28 C28            1.2597     4.5990    -3.5112 C.3     
  29 C29            5.8202     9.3743    -7.7592 C.3     
  30 C30            2.7645     4.3458    -9.4918 C.3     
  31 N31            1.3490    -2.5243    -0.5989 N.am    
  32 S32            0.8847    -3.3043     0.7860 S.o2    
  33 O33           -0.2797    -4.0260     0.4082 O.2     
  34 O34            2.0577    -3.9803     1.2176 O.2     
  35 C35            0.4599    -1.9683     1.9373 C.3     
  36 C36            4.0941     9.1444   -15.5188 C.ar    
  37 C37            5.2752     8.5679   -15.9470 C.ar    
  38 C38            5.7146     7.3876   -15.3774 C.ar    
  39 C39            4.9728     6.7837   -14.3794 C.ar    
  40 C40            3.7916     7.3601   -13.9511 C.ar    
  41 C41            3.3522     8.5405   -14.5208 C.ar    
  42 C42            2.9829     6.7017   -12.8632 C.3     
  43 O43            3.4130     7.2026   -11.5700 O.3     
  44 C44            2.7856     6.7112   -10.4848 C.2     
  45 O45            1.9028     5.8864   -10.6148 O.2     
  46 H46            1.4812     0.1080    -1.1349 H       
  47 H47            1.6555    -0.1488     0.6186 H       
  48 H48            3.2281    -2.0195     0.1855 H       
  49 H49            3.5198    -2.8317    -2.1414 H       
  50 H50            2.5702    -1.4515    -2.7391 H       
  51 H51            5.1860    -1.2677    -1.1769 H       
  52 H52            3.1349     1.6800    -0.1601 H       
  53 H53            4.0865     0.3034     0.4426 H       
  54 H54            6.1333    -0.5064    -3.3046 H       
  55 H55            5.4134    -2.1176    -3.5045 H       
  56 H56            4.8263    -0.6023    -5.4024 H       
  57 H57            3.3739    -1.0927    -4.4880 H       
  58 H58            4.9377     1.4887    -4.0279 H       
  59 H59            2.3565     0.2728    -2.8839 H       
  60 H60            2.2790     0.9508    -5.4449 H       
  61 H61            1.7389     2.4454    -2.2346 H       
  62 H62            3.4148     3.0610    -2.3558 H       
  63 H63            4.5647     2.9165    -5.8867 H       
  64 H64            4.3730     1.3874    -6.7531 H       
  65 H65            3.5470     2.9124    -8.2313 H       
  66 H66            2.0925     2.2942    -7.4481 H       
  67 H67            1.0902     5.3694    -5.8491 H       
  68 H68            0.5839     3.7585    -6.3946 H       
  69 H69            1.0609     5.0645    -8.3504 H       
  70 H70            2.1126     7.0257    -7.3940 H       
  71 H71            4.7047     5.5352    -8.0999 H       
  72 H72            4.2801     8.7327   -10.0072 H       
  73 H73            3.3324     9.1089    -8.5529 H       
  74 H74            5.8795     7.4667    -8.7465 H       
  75 H75            4.0987     7.8715    -6.2930 H       
  76 H76            5.6649     7.0169    -6.3354 H       
  77 H77            5.9473     1.2304    -2.5974 H       
  78 H78            5.0845     2.4621    -1.6451 H       
  79 H79            5.9822     1.1661    -0.8189 H       
  80 H80            0.7092     5.4547    -3.9022 H       
  81 H81            0.5967     3.9908    -2.8959 H       
  82 H82            2.0958     4.9504    -2.9066 H       
  83 H83            5.1054     9.9752    -7.1969 H       
  84 H84            6.6911     9.1687    -7.1369 H       
  85 H85            6.1310     9.9191    -8.6506 H       
  86 H86            3.0845     3.3374    -9.2295 H       
  87 H87            2.0244     4.2960   -10.2904 H       
  88 H88            3.6249     4.9237    -9.8293 H       
  89 H89            0.8259    -2.6229    -1.4098 H       
  90 H90           -0.3482    -1.3697     1.5169 H       
  91 H91            0.1392    -2.3956     2.8874 H       
  92 H92            1.3335    -1.3369     2.0993 H       
  93 H93            3.7530    10.0689   -15.9608 H       
  94 H94            5.8546     9.0396   -16.7270 H       
  95 H95            6.6371     6.9368   -15.7125 H       
  96 H96            5.3157     5.8611   -13.9348 H       
  97 H97            2.4296     8.9910   -14.1860 H       
  98 H98            1.9266     6.9286   -13.0078 H       
  99 H99            3.1314     5.6226   -12.9026 H       
@<TRIPOS>BOND
   1    1    2 1
   2    1    6 1
   3    1   46 1
   4    1   47 1
   5    2    3 1
   6    2   31 1
   7    2   48 1
   8    3    4 1
   9    3   49 1
  10    3   50 1
  11    4    5 1
  12    4    7 1
  13    4   51 1
  14    5    6 1
  15    5   27 1
  16    5   10 1
  17    6   52 1
  18    6   53 1
  19    7    8 1
  20    7   54 1
  21    7   55 1
  22    8    9 1
  23    8   56 1
  24    8   57 1
  25    9   10 1
  26    9   11 1
  27    9   58 1
  28   10   13 1
  29   10   59 1
  30   11   12 1
  31   11   14 1
  32   11   60 1
  33   12   13 1
  34   12   18 2
  35   13   61 1
  36   13   62 1
  37   14   15 1
  38   14   63 1
  39   14   64 1
  40   15   16 1
  41   15   65 1
  42   15   66 1
  43   16   17 1
  44   16   22 1
  45   16   19 1
  46   17   18 1
  47   17   67 1
  48   17   68 1
  49   18   28 1
  50   19   30 1
  51   19   20 1
  52   19   69 1
  53   20   21 1
  54   20   23 1
  55   20   70 1
  56   21   22 1
  57   21   26 1
  58   21   71 1
  59   23   24 1
  60   23   44 am
  61   24   25 1
  62   24   72 1
  63   24   73 1
  64   25   26 1
  65   25   29 1
  66   25   74 1
  67   26   75 1
  68   26   76 1
  69   27   77 1
  70   27   78 1
  71   27   79 1
  72   28   80 1
  73   28   81 1
  74   28   82 1
  75   29   83 1
  76   29   84 1
  77   29   85 1
  78   30   86 1
  79   30   87 1
  80   30   88 1
  81   31   32 am
  82   31   89 1
  83   32   33 2
  84   32   34 2
  85   32   35 1
  86   35   90 1
  87   35   91 1
  88   35   92 1
  89   36   37 ar
  90   36   41 ar
  91   36   93 1
  92   37   38 ar
  93   37   94 1
  94   38   39 ar
  95   38   95 1
  96   39   40 ar
  97   39   96 1
  98   40   41 ar
  99   40   42 1
 100   41   97 1
 101   42   43 1
 102   42   98 1
 103   42   99 1
 104   43   44 1
 105   44   45 2

#	End of record

