#	Name: ASD09116478
#	Creating user name:	WinNT
#	Creation time:	15. 06. 2019 21:21

#	Modifying user name:	WinNT
#	Modification time:	15. 06. 2019 21:21

#	Program:	/corina/corina34_cracker 3.40 0067  02.08.2006

@<TRIPOS>MOLECULE
ASD09116478
  81   87    0    0    0
SMALL
NO_CHARGES


@<TRIPOS>ATOM
   1 N1             1.0505     0.0367    -1.1080 N.2     
   2 N2             1.2857    -1.2331    -1.6593 N.pl3   
   3 C3             2.2181     0.6196    -0.9774 C.2     
   4 N4             3.1717    -0.2112    -1.4148 N.2     
   5 C5             2.6250    -1.3339    -1.8297 C.2     
   6 N6             3.2988    -2.4232    -2.3484 N.pl3   
   7 C7             0.3281    -2.2003    -1.9701 C.ar    
   8 N8             2.4316     1.8996    -0.4655 N.pl3   
   9 C9             3.7331     2.3669    -0.2749 C.ar    
  10 C10            4.0128     3.7210    -0.4231 C.ar    
  11 C11            4.7462     1.4783     0.0684 C.ar    
  12 C12            6.0318     1.9367     0.2573 C.ar    
  13 C13            6.3168     3.2947     0.1036 C.ar    
  14 C14            5.2966     4.1852    -0.2360 C.ar    
  15 N15            0.5821    -3.1092    -2.8996 N.ar    
  16 N16           -0.2683    -4.0149    -3.2299 N.ar    
  17 C17           -1.4582    -4.0915    -2.6559 C.ar    
  18 C18           -1.8064    -3.1870    -1.6487 C.ar    
  19 C19           -0.8960    -2.2131    -1.2966 C.ar    
  20 C20           -2.4603    -5.0999    -3.0722 C.ar    
  21 C21           -3.7626    -4.6818    -3.3505 C.ar    
  22 C22           -4.0994    -3.2178    -3.2752 C.3     
  23 C23           -4.2552    -2.7558    -1.8289 C.3     
  24 C24           -3.1332    -3.3154    -0.9585 C.3     
  25 C25           -2.1225    -6.4441    -3.1835 C.ar    
  26 C26           -3.0860    -7.3630    -3.5518 C.ar    
  27 C27           -4.3805    -6.9476    -3.8060 C.ar    
  28 C28           -4.7187    -5.6091    -3.7050 C.ar    
  29 C29            7.6943     3.7895     0.3058 C.2     
  30 C30            7.9636     5.0797     0.1595 C.2     
  31 C31            9.3685     5.5844     0.3657 C.3     
  32 N32            9.8065     6.3160    -0.8304 N.3     
  33 C33           11.0710     7.0224    -0.5821 C.3     
  34 C34           11.5329     7.7049    -1.8718 C.3     
  35 N35           10.4931     8.6373    -2.3290 N.3     
  36 C36            9.2286     7.9310    -2.5773 C.3     
  37 C37            8.7667     7.2485    -1.2876 C.3     
  38 C38           10.9311     9.3690    -3.5251 C.3     
  39 C39            9.8394    10.3596    -3.9663 C.3     
  40 C40           10.4668    11.7672    -3.8953 C.3     
  41 C41           11.9894    11.5110    -4.0179 C.3     
  42 C42           12.1838    10.2092    -3.2014 C.3     
  43 H43            4.2649    -2.4008    -2.4325 H       
  44 H44            2.8057    -3.2102    -2.6283 H       
  45 H45            1.6757     2.4648    -0.2420 H       
  46 H46            3.2231     4.4094    -0.6855 H       
  47 H47            4.5250     0.4279     0.1875 H       
  48 H48            6.8181     1.2461     0.5242 H       
  49 H49            5.5142     5.2363    -0.3560 H       
  50 H50           -1.1237    -1.4826    -0.5345 H       
  51 H51           -3.3029    -2.6439    -3.7490 H       
  52 H52           -5.0326    -3.0386    -3.8093 H       
  53 H53           -4.2266    -1.6668    -1.7950 H       
  54 H54           -5.2146    -3.1010    -1.4434 H       
  55 H55           -3.3298    -4.3676    -0.7528 H       
  56 H56           -3.1021    -2.7667    -0.0172 H       
  57 H57           -1.1118    -6.7681    -2.9833 H       
  58 H58           -2.8279    -8.4078    -3.6417 H       
  59 H59           -5.1317    -7.6716    -4.0852 H       
  60 H60           -5.7317    -5.2916    -3.9037 H       
  61 H61            8.4818     3.1003     0.5728 H       
  62 H62            7.1760     5.7689    -0.1075 H       
  63 H63            9.3924     6.2505     1.2281 H       
  64 H64           10.0358     4.7403     0.5400 H       
  65 H65           10.9217     7.7736     0.1935 H       
  66 H66           11.8283     6.3091    -0.2568 H       
  67 H67           12.4556     8.2535    -1.6826 H       
  68 H68           11.7084     6.9511    -2.6393 H       
  69 H69            8.4713     8.6443    -2.9026 H       
  70 H70            9.3779     7.1798    -3.3529 H       
  71 H71            7.8440     6.6999    -1.4768 H       
  72 H72            8.5912     8.0022    -0.5201 H       
  73 H73           11.1483     8.6691    -4.3319 H       
  74 H74            9.5274    10.1409    -4.9875 H       
  75 H75            8.9846    10.2974    -3.2929 H       
  76 H76           10.1158    12.3834    -4.7230 H       
  77 H77           10.2351    12.2404    -2.9411 H       
  78 H78           12.2731    11.3598    -5.0594 H       
  79 H79           12.5558    12.3315    -3.5773 H       
  80 H80           12.2294    10.4308    -2.1352 H       
  81 H81           13.0859     9.6885    -3.5227 H       
@<TRIPOS>BOND
   1    1    2 1
   2    1    3 2
   3    2    7 1
   4    2    5 1
   5    3    4 1
   6    3    8 1
   7    4    5 2
   8    5    6 1
   9    6   43 1
  10    6   44 1
  11    7   15 ar
  12    7   19 ar
  13    8    9 1
  14    8   45 1
  15    9   10 ar
  16    9   11 ar
  17   10   14 ar
  18   10   46 1
  19   11   12 ar
  20   11   47 1
  21   12   13 ar
  22   12   48 1
  23   13   14 ar
  24   13   29 1
  25   14   49 1
  26   15   16 ar
  27   16   17 ar
  28   17   18 ar
  29   17   20 1
  30   18   19 ar
  31   18   24 1
  32   19   50 1
  33   20   21 ar
  34   20   25 ar
  35   21   22 1
  36   21   28 ar
  37   22   23 1
  38   22   51 1
  39   22   52 1
  40   23   24 1
  41   23   53 1
  42   23   54 1
  43   24   55 1
  44   24   56 1
  45   25   26 ar
  46   25   57 1
  47   26   27 ar
  48   26   58 1
  49   27   28 ar
  50   27   59 1
  51   28   60 1
  52   29   30 2
  53   29   61 1
  54   30   31 1
  55   30   62 1
  56   31   32 1
  57   31   63 1
  58   31   64 1
  59   32   33 1
  60   32   37 1
  61   33   34 1
  62   33   65 1
  63   33   66 1
  64   34   35 1
  65   34   67 1
  66   34   68 1
  67   35   36 1
  68   35   38 1
  69   36   37 1
  70   36   69 1
  71   36   70 1
  72   37   71 1
  73   37   72 1
  74   38   39 1
  75   38   42 1
  76   38   73 1
  77   39   40 1
  78   39   74 1
  79   39   75 1
  80   40   41 1
  81   40   76 1
  82   40   77 1
  83   41   42 1
  84   41   78 1
  85   41   79 1
  86   42   80 1
  87   42   81 1

#	End of record

