#	Name: ASD03570022
#	Creating user name:	WinNT
#	Creation time:	15. 06. 2019 20:43

#	Modifying user name:	WinNT
#	Modification time:	15. 06. 2019 20:43

#	Program:	/corina/corina34_cracker 3.40 0067  02.08.2006

@<TRIPOS>MOLECULE
ASD03570022
  39   41    0    0    0
SMALL
NO_CHARGES


@<TRIPOS>ATOM
   1 C1            -0.0168     1.3848     0.0097 C.ar    
   2 C2             0.0021    -0.0041     0.0020 C.ar    
   3 C3             1.1961    -0.6899    -0.0130 C.ar    
   4 C4             2.3976     0.0127    -0.0207 C.ar    
   5 C5             2.3759     1.4216    -0.0130 C.ar    
   6 C6             1.1481     2.0958     0.0024 C.ar    
   7 N7             3.7156    -0.3779    -0.0358 N.pl3   
   8 C8             4.5141     0.7500    -0.0377 C.2     
   9 C9             3.7232     1.8556    -0.0239 C.2     
  10 C10            4.1960     3.2865    -0.0214 C.3     
  11 C11            4.3419     3.7780    -1.4629 C.3     
  12 C12           -1.2970    -0.7679     0.0108 C.3     
  13 C13           -1.8620    -0.8242     1.4434 C.3     
  14 C14           -3.2564    -0.1617     1.3275 C.3     
  15 C15           -3.5559    -0.2980    -0.1871 C.3     
  16 O16           -2.2676    -0.0908    -0.8051 O.3     
  17 C17            4.8147     5.2089    -1.4604 C.2     
  18 O18            5.0144     5.7773    -0.4131 O.2     
  19 O19            5.0139     5.8520    -2.6216 O.3     
  20 C20            5.9830     0.7536    -0.0522 C.2     
  21 O21            6.5882     1.8080    -0.0520 O.2     
  22 O22            6.6600    -0.4125    -0.0656 O.3     
  23 H23           -0.9621     1.9069     0.0169 H       
  24 H24            1.2003    -1.7699    -0.0185 H       
  25 H25            1.1233     3.1755     0.0080 H       
  26 H26            4.0329    -1.2945    -0.0436 H       
  27 H27            3.4700     3.9081     0.5027 H       
  28 H28            5.1600     3.3498     0.4834 H       
  29 H29            5.0679     3.1564    -1.9870 H       
  30 H30            3.3779     3.7148    -1.9677 H       
  31 H31           -1.1350    -1.7786    -0.3637 H       
  32 H32           -1.9572    -1.8580     1.7756 H       
  33 H33           -1.2271    -0.2599     2.1264 H       
  34 H34           -3.9944    -0.7024     1.9201 H       
  35 H35           -3.2148     0.8866     1.6230 H       
  36 H36           -3.9353    -1.2941    -0.4152 H       
  37 H37           -4.2633     0.4663    -0.5088 H       
  38 H38            5.3173     6.7687    -2.5694 H       
  39 H39            7.6255    -0.3594    -0.0748 H       
@<TRIPOS>BOND
   1    1    2 ar
   2    1    6 ar
   3    1   23 1
   4    2    3 ar
   5    2   12 1
   6    3    4 ar
   7    3   24 1
   8    4    5 ar
   9    4    7 1
  10    5    6 ar
  11    5    9 1
  12    6   25 1
  13    7    8 1
  14    7   26 1
  15    8    9 2
  16    8   20 1
  17    9   10 1
  18   10   11 1
  19   10   27 1
  20   10   28 1
  21   11   17 1
  22   11   29 1
  23   11   30 1
  24   12   13 1
  25   12   16 1
  26   12   31 1
  27   13   14 1
  28   13   32 1
  29   13   33 1
  30   14   15 1
  31   14   34 1
  32   14   35 1
  33   15   16 1
  34   15   36 1
  35   15   37 1
  36   17   18 2
  37   17   19 1
  38   19   38 1
  39   20   21 2
  40   20   22 1
  41   22   39 1

#	End of record

