#	Name: ASD03520005
#	Creating user name:	WinNT
#	Creation time:	15. 06. 2019 20:42

#	Modifying user name:	WinNT
#	Modification time:	15. 06. 2019 20:42

#	Program:	/corina/corina34_cracker 3.40 0067  02.08.2006

@<TRIPOS>MOLECULE
ASD03520005
  52   55    0    0    0
SMALL
NO_CHARGES


@<TRIPOS>ATOM
   1 C1             0.1039     1.2118    -0.2711 C.2     
   2 C2             1.3402     2.0644    -0.3950 C.3     
   3 C3             1.3510     3.1489     0.6969 C.3     
   4 C4             0.0280     3.8839     0.6244 C.3     
   5 C5            -1.0844     2.8845     1.0437 C.3     
   6 C6            -1.2509     1.8826    -0.0940 C.3     
   7 C7             2.5983     1.2092    -0.2407 C.3     
   8 C8             3.8012     2.1072    -0.2987 C.2     
   9 C9             3.8388     3.3171     0.6157 C.3     
  10 C10            2.5263     4.0936     0.4534 C.3     
  11 C11            2.6194     0.1080    -1.2436 C.2     
  12 C12            3.6228    -0.1185    -2.0766 C.2     
  13 C13            4.8088     0.7542    -2.0494 C.2     
  14 C14            4.8199     1.8944    -1.1203 C.2     
  15 C15           -0.1551     5.0068     1.6535 C.3     
  16 C16           -1.6977     5.1457     1.7515 C.3     
  17 C17           -2.2885     3.7859     1.3064 C.3     
  18 C18           -3.1449     3.2058     2.4024 C.2     
  19 O19           -3.0553     3.9474     0.1115 O.3     
  20 O20           -2.9496     3.5203     3.5518 O.2     
  21 C21           -4.2450     2.2330     2.0639 C.3     
  22 O22           -4.9089     1.8287     3.2629 O.3     
  23 C23           -0.6755     2.1580     2.3266 C.3     
  24 O24            0.1867     0.0080    -0.3169 O.2     
  25 C25            2.5595     0.5629     1.1455 C.3     
  26 O26            5.7582     0.5366    -2.7788 O.2     
  27 H27            1.3540     2.5397    -1.3758 H       
  28 H28            1.4539     2.6797     1.6753 H       
  29 H29           -0.1484     4.2481    -0.3877 H       
  30 H30           -1.5406     2.4002    -1.0085 H       
  31 H31           -2.0027     1.1388     0.1700 H       
  32 H32            3.9454     2.9908     1.6503 H       
  33 H33            4.6784     3.9563     0.3425 H       
  34 H34            2.4651     4.4982    -0.5569 H       
  35 H35            2.4939     4.9091     1.1758 H       
  36 H36            1.7623    -0.5471    -1.2939 H       
  37 H37            3.5720    -0.9414    -2.7742 H       
  38 H38            5.6663     2.5650    -1.1072 H       
  39 H39            0.2676     4.7197     2.6163 H       
  40 H40            0.2931     5.9338     1.2959 H       
  41 H41           -1.9892     5.3617     2.7793 H       
  42 H42           -2.0447     5.9389     1.0893 H       
  43 H43           -3.8341     4.5109     0.2170 H       
  44 H44           -4.9609     2.7122     1.3960 H       
  45 H45           -3.8184     1.3587     1.5723 H       
  46 H46           -5.6306     1.2010     3.1204 H       
  47 H47           -0.4206     2.8899     3.0931 H       
  48 H48           -1.5040     1.5411     2.6746 H       
  49 H49            0.1893     1.5256     2.1262 H       
  50 H50            1.6679    -0.0582     1.2319 H       
  51 H51            3.4471    -0.0546     1.2835 H       
  52 H52            2.5358     1.3408     1.9086 H       
@<TRIPOS>BOND
   1    1   24 2
   2    1    2 1
   3    1    6 1
   4    2    3 1
   5    2    7 1
   6    2   27 1
   7    3    4 1
   8    3   10 1
   9    3   28 1
  10    4    5 1
  11    4   15 1
  12    4   29 1
  13    5    6 1
  14    5   17 1
  15    5   23 1
  16    6   30 1
  17    6   31 1
  18    7    8 1
  19    7   11 1
  20    7   25 1
  21    8    9 1
  22    8   14 2
  23    9   10 1
  24    9   32 1
  25    9   33 1
  26   10   34 1
  27   10   35 1
  28   11   12 2
  29   11   36 1
  30   12   13 1
  31   12   37 1
  32   13   14 1
  33   13   26 2
  34   14   38 1
  35   15   16 1
  36   15   39 1
  37   15   40 1
  38   16   17 1
  39   16   41 1
  40   16   42 1
  41   17   18 1
  42   17   19 1
  43   18   20 2
  44   18   21 1
  45   19   43 1
  46   21   22 1
  47   21   44 1
  48   21   45 1
  49   22   46 1
  50   23   47 1
  51   23   48 1
  52   23   49 1
  53   25   50 1
  54   25   51 1
  55   25   52 1

#	End of record

