#	Name: ASD01140345
#	Creating user name:	WinNT
#	Creation time:	15. 06. 2019 19:00

#	Modifying user name:	WinNT
#	Modification time:	15. 06. 2019 19:00

#	Program:	/corina/corina34_cracker 3.40 0067  02.08.2006

@<TRIPOS>MOLECULE
ASD01140345
  57   60    0    0    0
SMALL
NO_CHARGES


@<TRIPOS>ATOM
   1 C1             2.6195     0.0814     3.5185 C.ar    
   2 C2             3.0189    -1.2551     3.5993 C.ar    
   3 C3             4.2280    -1.6527     3.0423 C.ar    
   4 C4             5.0529    -0.7217     2.3979 C.ar    
   5 C5             4.6289     0.6063     2.3045 C.ar    
   6 C6             3.4212     0.9976     2.8760 C.ar    
   7 C7             6.3425    -1.1928     1.8797 C.2     
   8 N8             6.9058    -0.8827     0.7649 N.2     
   9 C9             6.2681     0.0237    -0.1970 C.3     
  10 C10            6.0839     1.3563     0.4817 C.2     
  11 N11            5.3717     1.5700     1.6167 N.pl3   
  12 C12            5.4915     2.8878     1.9337 C.2     
  13 C13            6.5901     2.5575     0.0931 C.2     
  14 N14            6.2078     3.4772     1.0186 N.2     
  15 C15            7.0850    -2.1384     2.7435 C.ar    
  16 C16            7.5812    -1.7178     3.9803 C.ar    
  17 C17            7.2875    -3.4548     2.3292 C.ar    
  18 C18            7.9803    -4.3313     3.1384 C.ar    
  19 C19            8.4743    -3.9086     4.3600 C.ar    
  20 C20            8.2737    -2.6070     4.7812 C.ar    
  21 C21            2.1829    -2.2144     4.2563 C.1     
  22 C22            1.4975    -3.0008     4.7949 C.1     
  23 F23            7.3853    -0.4461     4.3920 F       
  24 C24            7.4021     2.8146    -1.1089 C.2     
  25 O25            7.7570     1.8882    -1.8126 O.2     
  26 N26            7.7517     4.0763    -1.4288 N.am    
  27 C27            8.6480     4.3233    -2.5610 C.3     
  28 C28            7.2353     5.2007    -0.6444 C.3     
  29 Si29           0.3882    -4.2735     5.6665 Si      
  30 C30            1.1982    -5.9500     5.6031 C.3     
  31 C31            0.1422    -3.7694     7.4431 C.3     
  32 C32           -1.2635    -4.3489     4.8080 C.3     
  33 H33            1.6823     0.3938     3.9550 H       
  34 H34            4.5341    -2.6863     3.1068 H       
  35 H35            3.1102     2.0300     2.8146 H       
  36 H36            6.9057     0.1404    -1.0733 H       
  37 H37            5.2989    -0.3763    -0.4950 H       
  38 H38            5.0628     3.3668     2.8015 H       
  39 H39            6.9024    -3.7873     1.3765 H       
  40 H40            8.1372    -5.3506     2.8178 H       
  41 H41            9.0155    -4.5998     4.9891 H       
  42 H42            8.6618    -2.2834     5.7357 H       
  43 H43            8.9255     3.3738    -3.0186 H       
  44 H44            8.1403     4.9467    -3.2970 H       
  45 H45            9.5450     4.8333    -2.2097 H       
  46 H46            7.6253     5.1442     0.3718 H       
  47 H47            7.5499     6.1383    -1.1027 H       
  48 H48            6.1465     5.1562    -0.6188 H       
  49 H49            2.1646    -5.9058     6.1054 H       
  50 H50            0.5618    -6.6801     6.1031 H       
  51 H51            1.3421    -6.2449     4.5637 H       
  52 H52           -0.3317    -2.7885     7.4802 H       
  53 H53           -0.4941    -4.4995     7.9431 H       
  54 H54            1.1086    -3.7253     7.9454 H       
  55 H55           -1.1196    -4.6438     3.7686 H       
  56 H56           -1.8999    -5.0790     5.3081 H       
  57 H57           -1.7374    -3.3680     4.8451 H       
@<TRIPOS>BOND
   1    1    2 ar
   2    1    6 ar
   3    1   33 1
   4    2    3 ar
   5    2   21 1
   6    3    4 ar
   7    3   34 1
   8    4    5 ar
   9    4    7 1
  10    5    6 ar
  11    5   11 1
  12    6   35 1
  13    7    8 2
  14    7   15 1
  15    8    9 1
  16    9   10 1
  17    9   36 1
  18    9   37 1
  19   10   11 1
  20   10   13 2
  21   11   12 1
  22   12   14 2
  23   12   38 1
  24   13   14 1
  25   13   24 1
  26   15   16 ar
  27   15   17 ar
  28   16   23 1
  29   16   20 ar
  30   17   18 ar
  31   17   39 1
  32   18   19 ar
  33   18   40 1
  34   19   20 ar
  35   19   41 1
  36   20   42 1
  37   21   22 3
  38   22   29 1
  39   24   25 2
  40   24   26 am
  41   26   27 1
  42   26   28 1
  43   27   43 1
  44   27   44 1
  45   27   45 1
  46   28   46 1
  47   28   47 1
  48   28   48 1
  49   29   30 1
  50   29   31 1
  51   29   32 1
  52   30   49 1
  53   30   50 1
  54   30   51 1
  55   31   52 1
  56   31   53 1
  57   31   54 1
  58   32   55 1
  59   32   56 1
  60   32   57 1

#	End of record

