#	Name: ASD01150239
#	Creating user name:	WinNT
#	Creation time:	15. 06. 2019 19:03

#	Modifying user name:	WinNT
#	Modification time:	15. 06. 2019 19:03

#	Program:	/corina/corina34_cracker 3.40 0067  02.08.2006

@<TRIPOS>MOLECULE
ASD01150239
  68   72    0    0    0
SMALL
NO_CHARGES


@<TRIPOS>ATOM
   1 C1             0.2793     0.8837     0.1581 C.ar    
   2 C2             0.1660    -0.5035     0.3025 C.ar    
   3 C3            -1.0526    -1.1024     0.3718 C.ar    
   4 C4            -2.2228    -0.3259     0.2982 C.ar    
   5 C5            -2.1133     1.0785     0.1520 C.ar    
   6 C6            -0.8485     1.6748     0.0885 C.ar    
   7 N7            -3.4301    -0.8978     0.3640 N.ar    
   8 C8            -4.5337    -0.1926     0.2970 C.ar    
   9 C9            -4.5146     1.1897     0.1532 C.ar    
  10 C10           -3.2981     1.8550     0.0785 C.ar    
  11 N11            1.5437     1.4722     0.0896 N.3     
  12 C12           -3.2396     3.3265    -0.0749 C.ar    
  13 C13           -5.8066     1.9620     0.0799 C.3     
  14 C14           -6.4348     1.7748    -1.3026 C.3     
  15 O15           -6.7062     1.4816     1.0809 O.3     
  16 C16           -5.8611    -0.9015     0.3777 C.3     
  17 C17           -2.6974     4.1150     0.9404 C.ar    
  18 C18           -2.6447     5.4852     0.7925 C.ar    
  19 C19           -3.1297     6.0791    -0.3620 C.ar    
  20 C20           -3.6693     5.3002    -1.3734 C.ar    
  21 C21           -3.7213     3.9287    -1.2375 C.ar    
  22 F22           -3.0767     7.4218    -0.5018 F       
  23 C23            2.6019     0.4589     0.1884 C.3     
  24 C24            3.9645     1.1187    -0.0356 C.3     
  25 C25            4.1770     2.2098     1.0174 C.3     
  26 C26            3.0355     3.2263     0.9253 C.3     
  27 C27            1.6999     2.5053     1.1214 C.3     
  28 C28           -7.6636     2.3431     1.5147 C.ar    
  29 C29           -8.4957     1.9853     2.5655 C.ar    
  30 C30           -9.4681     2.8627     3.0046 C.ar    
  31 C31           -9.6125     4.0967     2.3977 C.ar    
  32 C32           -8.7848     4.4554     1.3499 C.ar    
  33 C33           -7.8067     3.5840     0.9112 C.ar    
  34 S34          -10.8538     5.2136     2.9601 S.o2    
  35 C35          -10.0312     6.1949     4.2450 C.3     
  36 O36          -11.1411     6.0188     1.8250 O.2     
  37 O37          -11.8469     4.3742     3.5331 O.2     
  38 H38            1.0597    -1.1073     0.3595 H       
  39 H39           -1.1220    -2.1744     0.4830 H       
  40 H40           -0.7565     2.7451    -0.0230 H       
  41 H41           -5.6074     3.0203     0.2482 H       
  42 H42           -7.4140     2.2533    -1.3245 H       
  43 H43           -5.7923     2.2273    -2.0579 H       
  44 H44           -6.5458     0.7106    -1.5102 H       
  45 H45           -6.1405    -1.0316     1.4233 H       
  46 H46           -6.6213    -0.3084    -0.1305 H       
  47 H47           -5.7815    -1.8774    -0.1011 H       
  48 H48           -2.3199     3.6532     1.8407 H       
  49 H49           -2.2252     6.0964     1.5779 H       
  50 H50           -4.0463     5.7677    -2.2710 H       
  51 H51           -4.1416     3.3225    -2.0264 H       
  52 H52            2.5773     0.0034     1.1784 H       
  53 H53            2.4414    -0.3089    -0.5685 H       
  54 H54            4.7508     0.3691     0.0533 H       
  55 H55            3.9947     1.5624    -1.0307 H       
  56 H56            4.1856     1.7608     2.0106 H       
  57 H57            5.1272     2.7117     0.8353 H       
  58 H58            3.1582     3.9825     1.7007 H       
  59 H59            3.0512     3.7032    -0.0547 H       
  60 H60            0.8842     3.2240     1.0422 H       
  61 H61            1.6795     2.0403     2.1070 H       
  62 H62           -8.3836     1.0214     3.0397 H       
  63 H63          -10.1164     2.5845     3.8224 H       
  64 H64           -8.9000     5.4196     0.8771 H       
  65 H65           -7.1604     3.8647     0.0927 H       
  66 H66           -9.1786     6.7184     3.8123 H       
  67 H67          -10.7341     6.9209     4.6535 H       
  68 H68           -9.6865     5.5351     5.0412 H       
@<TRIPOS>BOND
   1    1    2 ar
   2    1   11 1
   3    1    6 ar
   4    2    3 ar
   5    2   38 1
   6    3    4 ar
   7    3   39 1
   8    4    5 ar
   9    4    7 ar
  10    5    6 ar
  11    5   10 ar
  12    6   40 1
  13    7    8 ar
  14    8    9 ar
  15    8   16 1
  16    9   10 ar
  17    9   13 1
  18   10   12 1
  19   11   23 1
  20   11   27 1
  21   12   17 ar
  22   12   21 ar
  23   13   14 1
  24   13   15 1
  25   13   41 1
  26   14   42 1
  27   14   43 1
  28   14   44 1
  29   15   28 1
  30   16   45 1
  31   16   46 1
  32   16   47 1
  33   17   18 ar
  34   17   48 1
  35   18   19 ar
  36   18   49 1
  37   19   20 ar
  38   19   22 1
  39   20   21 ar
  40   20   50 1
  41   21   51 1
  42   23   24 1
  43   23   52 1
  44   23   53 1
  45   24   25 1
  46   24   54 1
  47   24   55 1
  48   25   26 1
  49   25   56 1
  50   25   57 1
  51   26   27 1
  52   26   58 1
  53   26   59 1
  54   27   60 1
  55   27   61 1
  56   28   29 ar
  57   28   33 ar
  58   29   30 ar
  59   29   62 1
  60   30   31 ar
  61   30   63 1
  62   31   32 ar
  63   31   34 1
  64   32   33 ar
  65   32   64 1
  66   33   65 1
  67   34   35 1
  68   34   36 2
  69   34   37 2
  70   35   66 1
  71   35   67 1
  72   35   68 1

#	End of record

