#	Name: ASD06660117
#	Creating user name:	WinNT
#	Creation time:	15. 06. 2019 21:08

#	Modifying user name:	WinNT
#	Modification time:	15. 06. 2019 21:08

#	Program:	/corina/corina34_cracker 3.40 0067  02.08.2006

@<TRIPOS>MOLECULE
ASD06660117
  82   86    0    0    0
SMALL
NO_CHARGES


@<TRIPOS>ATOM
   1 C1            -0.0237    -0.5668     1.5393 C.2     
   2 C2             0.6648    -0.1769     0.2568 C.3     
   3 C3            -0.0708    -0.8055    -0.9284 C.3     
   4 O4            -0.4771     0.2862     2.2650 O.2     
   5 O5            -0.1382    -1.8619     1.8728 O.3     
   6 N6             0.8057    -4.8391    -1.9624 N.am    
   7 C7            -0.6200    -4.4878    -1.9114 C.3     
   8 C8            -0.7553    -2.9636    -1.9854 C.3     
   9 C9             0.0891    -2.3263    -0.8794 C.3     
  10 C10            1.5611    -2.6912    -1.0847 C.3     
  11 C11            1.7225    -4.2123    -1.0005 C.3     
  12 C12            1.2629    -5.7238    -2.8706 C.2     
  13 C13            2.7281    -6.0738    -2.9102 C.3     
  14 C14            2.9793    -7.0921    -4.0241 C.3     
  15 O15            0.4951    -6.2382    -3.6559 O.2     
  16 N16            5.3403    -6.4826    -4.1859 N.ar    
  17 C17            4.4445    -7.4422    -4.0637 C.ar    
  18 C18            4.8328    -8.7639    -3.9713 C.ar    
  19 C19            6.1840    -9.0775    -4.0060 C.ar    
  20 C20            7.1019    -8.0473    -4.1341 C.ar    
  21 C21            8.5703    -8.3740    -4.1676 C.3     
  22 C22            9.3581    -7.2262    -4.7998 C.3     
  23 C23            8.9625    -5.9152    -4.1080 C.3     
  24 N24            7.5355    -5.6817    -4.3659 N.pl3   
  25 C25            6.6414    -6.7413    -4.2255 C.ar    
  26 C26            1.6175     2.0204     0.7053 C.2     
  27 C27            1.5527     3.4946     0.6512 C.ar    
  28 C28            2.1254     4.1818    -0.4222 C.ar    
  29 C29            2.0627     5.5566    -0.4696 C.ar    
  30 C30            1.4304     6.2610     0.5492 C.ar    
  31 C31            0.8599     5.5806     1.6189 C.ar    
  32 C32            0.9138     4.2052     1.6700 C.ar    
  33 O33            2.5401     1.4731     1.2774 O.2     
  34 N34            0.6538     1.2817     0.1204 N.am    
  35 C35            0.2892     3.4682     2.8267 C.3     
  36 C36            1.8781     8.4533    -0.4791 C.2     
  37 N37            1.6233     9.6968    -0.1765 N.2     
  38 C38            0.9531     9.7437     0.9846 C.2     
  39 C39            0.7830     8.4825     1.4236 C.2     
  40 N40            1.3687     7.6573     0.4977 N.pl3   
  41 C41            2.8113     3.4194    -1.5265 C.3     
  42 C42            1.7818     3.0178    -2.5846 C.3     
  43 H43            1.6951    -0.5324     0.2749 H       
  44 H44           -1.1290    -0.5495    -0.8765 H       
  45 H45            0.3496    -0.4258    -1.8597 H       
  46 H46           -0.5878    -2.0629     2.7050 H       
  47 H47           -1.1387    -4.9420    -2.7556 H       
  48 H48           -1.0520    -4.8481    -0.9777 H       
  49 H49           -0.4059    -2.6141    -2.9569 H       
  50 H50           -1.8004    -2.6842    -1.8520 H       
  51 H51           -0.2445    -2.6955     0.0904 H       
  52 H52            1.8886    -2.3443    -2.0647 H       
  53 H53            2.1646    -2.2179    -0.3103 H       
  54 H54            1.4816    -4.5501     0.0074 H       
  55 H55            2.7495    -4.4847    -1.2438 H       
  56 H56            3.3117    -5.1735    -3.1027 H       
  57 H57            3.0255    -6.5017    -1.9529 H       
  58 H58            2.3957    -7.9924    -3.8316 H       
  59 H59            2.6819    -6.6642    -4.9815 H       
  60 H60            4.0933    -9.5448    -3.8728 H       
  61 H61            6.5136   -10.1034    -3.9342 H       
  62 H62            8.9263    -8.5383    -3.1506 H       
  63 H63            8.7244    -9.2815    -4.7514 H       
  64 H64           10.4261    -7.4005    -4.6690 H       
  65 H65            9.1235    -7.1638    -5.8624 H       
  66 H66            9.1346    -5.9979    -3.0348 H       
  67 H67            9.5502    -5.0919    -4.5140 H       
  68 H68            7.2203    -4.8033    -4.6303 H       
  69 H69            2.5055     6.0884    -1.2988 H       
  70 H70            0.3702     6.1310     2.4087 H       
  71 H71           -0.0470     1.7157    -0.3908 H       
  72 H72            1.0256     3.3485     3.6214 H       
  73 H73           -0.5618     4.0362     3.2025 H       
  74 H74           -0.0478     2.4869     2.4928 H       
  75 H75            2.4018     8.1134    -1.3604 H       
  76 H76            0.6096    10.6389     1.4817 H       
  77 H77            0.2816     8.1787     2.3306 H       
  78 H78            3.5748     4.0493    -1.9830 H       
  79 H79            3.2774     2.5242    -1.1148 H       
  80 H80            1.3795     3.9132    -3.0584 H       
  81 H81            2.2603     2.3919    -3.3379 H       
  82 H82            0.9722     2.4621    -2.1114 H       
@<TRIPOS>BOND
   1    1    2 1
   2    1    4 2
   3    1    5 1
   4    2    3 1
   5    2   34 1
   6    2   43 1
   7    3    9 1
   8    3   44 1
   9    3   45 1
  10    5   46 1
  11    6    7 1
  12    6   11 1
  13    6   12 am
  14    7    8 1
  15    7   47 1
  16    7   48 1
  17    8    9 1
  18    8   49 1
  19    8   50 1
  20    9   10 1
  21    9   51 1
  22   10   11 1
  23   10   52 1
  24   10   53 1
  25   11   54 1
  26   11   55 1
  27   12   13 1
  28   12   15 2
  29   13   14 1
  30   13   56 1
  31   13   57 1
  32   14   17 1
  33   14   58 1
  34   14   59 1
  35   16   17 ar
  36   16   25 ar
  37   17   18 ar
  38   18   19 ar
  39   18   60 1
  40   19   20 ar
  41   19   61 1
  42   20   21 1
  43   20   25 ar
  44   21   22 1
  45   21   62 1
  46   21   63 1
  47   22   23 1
  48   22   64 1
  49   22   65 1
  50   23   24 1
  51   23   66 1
  52   23   67 1
  53   24   25 1
  54   24   68 1
  55   26   27 1
  56   26   33 2
  57   26   34 am
  58   27   28 ar
  59   27   32 ar
  60   28   29 ar
  61   28   41 1
  62   29   30 ar
  63   29   69 1
  64   30   31 ar
  65   30   40 1
  66   31   32 ar
  67   31   70 1
  68   32   35 1
  69   34   71 1
  70   35   72 1
  71   35   73 1
  72   35   74 1
  73   36   37 2
  74   36   40 1
  75   36   75 1
  76   37   38 1
  77   38   39 2
  78   38   76 1
  79   39   40 1
  80   39   77 1
  81   41   42 1
  82   41   78 1
  83   41   79 1
  84   42   80 1
  85   42   81 1
  86   42   82 1

#	End of record

