#	Name: ASD03200078
#	Creating user name:	WinNT
#	Creation time:	15. 06. 2019 20:34

#	Modifying user name:	WinNT
#	Modification time:	15. 06. 2019 20:34

#	Program:	/corina/corina34_cracker 3.40 0067  02.08.2006

@<TRIPOS>MOLECULE
ASD03200078
  31   32    0    0    0
SMALL
NO_CHARGES


@<TRIPOS>ATOM
   1 C1            -0.2675     0.9098    -0.9912 C.ar    
   2 C2            -1.4959     1.5469    -0.9945 C.ar    
   3 C3            -3.8201     2.7028     1.2612 C.3     
   4 C4            -4.7948     3.7762     1.0821 C.3     
   5 C5            -4.7160     0.9407    -0.0868 C.3     
   6 C6            -5.8822     1.4574    -0.9554 C.3     
   7 C7            -6.1926     2.9398    -0.6707 C.3     
   8 C8            -2.4068     1.2657     0.0204 C.ar    
   9 C9            -0.9384    -0.2168     1.0070 C.ar    
  10 C10            0.0096     0.0101     0.0300 C.ar    
  11 Cl11          -1.8954     2.6815    -2.2462 Cl      
  12 C12            1.3319    -0.7115     0.0706 C.3     
  13 F13            1.1630    -1.9609     0.6769 F       
  14 F14            1.8079    -0.8864    -1.2332 F       
  15 F15            2.2525     0.0430     0.8058 F       
  16 N16           -2.1043     0.4013     0.9761 N.ar    
  17 N17           -3.6450     1.8987     0.0302 N.3     
  18 N18           -6.1379     3.2585     0.7344 N.3     
  19 H19            0.4577     1.1044    -1.7675 H       
  20 H20           -2.8604     3.1389     1.5386 H       
  21 H21           -4.1572     2.0493     2.0658 H       
  22 H22           -4.8647     4.3487     2.0071 H       
  23 H23           -4.4532     4.4349     0.2837 H       
  24 H24           -5.0937     0.7111     0.9096 H       
  25 H25           -4.3241     0.0269    -0.5335 H       
  26 H26           -5.6185     1.3462    -2.0071 H       
  27 H27           -6.7713     0.8621    -0.7473 H       
  28 H28           -5.4695     3.5593    -1.2012 H       
  29 H29           -7.1907     3.1688    -1.0442 H       
  30 H30           -0.7269    -0.9159     1.8025 H       
  31 H31           -6.8566     3.9217     0.9830 H       
@<TRIPOS>BOND
   1    1   10 ar
   2    1   19 1
   3    1    2 ar
   4    2    8 ar
   5    2   11 1
   6    3   20 1
   7    3   21 1
   8    3    4 1
   9    3   17 1
  10    4   22 1
  11    4   23 1
  12    4   18 1
  13    5   17 1
  14    5   24 1
  15    5   25 1
  16    5    6 1
  17    6   26 1
  18    6   27 1
  19    6    7 1
  20    7   18 1
  21    7   28 1
  22    7   29 1
  23    8   16 ar
  24    8   17 1
  25    9   10 ar
  26    9   30 1
  27    9   16 ar
  28   10   12 1
  29   12   15 1
  30   12   14 1
  31   12   13 1
  32   18   31 1

#	End of record

