#	Name: ASD01910211
#	Creating user name:	WinNT
#	Creation time:	15. 06. 2019 19:55

#	Modifying user name:	WinNT
#	Modification time:	15. 06. 2019 19:55

#	Program:	/corina/corina34_cracker 3.40 0067  02.08.2006

@<TRIPOS>MOLECULE
ASD01910211
  41   43    0    0    0
SMALL
NO_CHARGES


@<TRIPOS>ATOM
   1 C1             0.5308     0.4765    -1.2880 C.ar    
   2 C2             0.5056    -0.8124    -0.7798 C.ar    
   3 C3             1.6561    -1.3775    -0.2532 C.ar    
   4 C4             2.8332    -0.6589    -0.2328 C.ar    
   5 C5             2.8642     0.6394    -0.7437 C.ar    
   6 C6             1.7026     1.2038    -1.2725 C.ar    
   7 F7            -0.6448    -1.5205    -0.7974 F       
   8 C8             4.0835     1.3901    -0.7247 C.1     
   9 C9             5.0831     2.0056    -0.7090 C.1     
  10 C10            6.3365     2.7773    -0.6894 C.3     
  11 C11            6.0959     4.1579    -1.3043 C.3     
  12 C12            7.4059     4.9490    -1.3144 C.3     
  13 C13            7.8940     5.1393     0.1252 C.3     
  14 N14            7.9891     3.8226     0.7702 N.am    
  15 C15            6.8123     2.9429     0.7573 C.3     
  16 C16            9.1340     3.4292     1.3625 C.2     
  17 C17           10.3337     4.2886     1.2950 C.ar    
  18 O18            9.1796     2.3671     1.9522 O.2     
  19 C19           10.2482     5.6394     1.6389 C.ar    
  20 C20           11.3708     6.4367     1.5747 C.ar    
  21 C21           12.5832     5.8998     1.1695 C.ar    
  22 C22           12.6736     4.5594     0.8265 C.ar    
  23 C23           11.5585     3.7518     0.8927 C.ar    
  24 F24           13.6804     6.6857     1.1082 F       
  25 H25           -0.3677     0.9108    -1.7010 H       
  26 H26            1.6310    -2.3821     0.1423 H       
  27 H27            3.7293    -1.1001     0.1781 H       
  28 H28            1.7214     2.2080    -1.6694 H       
  29 H29            7.0973     2.2502    -1.2651 H       
  30 H30            5.7336     4.0423    -2.3259 H       
  31 H31            5.3526     4.6938    -0.7141 H       
  32 H32            8.1571     4.4017    -1.8838 H       
  33 H33            7.2391     5.9233    -1.7737 H       
  34 H34            8.8748     5.6147     0.1187 H       
  35 H35            7.1866     5.7634     0.6713 H       
  36 H36            6.0168     3.3880     1.3549 H       
  37 H37            7.0795     1.9692     1.1678 H       
  38 H38            9.3042     6.0587     1.9543 H       
  39 H39           11.3057     7.4816     1.8400 H       
  40 H40           13.6203     4.1463     0.5112 H       
  41 H41           11.6300     2.7078     0.6256 H       
@<TRIPOS>BOND
   1    1    2 ar
   2    1    6 ar
   3    1   25 1
   4    2    3 ar
   5    2    7 1
   6    3    4 ar
   7    3   26 1
   8    4    5 ar
   9    4   27 1
  10    5    6 ar
  11    5    8 1
  12    6   28 1
  13    8    9 3
  14    9   10 1
  15   10   11 1
  16   10   15 1
  17   10   29 1
  18   11   12 1
  19   11   30 1
  20   11   31 1
  21   12   13 1
  22   12   32 1
  23   12   33 1
  24   13   14 1
  25   13   34 1
  26   13   35 1
  27   14   15 1
  28   14   16 am
  29   15   36 1
  30   15   37 1
  31   16   17 1
  32   16   18 2
  33   17   19 ar
  34   17   23 ar
  35   19   20 ar
  36   19   38 1
  37   20   21 ar
  38   20   39 1
  39   21   22 ar
  40   21   24 1
  41   22   23 ar
  42   22   40 1
  43   23   41 1

#	End of record

