#	Name: ASD01209066
#	Creating user name:	WinNT
#	Creation time:	15. 06. 2019 19:10

#	Modifying user name:	WinNT
#	Modification time:	15. 06. 2019 19:10

#	Program:	/corina/corina34_cracker 3.40 0067  02.08.2006

@<TRIPOS>MOLECULE
ASD01209066
  43   44    0    0    0
SMALL
NO_CHARGES


@<TRIPOS>ATOM
   1 C1            -0.0180     1.4748     0.0102 C.2     
   2 S2            -1.1405     5.5780     0.0435 S.o2    
   3 O3            -2.4143     5.4494     0.6600 O.2     
   4 O4            -0.1110     6.3523     0.6434 O.2     
   5 C5             0.0021    -0.0041     0.0020 C.2     
   6 C6             0.5393    -0.7259    -1.1615 C.2     
   7 C7             1.0693     0.0414    -2.3454 C.3     
   8 O8             0.5557    -1.9385    -1.1682 O.2     
   9 C9             2.0894    -0.8180    -3.0949 C.3     
  10 C10           -0.0869     0.3948    -3.2831 C.3     
  11 C11           -0.4720    -0.6904     1.0609 C.2     
  12 C12           -1.0224     0.0492     2.2530 C.3     
  13 C13           -2.4956    -0.3345     2.4772 C.3     
  14 C14           -2.5773    -0.9673     3.8817 C.3     
  15 C15           -1.3496    -0.3912     4.6300 C.3     
  16 C16           -0.2603    -0.3639     3.5291 C.3     
  17 C17            1.0718     2.2680     0.0040 C.2     
  18 C18            0.8004     3.6209     0.0139 C.2     
  19 C19           -0.4975     3.9376     0.0280 C.2     
  20 S20           -1.4677     2.4708     0.0217 S.3     
  21 C21           -1.3223     6.0095    -1.7091 C.3     
  22 H22            1.5495     0.9568    -1.9996 H       
  23 H23            1.6092    -1.7334    -3.4406 H       
  24 H24            2.4728    -0.2630    -3.9511 H       
  25 H25            2.9131    -1.0697    -2.4268 H       
  26 H26           -0.5671    -0.5206    -3.6289 H       
  27 H27           -0.8136     1.0070    -2.7492 H       
  28 H28            0.2965     0.9497    -4.1394 H       
  29 H29           -0.4573    -1.7703     1.0550 H       
  30 H30           -0.9361     1.1246     2.0974 H       
  31 H31           -3.1242     0.5548     2.4312 H       
  32 H32           -2.8124    -1.0556     1.7238 H       
  33 H33           -3.5007    -0.6722     4.3800 H       
  34 H34           -2.5087    -2.0531     3.8155 H       
  35 H35           -1.5563     0.6152     4.9939 H       
  36 H36           -1.0542    -1.0464     5.4495 H       
  37 H37            0.1825    -1.3522     3.4060 H       
  38 H38            0.5072     0.3717     3.7701 H       
  39 H39            2.0779     1.8756    -0.0074 H       
  40 H40            1.5797     4.3686     0.0108 H       
  41 H41           -1.7194     7.0210    -1.7949 H       
  42 H42           -0.3498     5.9582    -2.1987 H       
  43 H43           -2.0069     5.3086    -2.1867 H       
@<TRIPOS>BOND
   1    1    5 1
   2    1   17 2
   3    1   20 1
   4    2    3 2
   5    2    4 2
   6    2   19 1
   7    2   21 1
   8    5    6 1
   9    5   11 2
  10    6    7 1
  11    6    8 2
  12    7    9 1
  13    7   10 1
  14    7   22 1
  15    9   23 1
  16    9   24 1
  17    9   25 1
  18   10   26 1
  19   10   27 1
  20   10   28 1
  21   11   12 1
  22   11   29 1
  23   12   13 1
  24   12   16 1
  25   12   30 1
  26   13   14 1
  27   13   31 1
  28   13   32 1
  29   14   15 1
  30   14   33 1
  31   14   34 1
  32   15   16 1
  33   15   35 1
  34   15   36 1
  35   16   37 1
  36   16   38 1
  37   17   18 1
  38   17   39 1
  39   18   19 2
  40   18   40 1
  41   19   20 1
  42   21   41 1
  43   21   42 1
  44   21   43 1

#	End of record

