#	Name: ASD03740211
#	Creating user name:	WinNT
#	Creation time:	15. 06. 2019 20:46

#	Modifying user name:	WinNT
#	Modification time:	15. 06. 2019 20:46

#	Program:	/corina/corina34_cracker 3.40 0067  02.08.2006

@<TRIPOS>MOLECULE
ASD03740211
  62   68    0    0    0
SMALL
NO_CHARGES


@<TRIPOS>ATOM
   1 C1            -0.0167     1.3782     0.0096 C.ar    
   2 C2             0.0021    -0.0041     0.0020 C.ar    
   3 C3             1.2121    -0.6809    -0.0132 C.ar    
   4 C4             2.4045     0.0293    -0.0213 C.ar    
   5 C5             2.3858     1.4116    -0.0146 C.ar    
   6 C6             1.1757     2.0885     0.0020 C.ar    
   7 O7             1.1573     3.4484     0.0091 O.3     
   8 C8             2.4216     4.1144     0.0007 C.3     
   9 C9             2.2039     5.6056     0.0103 C.2     
  10 O10            1.2306    -2.0408    -0.0198 O.3     
  11 C11           -0.0337    -2.7069    -0.0103 C.3     
  12 C12            0.1840    -4.1980    -0.0195 C.2     
  13 N13            1.9033     7.5920    -0.6737 N.2     
  14 N14            2.0773     6.3705    -1.0377 N.2     
  15 N15            2.0969     6.4040     1.1288 N.pl3   
  16 C16            1.9082     7.6610     0.6333 C.2     
  17 N17            2.1226     6.3168     2.5128 N.2     
  18 C18            1.9724     7.3868     3.2147 C.2     
  19 S19            1.7715     8.7087     2.0507 S.3     
  20 C20            0.4755    -6.2543    -0.6419 C.2     
  21 N21            0.4802    -6.1849     0.6650 N.2     
  22 N22            0.3050    -4.9634     1.0287 N.2     
  23 N23            0.2565    -4.9112    -2.5217 N.2     
  24 C24            0.4063    -5.9814    -3.2233 C.2     
  25 S25            0.6135    -7.3021    -2.0590 S.3     
  26 N26            0.2848    -4.9977    -1.1378 N.pl3   
  27 C27            1.9700     7.4931     4.7179 C.3     
  28 C28            2.1749     6.1262     5.3185 C.ar    
  29 C29            0.4055    -6.0886    -4.7265 C.3     
  30 C30            0.1977    -4.7223    -5.3274 C.ar    
  31 C31            1.2868    -3.9214    -5.6161 C.ar    
  32 C32            1.0963    -2.6681    -6.1673 C.ar    
  33 C33           -0.1833    -2.2159    -6.4302 C.ar    
  34 C34           -1.2723    -3.0172    -6.1423 C.ar    
  35 C35           -1.0816    -4.2722    -5.5952 C.ar    
  36 C36            1.2726     4.0702     6.1499 C.ar    
  37 C37            1.0846     5.3240     5.5990 C.ar    
  38 C38            3.4534     5.6723     5.5836 C.ar    
  39 C39            3.6414     4.4185     6.1345 C.ar    
  40 C40            2.5508     3.6188     6.4208 C.ar    
  41 Cl41          -1.5317     2.2257     0.0214 Cl      
  42 Cl42           3.9195    -0.8181    -0.0392 Cl      
  43 H43           -0.9258    -0.5567     0.0083 H       
  44 H44            3.3136     1.9643    -0.0202 H       
  45 H45            2.9908     3.8246     0.8839 H       
  46 H46            2.9741     3.8337    -0.8960 H       
  47 H47           -0.5857    -2.4258     0.8865 H       
  48 H48           -0.6035    -2.4174    -0.8933 H       
  49 H49            2.7756     8.1545     5.0367 H       
  50 H50            1.0144     7.8972     5.0520 H       
  51 H51            1.3607    -6.4919    -5.0625 H       
  52 H52           -0.4002    -6.7511    -5.0431 H       
  53 H53            2.2865    -4.2747    -5.4107 H       
  54 H54            1.9471    -2.0420    -6.3922 H       
  55 H55           -0.3322    -1.2364    -6.8601 H       
  56 H56           -2.2720    -2.6638    -6.3474 H       
  57 H57           -1.9324    -4.8983    -5.3703 H       
  58 H58            0.4208     3.4434     6.3691 H       
  59 H59            0.0860     5.6770     5.3881 H       
  60 H60            4.3054     6.2972     5.3600 H       
  61 H61            4.6403     4.0636     6.3410 H       
  62 H62            2.6976     2.6392     6.8512 H       
@<TRIPOS>BOND
   1    1    2 ar
   2    1    6 ar
   3    1   41 1
   4    2    3 ar
   5    2   43 1
   6    3    4 ar
   7    3   10 1
   8    4    5 ar
   9    4   42 1
  10    5    6 ar
  11    5   44 1
  12    6    7 1
  13    7    8 1
  14    8    9 1
  15    8   45 1
  16    8   46 1
  17    9   15 1
  18    9   14 2
  19   10   11 1
  20   11   12 1
  21   11   47 1
  22   11   48 1
  23   12   22 2
  24   12   26 1
  25   13   14 1
  26   13   16 2
  27   15   17 1
  28   15   16 1
  29   16   19 1
  30   17   18 2
  31   18   19 1
  32   18   27 1
  33   20   21 2
  34   20   26 1
  35   20   25 1
  36   21   22 1
  37   23   24 2
  38   23   26 1
  39   24   25 1
  40   24   29 1
  41   27   28 1
  42   27   49 1
  43   27   50 1
  44   28   38 ar
  45   28   37 ar
  46   29   30 1
  47   29   51 1
  48   29   52 1
  49   30   31 ar
  50   30   35 ar
  51   31   32 ar
  52   31   53 1
  53   32   33 ar
  54   32   54 1
  55   33   34 ar
  56   33   55 1
  57   34   35 ar
  58   34   56 1
  59   35   57 1
  60   36   37 ar
  61   36   40 ar
  62   36   58 1
  63   37   59 1
  64   38   39 ar
  65   38   60 1
  66   39   40 ar
  67   39   61 1
  68   40   62 1

#	End of record

