#	Name: ASD01100049
#	Creating user name:	WinNT
#	Creation time:	15. 06. 2019 18:58

#	Modifying user name:	WinNT
#	Modification time:	15. 06. 2019 18:58

#	Program:	/corina/corina34_cracker 3.40 0067  02.08.2006

@<TRIPOS>MOLECULE
ASD01100049
  35   36    0    0    0
SMALL
NO_CHARGES


@<TRIPOS>ATOM
   1 C1             0.1628     1.2935    -0.9227 C.ar    
   2 C2             0.2410    -0.0860    -0.9935 C.ar    
   3 C3             1.4421    -0.7241    -0.7402 C.ar    
   4 C4             2.5632     0.0168    -0.4167 C.ar    
   5 C5             2.4844     1.3952    -0.3462 C.ar    
   6 C6             1.2845     2.0333    -0.5991 C.ar    
   7 C7             3.7070     2.2023     0.0071 C.3     
   8 C8             3.4380     3.0039     1.2822 C.3     
   9 C9             3.2227     2.0427     2.4530 C.3     
  10 C10            4.6361     3.9082     1.5785 C.3     
  11 Cl11          -1.1676    -1.0159    -1.3993 Cl      
  12 C12            4.0285     3.1474    -1.1219 C.2     
  13 N13            5.1808     3.8462    -1.1083 N.am    
  14 O14            3.2502     3.2792    -2.0426 O.2     
  15 C15            5.4402     4.7735    -2.1039 C.2     
  16 N16            4.6392     5.0431    -3.0920 N.2     
  17 C17            5.0318     5.9489    -3.9534 C.2     
  18 C18            6.2568     6.4870    -3.6745 C.2     
  19 S19            6.8544     5.7283    -2.2009 S.3     
  20 C20            6.9313     7.4920    -4.4399 C.1     
  21 N21            7.4664     8.2893    -5.0470 N.1     
  22 H22           -0.7735     1.7925    -1.1247 H       
  23 H23            1.5037    -1.8009    -0.7950 H       
  24 H24            3.5008    -0.4813    -0.2187 H       
  25 H25            1.2236     3.1102    -0.5439 H       
  26 H26            4.5505     1.5316     0.1707 H       
  27 H27            2.5461     3.6155     1.1456 H       
  28 H28            4.1146     1.4311     2.5896 H       
  29 H29            3.0311     2.6137     3.3614 H       
  30 H30            2.3692     1.3984     2.2419 H       
  31 H31            4.8523     4.5227     0.7046 H       
  32 H32            4.4043     4.5520     2.4270 H       
  33 H33            5.5050     3.2942     1.8150 H       
  34 H34            5.8286     3.6997    -0.4013 H       
  35 H35            4.4404     6.2437    -4.8076 H       
@<TRIPOS>BOND
   1    1    2 ar
   2    1    6 ar
   3    1   22 1
   4    2    3 ar
   5    2   11 1
   6    3    4 ar
   7    3   23 1
   8    4    5 ar
   9    4   24 1
  10    5    6 ar
  11    5    7 1
  12    6   25 1
  13    7    8 1
  14    7   12 1
  15    7   26 1
  16    8    9 1
  17    8   10 1
  18    8   27 1
  19    9   28 1
  20    9   29 1
  21    9   30 1
  22   10   31 1
  23   10   32 1
  24   10   33 1
  25   12   13 am
  26   12   14 2
  27   13   15 1
  28   13   34 1
  29   15   16 2
  30   15   19 1
  31   16   17 1
  32   17   18 2
  33   17   35 1
  34   18   19 1
  35   18   20 1
  36   20   21 3

#	End of record

