#	Name: ASD01151109
#	Creating user name:	WinNT
#	Creation time:	15. 06. 2019 19:05

#	Modifying user name:	WinNT
#	Modification time:	15. 06. 2019 19:05

#	Program:	/corina/corina34_cracker 3.40 0067  02.08.2006

@<TRIPOS>MOLECULE
ASD01151109
  49   52    0    0    0
SMALL
NO_CHARGES


@<TRIPOS>ATOM
   1 C1            -0.0173     1.4248     0.0099 C.3     
   2 O2             0.0021    -0.0041     0.0020 O.3     
   3 C3            -1.1980    -0.6362     0.0101 C.ar    
   4 C4            -2.3719     0.1044     0.0195 C.ar    
   5 C5            -3.5935    -0.5322     0.0277 C.ar    
   6 C6            -3.6580    -1.9292     0.0262 C.ar    
   7 C7            -2.4819    -2.6809     0.0163 C.ar    
   8 C8            -1.2516    -2.0365     0.0031 C.ar    
   9 C9             0.0017    -2.8281    -0.0127 C.2     
  10 N10            1.1638    -2.2179    -0.0146 N.2     
  11 N11            2.3744    -2.9139    -0.0288 N.am    
  12 C12            3.6334    -2.1648    -0.0296 C.3     
  13 C13            3.6952    -1.2725    -1.2709 C.3     
  14 C14            3.7096    -1.3091     1.2085 C.ar    
  15 C15            2.5803    -0.6581     1.6691 C.ar    
  16 C16            2.6496     0.1269     2.8046 C.ar    
  17 C17            3.8494     0.2611     3.4803 C.ar    
  18 Cl18           3.9370     1.2464     4.9069 Cl      
  19 C19            4.9792    -0.3906     3.0189 C.ar    
  20 C20            4.9074    -1.1799     1.8865 C.ar    
  21 C21            2.4073    -4.2651    -0.0412 C.2     
  22 O22            3.4717    -4.8592    -0.0531 O.2     
  23 C23            1.1530    -4.9969    -0.0398 C.2     
  24 C24            0.7193    -6.3893    -0.0501 C.2     
  25 C25            1.5903    -7.6190    -0.0666 C.3     
  26 N26           -0.5834    -6.3421    -0.0415 N.2     
  27 O27           -1.0184    -5.2123    -0.0282 O.3     
  28 C28           -0.0557    -4.2846    -0.0200 C.2     
  29 C29           -4.9676    -2.6076     0.0355 C.2     
  30 O30           -6.1026    -1.8814     0.0454 O.3     
  31 O31           -5.0231    -3.8214     0.0341 O.2     
  32 H32            1.0053     1.8021     0.0021 H       
  33 H33           -0.5445     1.7859    -0.8732 H       
  34 H34           -0.5275     1.7763     0.9067 H       
  35 H35           -2.3273     1.1835     0.0207 H       
  36 H36           -4.5038     0.0491     0.0357 H       
  37 H37           -2.5285    -3.7599     0.0150 H       
  38 H38            4.4711    -2.8622    -0.0414 H       
  39 H39            3.6400    -1.8915    -2.1664 H       
  40 H40            2.8575    -0.5751    -1.2591 H       
  41 H41            4.6319    -0.7152    -1.2715 H       
  42 H42            1.6439    -0.7627     1.1413 H       
  43 H43            1.7674     0.6357     3.1641 H       
  44 H44            5.9162    -0.2859     3.5458 H       
  45 H45            5.7882    -1.6925     1.5289 H       
  46 H46            1.8064    -7.9250     0.9570 H       
  47 H47            1.0710    -8.4252    -0.5849 H       
  48 H48            2.5235    -7.3963    -0.5840 H       
  49 H49           -6.9367    -2.3705     0.0513 H       
@<TRIPOS>BOND
   1    1    2 1
   2    1   32 1
   3    1   33 1
   4    1   34 1
   5    2    3 1
   6    3    8 ar
   7    3    4 ar
   8    4    5 ar
   9    4   35 1
  10    5    6 ar
  11    5   36 1
  12    6    7 ar
  13    6   29 1
  14    7    8 ar
  15    7   37 1
  16    8    9 1
  17    9   28 1
  18    9   10 2
  19   10   11 1
  20   11   12 1
  21   11   21 am
  22   12   13 1
  23   12   14 1
  24   12   38 1
  25   13   39 1
  26   13   40 1
  27   13   41 1
  28   14   20 ar
  29   14   15 ar
  30   15   16 ar
  31   15   42 1
  32   16   17 ar
  33   16   43 1
  34   17   18 1
  35   17   19 ar
  36   19   20 ar
  37   19   44 1
  38   20   45 1
  39   21   22 2
  40   21   23 1
  41   23   28 2
  42   23   24 1
  43   24   25 1
  44   24   26 2
  45   25   46 1
  46   25   47 1
  47   25   48 1
  48   26   27 1
  49   27   28 1
  50   29   30 1
  51   29   31 2
  52   30   49 1

#	End of record

