#	Name: ASD01911642
#	Creating user name:	WinNT
#	Creation time:	15. 06. 2019 19:58

#	Modifying user name:	WinNT
#	Modification time:	15. 06. 2019 19:58

#	Program:	/corina/corina34_cracker 3.40 0067  02.08.2006

@<TRIPOS>MOLECULE
ASD01911642
  47   50    0    0    0
SMALL
NO_CHARGES


@<TRIPOS>ATOM
   1 C1             0.5762     1.1338    -2.0183 C.ar    
   2 C2             0.5882    -0.2204    -1.7341 C.ar    
   3 C3             1.2737    -0.6695    -0.6083 C.ar    
   4 N4             1.9057     0.1850     0.1806 N.ar    
   5 C5             1.9107     1.4816    -0.0664 C.ar    
   6 C6             1.2520     1.9960    -1.1646 C.ar    
   7 Cl7           -0.2401    -1.3438    -2.7664 Cl      
   8 N8             1.2941    -2.0277    -0.3100 N.3     
   9 C9             2.6567    -2.5677    -0.4076 C.3     
  10 C10            0.7127    -2.2845     1.0144 C.3     
  11 C11            0.5874    -3.7966     1.2290 C.3     
  12 N12            1.9031    -4.4119     0.9975 N.am    
  13 C13            2.6111    -4.0914    -0.2512 C.3     
  14 C14            2.4453    -5.2477     1.9052 C.2     
  15 O15            3.4846    -5.8263     1.6542 O.2     
  16 N16            1.8353    -5.4420     3.0912 N.am    
  17 C17            2.4438    -6.2176     4.0641 C.2     
  18 S18            1.7644    -6.5533     5.6504 S.3     
  19 C19            3.1756    -7.5236     6.0646 C.ar    
  20 C20            4.0499    -7.5189     4.9736 C.ar    
  21 N21            3.5853    -6.7997     3.9329 N.2     
  22 C22            3.4987    -8.2248     7.2238 C.ar    
  23 C23            4.6842    -8.9205     7.3047 C.ar    
  24 C24            5.5608    -8.9241     6.2294 C.ar    
  25 C25            5.2589    -8.2390     5.0800 C.ar    
  26 C26            4.0363    -4.6447    -0.1905 C.3     
  27 C27            5.0297    -9.6773     8.5613 C.3     
  28 F28            4.5400   -10.9845     8.4679 F       
  29 F29            6.4194    -9.7102     8.7187 F       
  30 F30            4.4504    -9.0400     9.6637 F       
  31 H31            0.0568     1.5112    -2.8867 H       
  32 H32            2.4371     2.1489     0.6000 H       
  33 H33            1.2622     3.0585    -1.3584 H       
  34 H34            3.0796    -2.3143    -1.3797 H       
  35 H35            3.2751    -2.1394     0.3813 H       
  36 H36            1.3581    -1.8602     1.7835 H       
  37 H37           -0.2743    -1.8257     1.0735 H       
  38 H38            0.2648    -3.9959     2.2510 H       
  39 H39           -0.1377    -4.2073     0.5265 H       
  40 H40            2.0806    -4.5305    -1.0961 H       
  41 H41            0.9701    -5.0387     3.2634 H       
  42 H42            2.8175    -8.2227     8.0618 H       
  43 H43            6.4896    -9.4710     6.2981 H       
  44 H44            5.9508    -8.2511     4.2508 H       
  45 H45            4.0044    -5.7340    -0.2117 H       
  46 H46            4.6040    -4.2811    -1.0470 H       
  47 H47            4.5159    -4.3131     0.7305 H       
@<TRIPOS>BOND
   1    1    2 ar
   2    1    6 ar
   3    1   31 1
   4    2    3 ar
   5    2    7 1
   6    3    4 ar
   7    3    8 1
   8    4    5 ar
   9    5    6 ar
  10    5   32 1
  11    6   33 1
  12    8    9 1
  13    8   10 1
  14    9   13 1
  15    9   34 1
  16    9   35 1
  17   10   11 1
  18   10   36 1
  19   10   37 1
  20   11   12 1
  21   11   38 1
  22   11   39 1
  23   12   13 1
  24   12   14 am
  25   13   26 1
  26   13   40 1
  27   14   15 2
  28   14   16 am
  29   16   17 1
  30   16   41 1
  31   17   18 1
  32   17   21 2
  33   18   19 1
  34   19   20 ar
  35   19   22 ar
  36   20   21 1
  37   20   25 ar
  38   22   23 ar
  39   22   42 1
  40   23   24 ar
  41   23   27 1
  42   24   25 ar
  43   24   43 1
  44   25   44 1
  45   26   45 1
  46   26   46 1
  47   26   47 1
  48   27   28 1
  49   27   29 1
  50   27   30 1

#	End of record

