#	Name: ASD05380150
#	Creating user name:	WinNT
#	Creation time:	15. 06. 2019 20:59

#	Modifying user name:	WinNT
#	Modification time:	15. 06. 2019 20:59

#	Program:	/corina/corina34_cracker 3.40 0067  02.08.2006

@<TRIPOS>MOLECULE
ASD05380150
  35   36    0    0    0
SMALL
NO_CHARGES


@<TRIPOS>ATOM
   1 N1            -0.0158     1.3164     0.0093 N.ar    
   2 C2             0.0021    -0.0041     0.0020 C.ar    
   3 N3             1.1233    -0.6944    -0.0120 N.ar    
   4 C4             2.2955    -0.0738    -0.0198 C.ar    
   5 C5             2.3234     1.3349    -0.0130 C.ar    
   6 C6             1.1055     2.0195     0.0023 C.ar    
   7 N7             3.6070    -0.4770    -0.0341 N.pl3   
   8 C8             4.3800     0.6453    -0.0357 C.2     
   9 N9             3.6268     1.7065    -0.0233 N.2     
  10 Cl10           1.0640     3.7550     0.0110 Cl      
  11 C11            4.0882    -1.8607    -0.0449 C.3     
  12 O12            5.5171    -1.8680    -0.0586 O.3     
  13 C13            6.0916    -3.1764    -0.0699 C.3     
  14 C14            7.6173    -3.0634    -0.0839 C.3     
  15 Si15           8.3662    -4.7691    -0.0987 Si      
  16 C16            7.7973    -5.6841    -1.6185 C.3     
  17 C17           10.2241    -4.6316    -0.1158 C.3     
  18 C18            7.8263    -5.6976     1.4236 C.3     
  19 H19           -0.9371    -0.5372     0.0081 H       
  20 H20            5.4599     0.6529    -0.0454 H       
  21 H21            3.7307    -2.3766     0.8463 H       
  22 H22            3.7137    -2.3687    -0.9336 H       
  23 H23            5.7756    -3.7196     0.8208 H       
  24 H24            5.7587    -3.7117    -0.9591 H       
  25 H25            7.9332    -2.5202    -0.9745 H       
  26 H26            7.9502    -2.5281     0.8053 H       
  27 H27            8.1132    -5.1408    -2.5092 H       
  28 H28            8.2354    -6.6821    -1.6272 H       
  29 H29            6.7103    -5.7646    -1.6085 H       
  30 H30           10.5570    -4.0963     0.7734 H       
  31 H31           10.6622    -5.6296    -0.1244 H       
  32 H32           10.5400    -4.0883    -1.0064 H       
  33 H33            6.7393    -5.7781     1.4336 H       
  34 H34            8.2645    -6.6956     1.4149 H       
  35 H35            8.1592    -5.1623     2.3128 H       
@<TRIPOS>BOND
   1    1    2 ar
   2    1    6 ar
   3    2    3 ar
   4    2   19 1
   5    3    4 ar
   6    4    5 ar
   7    4    7 1
   8    5    6 ar
   9    5    9 1
  10    6   10 1
  11    7    8 1
  12    7   11 1
  13    8    9 2
  14    8   20 1
  15   11   12 1
  16   11   21 1
  17   11   22 1
  18   12   13 1
  19   13   14 1
  20   13   23 1
  21   13   24 1
  22   14   15 1
  23   14   25 1
  24   14   26 1
  25   15   16 1
  26   15   17 1
  27   15   18 1
  28   16   27 1
  29   16   28 1
  30   16   29 1
  31   17   30 1
  32   17   31 1
  33   17   32 1
  34   18   33 1
  35   18   34 1
  36   18   35 1

#	End of record

