#	Name: ASD02038744
#	Creating user name:	WinNT
#	Creation time:	15. 06. 2019 20:17

#	Modifying user name:	WinNT
#	Modification time:	15. 06. 2019 20:17

#	Program:	/corina/corina34_cracker 3.40 0067  02.08.2006

@<TRIPOS>MOLECULE
ASD02038744
  49   51    0    0    0
SMALL
NO_CHARGES


@<TRIPOS>ATOM
   1 C1            -1.1655    -0.2678     0.7404 C.2     
   2 C2             0.0826     0.3014     0.1882 C.2     
   3 N3             1.1717    -0.4788     0.0411 N.am    
   4 C4             1.1493    -1.8648     0.5150 C.3     
   5 C5             0.8279    -2.7839    -0.6352 C.ar    
   6 C6             2.3780     0.0593    -0.5927 C.3     
   7 C7             3.3495     0.5411     0.4866 C.3     
   8 O8             0.1262     1.4729    -0.1330 O.2     
   9 N9            -1.3477    -1.5407     1.1367 N.2     
  10 C10           -2.5816    -1.6426     1.5608 C.2     
  11 N11           -3.1598    -0.4347     1.4265 N.pl3   
  12 N12           -2.2919     0.3818     0.9363 N.2     
  13 C13           -4.5414    -0.1028     1.7831 C.3     
  14 C14            1.8485    -3.4114    -1.3234 C.ar    
  15 C15            4.6552     1.0023    -0.1682 C.3     
  16 C16            5.5903     1.5555     0.9103 C.3     
  17 O17            4.9405     2.6259     1.5990 O.3     
  18 C18            3.7384     2.2431     2.2703 C.3     
  19 C19            2.7289     1.7176     1.2464 C.3     
  20 C20           -0.4882    -3.0027    -0.9974 C.ar    
  21 C21           -0.7865    -3.8455    -2.0524 C.ar    
  22 C22            0.2304    -4.4708    -2.7472 C.ar    
  23 C23            1.5519    -4.2572    -2.3821 C.ar    
  24 O24            2.5542    -4.8709    -3.0643 O.3     
  25 C25            2.1751    -5.7231    -4.1470 C.3     
  26 F26            1.4711    -4.9802    -5.1008 F       
  27 F27            3.3216    -6.2690    -4.7343 F       
  28 F28            1.3615    -6.7545    -3.6658 F       
  29 H29            2.1252    -2.1243     0.9256 H       
  30 H30            0.3894    -1.9720     1.2890 H       
  31 H31            2.8538    -0.7198    -1.1882 H       
  32 H32            2.1075     0.8954    -1.2375 H       
  33 H33            3.5573    -0.2736     1.1802 H       
  34 H34           -3.0511    -2.5348     1.9483 H       
  35 H35           -4.5788     0.2311     2.8200 H       
  36 H36           -4.9036     0.6927     1.1319 H       
  37 H37           -5.1698    -0.9853     1.6627 H       
  38 H38            2.8763    -3.2433    -1.0375 H       
  39 H39            5.1318     0.1573    -0.6651 H       
  40 H40            4.4406     1.7820    -0.8991 H       
  41 H41            5.8368     0.7643     1.6184 H       
  42 H42            6.5041     1.9246     0.4447 H       
  43 H43            3.9607     1.4609     2.9961 H       
  44 H44            3.3182     3.1075     2.7844 H       
  45 H45            2.4754     2.5117     0.5441 H       
  46 H46            1.8279     1.3840     1.7613 H       
  47 H47           -1.2848    -2.5150    -0.4552 H       
  48 H48           -1.8155    -4.0152    -2.3332 H       
  49 H49           -0.0031    -5.1289    -3.5710 H       
@<TRIPOS>BOND
   1    1    2 1
   2    1    9 1
   3    1   12 2
   4    2    3 am
   5    2    8 2
   6    3    4 1
   7    3    6 1
   8    4    5 1
   9    4   29 1
  10    4   30 1
  11    5   14 ar
  12    5   20 ar
  13    6    7 1
  14    6   31 1
  15    6   32 1
  16    7   15 1
  17    7   19 1
  18    7   33 1
  19    9   10 2
  20   10   11 1
  21   10   34 1
  22   11   12 1
  23   11   13 1
  24   13   35 1
  25   13   36 1
  26   13   37 1
  27   14   23 ar
  28   14   38 1
  29   15   16 1
  30   15   39 1
  31   15   40 1
  32   16   17 1
  33   16   41 1
  34   16   42 1
  35   17   18 1
  36   18   19 1
  37   18   43 1
  38   18   44 1
  39   19   45 1
  40   19   46 1
  41   20   21 ar
  42   20   47 1
  43   21   22 ar
  44   21   48 1
  45   22   23 ar
  46   22   49 1
  47   23   24 1
  48   24   25 1
  49   25   26 1
  50   25   27 1
  51   25   28 1

#	End of record

