#	Name: ASD01810491
#	Creating user name:	WinNT
#	Creation time:	15. 06. 2019 19:24

#	Modifying user name:	WinNT
#	Modification time:	15. 06. 2019 19:24

#	Program:	/corina/corina34_cracker 3.40 0067  02.08.2006

@<TRIPOS>MOLECULE
ASD01810491
  29   29    0    0    0
SMALL
NO_CHARGES


@<TRIPOS>ATOM
   1 C1             0.0021    -0.0041     0.0020 C.1     
   2 C2            -0.0173     1.4278     0.0099 C.ar    
   3 C3             1.1789     2.1564     0.0024 C.ar    
   4 C4             1.1051     3.5379     0.0106 C.ar    
   5 C5            -0.1357     4.1498     0.0257 C.ar    
   6 N6            -1.2463     3.4380     0.0329 N.ar    
   7 C7            -1.2288     2.1212     0.0193 C.ar    
   8 N8             0.0175    -1.1399    -0.0042 N.1     
   9 N9             0.9842     8.2021     0.6657 N.3     
  10 C10           -0.1339     7.6947     1.4712 C.3     
  11 C11           -0.1090     6.1645     1.4741 C.3     
  12 C12           -0.2198     5.6544     0.0347 C.3     
  13 C13            0.9286     6.2360    -0.7944 C.3     
  14 C14            0.8737     7.7641    -0.7316 C.3     
  15 H15            2.1342     1.6528    -0.0091 H       
  16 H16            2.0067     4.1325     0.0055 H       
  17 H17           -2.1594     1.5732     0.0203 H       
  18 H18            1.0461     9.2074     0.7257 H       
  19 H19           -0.0408     8.0614     2.4934 H       
  20 H20           -1.0752     8.0419     1.0453 H       
  21 H21            0.8263     5.8166     1.9126 H       
  22 H22           -0.9481     5.7881     2.0592 H       
  23 H23           -1.1729     5.9685    -0.3908 H       
  24 H24            1.8802     5.8892    -0.3917 H       
  25 H25            0.8309     5.9107    -1.8301 H       
  26 H26           -0.0724     8.1109    -1.1472 H       
  27 H27            1.6986     8.1812    -1.3093 H       
  28 Cl28           7.1342    14.2074     7.4934 Cl      
  29 H29            7.1342    15.5774     7.4934 H       
@<TRIPOS>BOND
   1    1    2 1
   2    1    8 3
   3    2    3 ar
   4    2    7 ar
   5    3    4 ar
   6    3   15 1
   7    4    5 ar
   8    4   16 1
   9    5    6 ar
  10    5   12 1
  11    6    7 ar
  12    7   17 1
  13    9   10 1
  14    9   14 1
  15    9   18 1
  16   10   11 1
  17   10   19 1
  18   10   20 1
  19   11   12 1
  20   11   21 1
  21   11   22 1
  22   12   13 1
  23   12   23 1
  24   13   14 1
  25   13   24 1
  26   13   25 1
  27   14   26 1
  28   14   27 1
  29   28   29 1

#	End of record

