#	Name: ASD01941026
#	Creating user name:	WinNT
#	Creation time:	15. 06. 2019 20:13

#	Modifying user name:	WinNT
#	Modification time:	15. 06. 2019 20:13

#	Program:	/corina/corina34_cracker 3.40 0067  02.08.2006

@<TRIPOS>MOLECULE
ASD01941026
  50   54    0    0    0
SMALL
NO_CHARGES


@<TRIPOS>ATOM
   1 N1            -0.4409     2.1350     0.6121 N.am    
   2 C2            -0.1761     0.8296     0.7847 C.2     
   3 N3            -1.0629    -0.1360     0.4903 N.am    
   4 C4            -2.3017     0.1744    -0.0096 C.2     
   5 C5            -2.6278     1.5167    -0.2080 C.2     
   6 C6            -1.6372     2.5402     0.1302 C.2     
   7 N7            -3.2053    -0.7930    -0.3114 N.am    
   8 C8            -4.4199    -0.4937    -0.8018 C.2     
   9 C9            -4.8186     0.8254    -1.0273 C.2     
  10 C10           -3.9432     1.8628    -0.7392 C.2     
  11 C11           -0.7171    -1.4782     0.6964 C.ar    
  12 C12            0.1013    -2.1334    -0.2139 C.ar    
  13 C13            0.4404    -3.4564    -0.0080 C.ar    
  14 C14           -0.0345    -4.1284     1.1033 C.ar    
  15 C15           -0.8498    -3.4786     2.0117 C.ar    
  16 C16           -1.1877    -2.1540     1.8143 C.ar    
  17 C17           -2.8470    -2.1973    -0.0977 C.3     
  18 O18           -5.1963    -1.4001    -1.0576 O.2     
  19 N19           -4.3036     3.1787    -0.9492 N.pl3   
  20 C20           -3.6233     3.9474    -1.9006 C.ar    
  21 C21           -2.6831     3.3535    -2.7310 C.ar    
  22 C22           -2.0130     4.1143    -3.6699 C.ar    
  23 C23           -2.2778     5.4674    -3.7836 C.ar    
  24 C24           -3.2147     6.0639    -2.9576 C.ar    
  25 C25           -3.8922     5.3071    -2.0198 C.ar    
  26 O26            0.9106     0.5085     1.2249 O.2     
  27 C27            0.5764     3.1317     0.9556 C.3     
  28 O28           -1.8803     3.7223    -0.0271 O.2     
  29 C29            1.8771     3.1201     0.1501 C.3     
  30 C30            0.8545     4.2378    -0.0642 C.3     
  31 F31           -4.8070     5.8889    -1.2137 F       
  32 Cl32          -1.4330     6.4192    -4.9643 Cl      
  33 H33           -5.8010     1.0367    -1.4230 H       
  34 H34            0.4722    -1.6091    -1.0822 H       
  35 H35            1.0767    -3.9666    -0.7159 H       
  36 H36            0.2317    -5.1630     1.2619 H       
  37 H37           -1.2195    -4.0062     2.8785 H       
  38 H38           -1.8242    -1.6469     2.5242 H       
  39 H39           -3.0107    -2.4590     0.9476 H       
  40 H40           -3.4666    -2.8310    -0.7322 H       
  41 H41           -1.7971    -2.3468    -0.3496 H       
  42 H42           -5.0283     3.5707    -0.4373 H       
  43 H43           -2.4750     2.2974    -2.6432 H       
  44 H44           -1.2811     3.6520    -4.3158 H       
  45 H45           -3.4195     7.1204    -3.0485 H       
  46 H46            0.6409     3.3927     2.0119 H       
  47 H47            2.7973     3.3740     0.6764 H       
  48 H48            1.9760     2.3710    -0.6355 H       
  49 H49            0.2805     4.2240    -0.9907 H       
  50 H50            1.1018     5.2270     0.3211 H       
@<TRIPOS>BOND
   1    1    2 am
   2    1   27 1
   3    1    6 am
   4    2    3 am
   5    2   26 2
   6    3    4 1
   7    3   11 1
   8    4    5 2
   9    4    7 1
  10    5    6 1
  11    5   10 1
  12    6   28 2
  13    7    8 am
  14    7   17 1
  15    8    9 1
  16    8   18 2
  17    9   10 2
  18    9   33 1
  19   10   19 1
  20   11   12 ar
  21   11   16 ar
  22   12   13 ar
  23   12   34 1
  24   13   14 ar
  25   13   35 1
  26   14   15 ar
  27   14   36 1
  28   15   16 ar
  29   15   37 1
  30   16   38 1
  31   17   39 1
  32   17   40 1
  33   17   41 1
  34   19   20 1
  35   19   42 1
  36   20   21 ar
  37   20   25 ar
  38   21   22 ar
  39   21   43 1
  40   22   23 ar
  41   22   44 1
  42   23   24 ar
  43   23   32 1
  44   24   25 ar
  45   24   45 1
  46   25   31 1
  47   27   29 1
  48   27   30 1
  49   27   46 1
  50   29   30 1
  51   29   47 1
  52   29   48 1
  53   30   49 1
  54   30   50 1

#	End of record

