#	Name: ASD05473025
#	Creating user name:	WinNT
#	Creation time:	15. 06. 2019 21:00

#	Modifying user name:	WinNT
#	Modification time:	15. 06. 2019 21:00

#	Program:	/corina/corina34_cracker 3.40 0067  02.08.2006

@<TRIPOS>MOLECULE
ASD05473025
  47   50    0    0    0
SMALL
NO_CHARGES


@<TRIPOS>ATOM
   1 C1            -0.8732    -0.2146    -1.0691 C.2     
   2 C2            -0.0741     0.1304     0.1611 C.3     
   3 C3             1.2848    -0.5701     0.0996 C.3     
   4 C4             2.1534    -0.1015     1.2687 C.3     
   5 O5            -0.3671    -0.8588    -1.9572 O.2     
   6 O6            -2.1489     0.1891    -1.1758 O.3     
   7 C7             2.4657     1.3639     1.1068 C.2     
   8 N8             2.1991     2.3241     2.0328 N.pl3   
   9 C9             2.6327     3.5279     1.5139 C.ar    
  10 C10            3.1642     3.2333     0.2458 C.ar    
  11 N11            3.0343     1.8936     0.0635 N.2     
  12 C12            3.6890     4.2634    -0.5357 C.ar    
  13 C13            3.6789     5.5636    -0.0502 C.ar    
  14 C14            3.1468     5.8397     1.2127 C.ar    
  15 C15            2.6319     4.8353     1.9825 C.ar    
  16 C16            1.0857    -2.0613     0.1878 C.ar    
  17 C17            1.5131    -2.8775    -0.8428 C.ar    
  18 C18            1.3307    -4.2452    -0.7625 C.ar    
  19 C19            0.7203    -4.7974     0.3496 C.ar    
  20 C20            0.2928    -3.9799     1.3807 C.ar    
  21 C21            0.4807    -2.6129     1.3017 C.ar    
  22 C22            4.2355     6.6648    -0.8746 C.ar    
  23 Cl23           0.4904    -6.5151     0.4509 Cl      
  24 C24            4.2279     7.9720    -0.3923 C.ar    
  25 C25            4.7469     8.9923    -1.1633 C.ar    
  26 C26            5.2733     8.7192    -2.4129 C.ar    
  27 C27            5.2834     7.4234    -2.8967 C.ar    
  28 C28            4.7727     6.3945    -2.1315 C.ar    
  29 H29            0.0750     1.2092     0.2069 H       
  30 H30           -0.6132    -0.1999     1.0490 H       
  31 H31            1.7780    -0.3244    -0.8408 H       
  32 H32            1.6176    -0.2576     2.2050 H       
  33 H33            3.0824    -0.6716     1.2824 H       
  34 H34           -2.6209    -0.0562    -1.9833 H       
  35 H35            1.7814     2.1882     2.8977 H       
  36 H36            4.1005     4.0503    -1.5113 H       
  37 H37            3.1433     6.8543     1.5828 H       
  38 H38            2.2230     5.0584     2.9569 H       
  39 H39            1.9893    -2.4464    -1.7110 H       
  40 H40            1.6644    -4.8828    -1.5678 H       
  41 H41           -0.1838    -4.4103     2.2490 H       
  42 H42            0.1510    -1.9751     2.1085 H       
  43 H43            3.8165     8.1864     0.5830 H       
  44 H44            4.7415    10.0059    -0.7904 H       
  45 H45            5.6777     9.5208    -3.0132 H       
  46 H46            5.6957     7.2158    -3.8731 H       
  47 H47            4.7810     5.3831    -2.5102 H       
@<TRIPOS>BOND
   1    1    2 1
   2    1    5 2
   3    1    6 1
   4    2    3 1
   5    2   29 1
   6    2   30 1
   7    3    4 1
   8    3   16 1
   9    3   31 1
  10    4    7 1
  11    4   32 1
  12    4   33 1
  13    6   34 1
  14    7    8 1
  15    7   11 2
  16    8    9 1
  17    8   35 1
  18    9   10 ar
  19    9   15 ar
  20   10   11 1
  21   10   12 ar
  22   12   13 ar
  23   12   36 1
  24   13   14 ar
  25   13   22 1
  26   14   15 ar
  27   14   37 1
  28   15   38 1
  29   16   17 ar
  30   16   21 ar
  31   17   18 ar
  32   17   39 1
  33   18   19 ar
  34   18   40 1
  35   19   20 ar
  36   19   23 1
  37   20   21 ar
  38   20   41 1
  39   21   42 1
  40   22   24 ar
  41   22   28 ar
  42   24   25 ar
  43   24   43 1
  44   25   26 ar
  45   25   44 1
  46   26   27 ar
  47   26   45 1
  48   27   28 ar
  49   27   46 1
  50   28   47 1

#	End of record

