#	Name: ASD01420152
#	Creating user name:	WinNT
#	Creation time:	15. 06. 2019 19:20

#	Modifying user name:	WinNT
#	Modification time:	15. 06. 2019 19:20

#	Program:	/corina/corina34_cracker 3.40 0067  02.08.2006

@<TRIPOS>MOLECULE
ASD01420152
  56   59    0    0    0
SMALL
NO_CHARGES


@<TRIPOS>ATOM
   1 C1             2.3843     0.1885     1.0094 C.ar    
   2 C2             1.6634    -0.7925     0.3615 C.ar    
   3 C3             0.9274    -0.4958    -0.7776 C.ar    
   4 C4             0.9080     0.7889    -1.2768 C.ar    
   5 C5             2.3789     1.4892     0.5239 C.ar    
   6 O6             2.9714     2.6300     0.9334 O.3     
   7 C7             1.6332     1.7904    -0.6298 C.ar    
   8 C8             1.8372     3.2208    -0.8706 C.2     
   9 C9             2.6567     3.6547     0.1168 C.2     
  10 C10            1.2539     4.0432    -1.9907 C.3     
  11 C11            3.1339     5.0443     0.2752 C.ar    
  12 C12            2.2343     6.1081     0.1834 C.ar    
  13 C13            2.6833     7.4028     0.3322 C.ar    
  14 C14            4.0285     7.6498     0.5727 C.ar    
  15 C15            4.9266     6.5946     0.6647 C.ar    
  16 C16            4.4846     5.2967     0.5228 C.ar    
  17 O17            4.4673     8.9275     0.7179 O.3     
  18 Cl18           0.0286    -1.7477    -1.5768 Cl      
  19 C19            5.8632     9.1101     0.9633 C.3     
  20 C20            6.1663    10.6037     1.0977 C.3     
  21 C21            7.6347    10.7935     1.4835 C.3     
  22 N22            7.8962    12.2179     1.7293 N.3     
  23 C23            7.1634    12.6915     2.9118 C.3     
  24 C24            9.3368    12.4724     1.8692 C.3     
  25 C25            9.5722    13.9745     2.0441 C.3     
  26 N26            8.8394    14.4481     3.2266 N.3     
  27 C27            7.3988    14.1937     3.0867 C.3     
  28 C28            9.1010    15.8726     3.4724 C.3     
  29 O29            5.9133    11.2551    -0.1487 O.3     
  30 H30            2.9496    -0.0542     1.8970 H       
  31 H31            1.6717    -1.8024     0.7442 H       
  32 H32            0.3355     1.0189    -2.1632 H       
  33 H33            0.3425     4.5318    -1.6461 H       
  34 H34            1.9760     4.7984    -2.3011 H       
  35 H35            1.0213     3.3942    -2.8349 H       
  36 H36            1.1880     5.9169    -0.0044 H       
  37 H37            1.9881     8.2262     0.2613 H       
  38 H38            5.9720     6.7909     0.8519 H       
  39 H39            5.1829     4.4763     0.5990 H       
  40 H40            6.1399     8.5988     1.8854 H       
  41 H41            6.4353     8.6965     0.1328 H       
  42 H42            5.5292    11.0357     1.8694 H       
  43 H43            7.8495    10.2234     2.3873 H       
  44 H44            8.2719    10.4418     0.6720 H       
  45 H45            6.0980    12.5035     2.7788 H       
  46 H46            7.5189    12.1624     3.7959 H       
  47 H47            9.7170    11.9407     2.7415 H       
  48 H48            9.8560    12.1245     0.9761 H       
  49 H49           10.6376    14.1626     2.1771 H       
  50 H50            9.2168    14.5037     1.1599 H       
  51 H51            7.0187    14.7254     2.2144 H       
  52 H52            6.8797    14.5416     3.9797 H       
  53 H53            8.7828    16.4549     2.6077 H       
  54 H54            8.5465    16.1972     4.3529 H       
  55 H55           10.1677    16.0227     3.6390 H       
  56 H56            6.4466    10.9206    -0.8827 H       
@<TRIPOS>BOND
   1    1    2 ar
   2    1    5 ar
   3    1   30 1
   4    2    3 ar
   5    2   31 1
   6    3    4 ar
   7    3   18 1
   8    4    7 ar
   9    4   32 1
  10    5    7 ar
  11    5    6 1
  12    6    9 1
  13    7    8 1
  14    8    9 2
  15    8   10 1
  16    9   11 1
  17   10   33 1
  18   10   34 1
  19   10   35 1
  20   11   12 ar
  21   11   16 ar
  22   12   13 ar
  23   12   36 1
  24   13   14 ar
  25   13   37 1
  26   14   15 ar
  27   14   17 1
  28   15   16 ar
  29   15   38 1
  30   16   39 1
  31   17   19 1
  32   19   20 1
  33   19   40 1
  34   19   41 1
  35   20   21 1
  36   20   29 1
  37   20   42 1
  38   21   22 1
  39   21   43 1
  40   21   44 1
  41   22   24 1
  42   22   23 1
  43   23   27 1
  44   23   45 1
  45   23   46 1
  46   24   25 1
  47   24   47 1
  48   24   48 1
  49   25   26 1
  50   25   49 1
  51   25   50 1
  52   26   27 1
  53   26   28 1
  54   27   51 1
  55   27   52 1
  56   28   53 1
  57   28   54 1
  58   28   55 1
  59   29   56 1

#	End of record

