#	Name: ASD01903315
#	Creating user name:	WinNT
#	Creation time:	15. 06. 2019 19:54

#	Modifying user name:	WinNT
#	Modification time:	15. 06. 2019 19:54

#	Program:	/corina/corina34_cracker 3.40 0067  02.08.2006

@<TRIPOS>MOLECULE
ASD01903315
  30   33    0    0    0
SMALL
NO_CHARGES


@<TRIPOS>ATOM
   1 N1            -0.0111     0.9658     0.0074 N.pl3   
   2 H2             0.0453    -0.0025     0.0035 H       
   3 C3             1.1476     1.7280    -0.0089 C.2     
   4 C4            -1.2555     1.5909     0.0234 C.ar    
   5 N5            -1.3257     2.9088     0.1245 N.ar    
   6 C6            -2.4839     3.5412     0.1434 C.ar    
   7 C7            -3.6738     2.8426     0.0575 C.ar    
   8 C8            -3.6424     1.4567    -0.0500 C.ar    
   9 C9            -2.4124     0.8246    -0.0727 C.ar    
  10 S10            2.7862     1.0906     0.0955 S.3     
  11 C11            3.4315     2.7206     0.0038 C.2     
  12 C12            2.3847     3.5906    -0.1089 C.2     
  13 N13            1.1929     3.0208    -0.1089 N.2     
  14 F14           -4.8542     3.4994     0.0781 F       
  15 C15            4.8760     3.1431     0.0518 C.3     
  16 C16            5.1150     4.4126    -0.7671 C.3     
  17 C17            4.0114     5.4097    -0.5429 C.2     
  18 C18            2.7194     5.0410    -0.2441 C.2     
  19 N19            4.0360     6.7488    -0.5825 N.pl3   
  20 N20            2.7391     7.2200    -0.3209 N.2     
  21 C21            1.9507     6.1890    -0.1195 C.2     
  22 H22           -2.5024     4.6178     0.2273 H       
  23 H23           -4.5575     0.8872    -0.1185 H       
  24 H24           -2.3512    -0.2505    -0.1552 H       
  25 H25            5.1587     3.3288     1.0879 H       
  26 H26            5.4956     2.3399    -0.3470 H       
  27 H27            6.0652     4.8568    -0.4707 H       
  28 H28            5.1554     4.1544    -1.8253 H       
  29 H29            4.8153     7.2981    -0.7609 H       
  30 H30            0.8944     6.2279     0.1025 H       
@<TRIPOS>BOND
   1    1    2 1
   2    1    3 1
   3    1    4 1
   4    3   10 1
   5    3   13 2
   6    4    5 ar
   7    4    9 ar
   8    5    6 ar
   9    6    7 ar
  10    6   22 1
  11    7    8 ar
  12    7   14 1
  13    8    9 ar
  14    8   23 1
  15    9   24 1
  16   10   11 1
  17   11   12 2
  18   11   15 1
  19   12   13 1
  20   12   18 1
  21   15   16 1
  22   15   25 1
  23   15   26 1
  24   16   17 1
  25   16   27 1
  26   16   28 1
  27   17   18 2
  28   17   19 1
  29   18   21 1
  30   19   20 1
  31   19   29 1
  32   20   21 2
  33   21   30 1

#	End of record

