#	Name: ASD02508384
#	Creating user name:	WinNT
#	Creation time:	15. 06. 2019 20:24

#	Modifying user name:	WinNT
#	Modification time:	15. 06. 2019 20:24

#	Program:	/corina/corina34_cracker 3.40 0067  02.08.2006

@<TRIPOS>MOLECULE
ASD02508384
  37   39    0    0    0
SMALL
NO_CHARGES


@<TRIPOS>ATOM
   1 C1             0.6230     1.5297     0.6611 C.2     
   2 C2             0.4663     0.1286     0.6624 C.2     
   3 C3             1.6088    -0.4072     0.1880 C.2     
   4 N4             2.4682     0.6133    -0.1073 N.pl3   
   5 C5             1.8554     1.7990     0.1859 C.2     
   6 C6             3.7592     0.4685    -0.6231 C.ar    
   7 C7             4.5289     1.5969    -0.8784 C.ar    
   8 N8             4.2389    -0.7419    -0.8584 N.ar    
   9 C9             5.4518    -0.9233    -1.3442 C.ar    
  10 C10            6.2700     0.1530    -1.6259 C.ar    
  11 C11            5.8058     1.4395    -1.3886 C.ar    
  12 S12            1.9373    -2.1263    -0.0155 S.o2    
  13 O13            1.6586    -2.4298    -1.3754 O.2     
  14 O14            3.1988    -2.3684     0.5922 O.2     
  15 N15            0.8183    -2.9493     0.8861 N.am    
  16 C16            0.7740    -2.7765     2.2729 C.ar    
  17 C17           -0.4433    -2.5745     2.9100 C.ar    
  18 C18            1.9006    -2.6422     4.3859 C.ar    
  19 C19            1.9467    -2.8126     3.0160 C.ar    
  20 C20           -0.4848    -2.4045     4.2801 C.ar    
  21 C21            0.6863    -2.4351     5.0183 C.ar    
  22 F22            0.6435    -2.2687     6.3583 F       
  23 C23            7.6541    -0.0670    -2.1797 C.3     
  24 F24            7.8863    -1.4392    -2.3232 F       
  25 F25            7.7620     0.5571    -3.4271 F       
  26 F26            8.5991     0.4766    -1.3030 F       
  27 H27           -0.1118     2.2548     0.9783 H       
  28 H28           -0.4087    -0.4159     0.9851 H       
  29 H29            2.2844     2.7820     0.0590 H       
  30 H30            4.1359     2.5834    -0.6817 H       
  31 H31            5.8097    -1.9264    -1.5236 H       
  32 H32            6.4256     2.2982    -1.6006 H       
  33 H33            0.1935    -3.5511     0.4521 H       
  34 H34           -1.3569    -2.5498     2.3346 H       
  35 H35            2.8123    -2.6705     4.9641 H       
  36 H36            2.8940    -2.9740     2.5231 H       
  37 H37           -1.4312    -2.2474     4.7760 H       
@<TRIPOS>BOND
   1    1    2 1
   2    1    5 2
   3    1   27 1
   4    2    3 2
   5    2   28 1
   6    3    4 1
   7    3   12 1
   8    4    5 1
   9    4    6 1
  10    5   29 1
  11    6    7 ar
  12    6    8 ar
  13    7   11 ar
  14    7   30 1
  15    8    9 ar
  16    9   10 ar
  17    9   31 1
  18   10   11 ar
  19   10   23 1
  20   11   32 1
  21   12   13 2
  22   12   14 2
  23   12   15 am
  24   15   16 1
  25   15   33 1
  26   16   17 ar
  27   16   19 ar
  28   17   20 ar
  29   17   34 1
  30   18   19 ar
  31   18   21 ar
  32   18   35 1
  33   19   36 1
  34   20   21 ar
  35   20   37 1
  36   21   22 1
  37   23   24 1
  38   23   25 1
  39   23   26 1

#	End of record

