#	Name: ASD03082382
#	Creating user name:	WinNT
#	Creation time:	15. 06. 2019 20:27

#	Modifying user name:	WinNT
#	Modification time:	15. 06. 2019 20:27

#	Program:	/corina/corina34_cracker 3.40 0067  02.08.2006

@<TRIPOS>MOLECULE
ASD03082382
  37   39    0    0    0
SMALL
NO_CHARGES


@<TRIPOS>ATOM
   1 C1             2.4140     1.4130    -0.0508 C.ar    
   2 C2             2.4253     0.0236     0.0042 C.ar    
   3 C3             3.6345    -0.6555     0.0778 C.ar    
   4 C4             4.8220     0.0499     0.0963 C.ar    
   5 C5             4.8095     1.4315     0.0421 C.ar    
   6 C6             3.6076     2.1132    -0.0372 C.ar    
   7 Cl7            3.5969     3.8478    -0.1056 Cl      
   8 N8             1.2217    -0.6884    -0.0143 N.pl3   
   9 C9             1.2353    -2.0825    -0.1274 C.2     
  10 C10            0.1164    -2.9279    -0.0343 C.2     
  11 N11            2.2945    -2.8266    -0.3446 N.2     
  12 N12            1.8865    -4.1659    -0.3906 N.pl3   
  13 C13            0.5421    -4.2006    -0.1970 C.2     
  14 C14            2.7156    -5.2714    -0.6030 C.ar    
  15 C15            2.4648    -6.4856     0.0330 C.ar    
  16 C16            3.8111    -5.1891    -1.4608 C.ar    
  17 C17            4.6045    -6.3028    -1.6439 C.ar    
  18 N18            4.3370    -7.4340    -1.0192 N.ar    
  19 C19            3.3067    -7.5531    -0.2036 C.ar    
  20 C20            5.7915    -6.2266    -2.5692 C.3     
  21 H21            3.1227    -8.4966     0.2886 H       
  22 F22            1.2402     2.0780    -0.1230 F       
  23 C23           -0.3199    -5.4363    -0.1686 C.3     
  24 O24           -1.6803    -5.0630     0.0596 O.3     
  25 H25            3.6463    -1.7346     0.1210 H       
  26 H26            5.7621    -0.4788     0.1536 H       
  27 H27            5.7398     1.9797     0.0571 H       
  28 H28            0.3773    -0.2154     0.0515 H       
  29 H29           -0.9032    -2.6160     0.1374 H       
  30 H30            1.6234    -6.5897     0.7020 H       
  31 H31            4.0354    -4.2664    -1.9754 H       
  32 H32            6.6714    -5.9144    -2.0066 H       
  33 H33            5.9715    -7.2068    -3.0107 H       
  34 H34            5.5903    -5.5035    -3.3596 H       
  35 H35           -0.2411    -5.9563    -1.1233 H       
  36 H36            0.0154    -6.0949     0.6326 H       
  37 H37           -2.2934    -5.8102     0.0901 H       
@<TRIPOS>BOND
   1    1    2 ar
   2    1   22 1
   3    1    6 ar
   4    2    3 ar
   5    2    8 1
   6    3    4 ar
   7    3   25 1
   8    4    5 ar
   9    4   26 1
  10    5    6 ar
  11    5   27 1
  12    6    7 1
  13    8    9 1
  14    8   28 1
  15    9   10 1
  16    9   11 2
  17   10   13 2
  18   10   29 1
  19   11   12 1
  20   12   13 1
  21   12   14 1
  22   13   23 1
  23   14   15 ar
  24   14   16 ar
  25   15   19 ar
  26   15   30 1
  27   16   17 ar
  28   16   31 1
  29   17   18 ar
  30   17   20 1
  31   18   19 ar
  32   19   21 1
  33   20   32 1
  34   20   33 1
  35   20   34 1
  36   23   24 1
  37   23   35 1
  38   23   36 1
  39   24   37 1

#	End of record

