#	Name: ASD02408379
#	Creating user name:	WinNT
#	Creation time:	15. 06. 2019 20:21

#	Modifying user name:	WinNT
#	Modification time:	15. 06. 2019 20:21

#	Program:	/corina/corina34_cracker 3.40 0067  02.08.2006

@<TRIPOS>MOLECULE
ASD02408379
  24   25    0    0    0
SMALL
NO_CHARGES


@<TRIPOS>ATOM
   1 C1            -0.0251     1.1361     0.4719 C.2     
   2 C2             0.0015     0.2894    -0.6608 C.2     
   3 C3             1.2983     1.3959     0.8175 C.2     
   4 N4             2.0773     0.7346    -0.0683 N.pl3   
   5 N5             1.2472     0.0598    -0.9699 N.2     
   6 C6             3.4786     0.7270    -0.0813 C.ar    
   7 C7             4.1797     1.9204    -0.1895 C.ar    
   8 C8             5.5610     1.9096    -0.2021 C.ar    
   9 C9             6.2452     0.7120    -0.1074 C.ar    
  10 C10            5.5496    -0.4786     0.0001 C.ar    
  11 C11            4.1688    -0.4738     0.0199 C.ar    
  12 N12            1.7337     2.1815     1.8673 N.pl3   
  13 C13           -1.1922     1.6363     1.1341 C.1     
  14 N14           -2.1180     2.0331     1.6593 N.1     
  15 N15            3.4251    -1.7483     0.1354 N.pl3   
  16 O16            4.0245    -2.8082     0.1043 O.2     
  17 O17            2.2137    -1.7373     0.2616 O.2     
  18 H18           -0.8615    -0.1003    -1.1801 H       
  19 H19            3.6457     2.8562    -0.2642 H       
  20 H20            6.1069     2.8377    -0.2862 H       
  21 H21            7.3252     0.7061    -0.1178 H       
  22 H22            6.0870    -1.4125     0.0735 H       
  23 H23            1.0934     2.6837     2.3953 H       
  24 H24            2.6796     2.2309     2.0764 H       
@<TRIPOS>BOND
   1    1    2 1
   2    1    3 2
   3    1   13 1
   4    2    5 2
   5    2   18 1
   6    3    4 1
   7    3   12 1
   8    4    5 1
   9    4    6 1
  10    6    7 ar
  11    6   11 ar
  12    7    8 ar
  13    7   19 1
  14    8    9 ar
  15    8   20 1
  16    9   10 ar
  17    9   21 1
  18   10   11 ar
  19   10   22 1
  20   11   15 1
  21   12   23 1
  22   12   24 1
  23   13   14 3
  24   15   16 2
  25   15   17 2

#	End of record

