#	Name: ASD01914773
#	Creating user name:	WinNT
#	Creation time:	15. 06. 2019 20:04

#	Modifying user name:	WinNT
#	Modification time:	15. 06. 2019 20:04

#	Program:	/corina/corina34_cracker 3.40 0067  02.08.2006

@<TRIPOS>MOLECULE
ASD01914773
  43   46    0    0    0
SMALL
NO_CHARGES


@<TRIPOS>ATOM
   1 N1            -0.0053     1.4591     0.2361 N.am    
   2 C2             0.0670     0.1100    -0.0044 C.2     
   3 C3            -1.1677    -0.7151    -0.2776 C.3     
   4 C4            -2.3511    -0.0410     0.4254 C.3     
   5 N5            -2.3219     1.4067     0.2404 N.am    
   6 C6            -1.1775     2.1194     0.2651 C.2     
   7 C7             1.2694     1.9015     0.4265 C.2     
   8 C8             2.0735     0.8256     0.3063 C.2     
   9 N9             1.3073    -0.2504     0.0459 N.2     
  10 C10            3.5745     0.8273     0.4408 C.3     
  11 O11           -1.2042     3.3330     0.3129 O.2     
  12 C12           -3.5246     2.0790     0.0300 C.ar    
  13 O13            4.0264     2.1543     0.7179 O.3     
  14 C14            5.3654     2.3311     0.8691 C.ar    
  15 C15            5.8733     3.5934     1.1398 C.ar    
  16 C16            6.2260     1.2487     0.7588 C.ar    
  17 C17            7.5866     1.4309     0.9133 C.ar    
  18 C18            8.0908     2.6908     1.1783 C.ar    
  19 C19            7.2347     3.7705     1.2935 C.ar    
  20 N20           -3.5093     3.3403    -0.3708 N.ar    
  21 C21           -4.6246     4.0130    -0.5816 C.ar    
  22 C22           -5.8564     3.4195    -0.3897 C.ar    
  23 C23           -5.9159     2.0976     0.0305 C.ar    
  24 C24           -4.7294     1.4167     0.2377 C.ar    
  25 C25           -7.1231     4.1987    -0.6334 C.3     
  26 H26           -1.3523    -0.7580    -1.3510 H       
  27 H27           -1.0316    -1.7231     0.1143 H       
  28 H28           -3.2813    -0.4346     0.0155 H       
  29 H29           -2.3085    -0.2657     1.4911 H       
  30 H30            1.5761     2.9163     0.6331 H       
  31 H31            3.8670     0.1660     1.2564 H       
  32 H32            4.0230     0.4775    -0.4891 H       
  33 H33            5.2050     4.4370     1.2299 H       
  34 H34            5.8326     0.2642     0.5525 H       
  35 H35            8.2571     0.5886     0.8275 H       
  36 H36            9.1548     2.8312     1.2991 H       
  37 H37            7.6310     4.7536     1.5001 H       
  38 H38           -4.5734     5.0412    -0.9081 H       
  39 H39           -6.8669     1.6105     0.1883 H       
  40 H40           -4.7389     0.3874     0.5646 H       
  41 H41           -7.4313     4.0757    -1.6716 H       
  42 H42           -7.9092     3.8294     0.0252 H       
  43 H43           -6.9450     5.2546    -0.4299 H       
@<TRIPOS>BOND
   1    1    2 1
   2    1    7 1
   3    1    6 am
   4    2    3 1
   5    2    9 2
   6    3    4 1
   7    3   26 1
   8    3   27 1
   9    4    5 1
  10    4   28 1
  11    4   29 1
  12    5    6 am
  13    5   12 1
  14    6   11 2
  15    7    8 2
  16    7   30 1
  17    8    9 1
  18    8   10 1
  19   10   13 1
  20   10   31 1
  21   10   32 1
  22   12   20 ar
  23   12   24 ar
  24   13   14 1
  25   14   15 ar
  26   14   16 ar
  27   15   19 ar
  28   15   33 1
  29   16   17 ar
  30   16   34 1
  31   17   18 ar
  32   17   35 1
  33   18   19 ar
  34   18   36 1
  35   19   37 1
  36   20   21 ar
  37   21   22 ar
  38   21   38 1
  39   22   23 ar
  40   22   25 1
  41   23   24 ar
  42   23   39 1
  43   24   40 1
  44   25   41 1
  45   25   42 1
  46   25   43 1

#	End of record

