#	Name: ASD02500018
#	Creating user name:	WinNT
#	Creation time:	15. 06. 2019 20:22

#	Modifying user name:	WinNT
#	Modification time:	15. 06. 2019 20:22

#	Program:	/corina/corina34_cracker 3.40 0067  02.08.2006

@<TRIPOS>MOLECULE
ASD02500018
  62   65    0    0    0
SMALL
NO_CHARGES


@<TRIPOS>ATOM
   1 C1            -0.4244    -0.2409    -1.9582 C.ar    
   2 C2            -0.3407    -1.3888    -1.1921 C.ar    
   3 C3            -1.3099    -1.6635    -0.2445 C.ar    
   4 C4            -2.3647    -0.7914    -0.0607 C.ar    
   5 C5            -2.4514     0.3629    -0.8284 C.ar    
   6 C6            -1.4737     0.6386    -1.7749 C.ar    
   7 C7             0.6336     0.0543    -2.9899 C.3     
   8 N8            -3.5190     1.2487    -0.6445 N.am    
   9 C9            -4.7364     0.7766    -0.3106 C.2     
  10 O10           -4.9305    -0.4226    -0.2596 O.2     
  11 N11           -5.7387     1.6339    -0.0331 N.am    
  12 C12           -7.0894     1.1251     0.2181 C.3     
  13 C13           -5.4893     3.0100     0.0150 C.ar    
  14 C14           -5.9836     3.8408    -0.9803 C.ar    
  15 C15           -5.7348     5.2035    -0.9290 C.ar    
  16 C16           -4.9925     5.7335     0.1168 C.ar    
  17 C17           -4.5009     4.9044     1.1073 C.ar    
  18 C18           -4.7512     3.5468     1.0624 C.ar    
  19 O19           -6.2173     6.0199    -1.9024 O.3     
  20 C20           -7.5395     1.5518     1.5916 C.2     
  21 C21           -8.0499     1.6883    -0.8312 C.3     
  22 N22           -8.2902     0.6861     2.3215 N.am    
  23 C23           -8.7191     1.0213     3.5607 C.2     
  24 C24           -8.3401     2.3468     4.0725 C.ar    
  25 C25           -7.5573     3.1794     3.2418 C.ar    
  26 N26           -7.1856     2.7257     2.0186 N.2     
  27 C27           -8.7305     2.7887     5.3345 C.ar    
  28 C28           -8.3474     4.0409     5.7639 C.ar    
  29 C29           -7.5785     4.8619     4.9500 C.ar    
  30 C30           -7.1824     4.4440     3.6992 C.ar    
  31 O31           -9.3925     0.2557     4.2254 O.2     
  32 C32           -8.6390    -0.6222     1.7620 C.3     
  33 C33           -7.5923    -1.6540     2.1867 C.3     
  34 C34           -7.9511    -2.9998     1.6112 C.2     
  35 O35           -8.9424    -3.1211     0.9311 O.2     
  36 O36           -7.1695    -4.0636     1.8541 O.3     
  37 H37            0.4831    -2.0726    -1.3342 H       
  38 H38           -1.2419    -2.5611     0.3521 H       
  39 H39           -3.1216    -1.0068     0.6790 H       
  40 H40           -1.5381     1.5354    -2.3732 H       
  41 H41            0.3432    -0.3852    -3.9442 H       
  42 H42            0.7391     1.1331    -3.1039 H       
  43 H43            1.5839    -0.3717    -2.6680 H       
  44 H44           -3.3828     2.2024    -0.7574 H       
  45 H45           -7.0844     0.0367     0.1592 H       
  46 H46           -6.5609     3.4264    -1.7936 H       
  47 H47           -4.7984     6.7952     0.1566 H       
  48 H48           -3.9234     5.3195     1.9202 H       
  49 H49           -4.3662     2.9011     1.8379 H       
  50 H50           -7.0980     6.3739    -1.7181 H       
  51 H51           -8.1181     2.7702    -0.7179 H       
  52 H52           -7.6792     1.4500    -1.8282 H       
  53 H53           -9.0367     1.2458    -0.6952 H       
  54 H54           -9.3292     2.1547     5.9717 H       
  55 H55           -8.6482     4.3867     6.7418 H       
  56 H56           -7.2875     5.8404     5.3023 H       
  57 H57           -6.5839     5.0912     3.0751 H       
  58 H58           -9.6188    -0.9255     2.1310 H       
  59 H59           -8.6646    -0.5570     0.6743 H       
  60 H60           -6.6125    -1.3507     1.8178 H       
  61 H61           -7.5667    -1.7192     3.2745 H       
  62 H62           -7.4404    -4.9058     1.4636 H       
@<TRIPOS>BOND
   1    1    2 ar
   2    1    7 1
   3    1    6 ar
   4    2    3 ar
   5    2   37 1
   6    3    4 ar
   7    3   38 1
   8    4    5 ar
   9    4   39 1
  10    5    6 ar
  11    5    8 1
  12    6   40 1
  13    7   41 1
  14    7   42 1
  15    7   43 1
  16    8    9 am
  17    8   44 1
  18    9   10 2
  19    9   11 am
  20   11   12 1
  21   11   13 1
  22   12   20 1
  23   12   21 1
  24   12   45 1
  25   13   14 ar
  26   13   18 ar
  27   14   15 ar
  28   14   46 1
  29   15   16 ar
  30   15   19 1
  31   16   17 ar
  32   16   47 1
  33   17   18 ar
  34   17   48 1
  35   18   49 1
  36   19   50 1
  37   20   22 1
  38   20   26 2
  39   21   51 1
  40   21   52 1
  41   21   53 1
  42   22   23 am
  43   22   32 1
  44   23   24 1
  45   23   31 2
  46   24   25 ar
  47   24   27 ar
  48   25   26 1
  49   25   30 ar
  50   27   28 ar
  51   27   54 1
  52   28   29 ar
  53   28   55 1
  54   29   30 ar
  55   29   56 1
  56   30   57 1
  57   32   33 1
  58   32   58 1
  59   32   59 1
  60   33   34 1
  61   33   60 1
  62   33   61 1
  63   34   35 2
  64   34   36 1
  65   36   62 1

#	End of record

