#	Name: ASD08150270
#	Creating user name:	WinNT
#	Creation time:	15. 06. 2019 21:15

#	Modifying user name:	WinNT
#	Modification time:	15. 06. 2019 21:15

#	Program:	/corina/corina34_cracker 3.40 0067  02.08.2006

@<TRIPOS>MOLECULE
ASD08150270
  44   46    0    0    0
SMALL
NO_CHARGES


@<TRIPOS>ATOM
   1 C1            -0.0181     1.4736     0.0145 C.2     
   2 C2             0.0015    -0.0045     0.0113 C.ar    
   3 C3             0.0200    -0.7081     1.2170 C.ar    
   4 C4             0.0378    -2.0872     1.2068 C.ar    
   5 C5             0.0378    -2.7735     0.0051 C.ar    
   6 C6             0.0199    -2.0824    -1.1932 C.ar    
   7 C7            -0.0043    -0.7028    -1.1971 C.ar    
   8 O8             1.0264     2.0953     0.0079 O.2     
   9 N9            -1.1942     2.1319     0.0193 N.am    
  10 C10           -1.2149     3.5256     0.1325 C.ar    
  11 C11           -0.2675     4.1745     0.9138 C.ar    
  12 C12           -0.2908     5.5510     1.0236 C.ar    
  13 C13           -1.2560     6.2831     0.3566 C.ar    
  14 C14           -2.2006     5.6401    -0.4220 C.ar    
  15 C15           -2.1794     4.2643    -0.5406 C.ar    
  16 N16           -0.0300     0.0349    -2.4801 N.pl3   
  17 O17           -0.0350    -0.5759    -3.5339 O.2     
  18 O18           -0.0462     1.2528    -2.4821 O.2     
  19 C19            0.0211     0.0376     2.5265 C.3     
  20 N20           -1.3459     0.4717     2.8440 N.3     
  21 C21           -1.4284     0.9910     4.2169 C.3     
  22 C22           -2.8521     1.4860     4.4849 C.3     
  23 O23           -3.7743     0.4175     4.2539 O.3     
  24 C24           -3.7214    -0.1118     2.9264 C.3     
  25 C25           -2.3064    -0.6230     2.6426 C.3     
  26 H26            0.0522    -2.6327     2.1388 H       
  27 H27            0.0521    -3.8534     0.0027 H       
  28 H28            0.0207    -2.6240    -2.1275 H       
  29 H29           -2.0262     1.6389    -0.0558 H       
  30 H30            0.4863     3.6033     1.4352 H       
  31 H31            0.4454     6.0562     1.6312 H       
  32 H32           -1.2722     7.3594     0.4444 H       
  33 H33           -2.9531     6.2147    -0.9416 H       
  34 H34           -2.9146     3.7630    -1.1528 H       
  35 H35            0.3872    -0.6173     3.3172 H       
  36 H36            0.6701     0.9098     2.4475 H       
  37 H37           -1.1802     0.1975     4.9217 H       
  38 H38           -0.7273     1.8171     4.3362 H       
  39 H39           -2.9329     1.8193     5.5195 H       
  40 H40           -3.0811     2.3154     3.8157 H       
  41 H41           -4.4308    -0.9342     2.8339 H       
  42 H42           -3.9756     0.6711     2.2120 H       
  43 H43           -2.2463    -0.9751     1.6128 H       
  44 H44           -2.0722    -1.4423     3.3223 H       
@<TRIPOS>BOND
   1    1    2 1
   2    1    8 2
   3    1    9 am
   4    2    3 ar
   5    2    7 ar
   6    3    4 ar
   7    3   19 1
   8    4    5 ar
   9    4   26 1
  10    5    6 ar
  11    5   27 1
  12    6    7 ar
  13    6   28 1
  14    7   16 1
  15    9   10 1
  16    9   29 1
  17   10   11 ar
  18   10   15 ar
  19   11   12 ar
  20   11   30 1
  21   12   13 ar
  22   12   31 1
  23   13   14 ar
  24   13   32 1
  25   14   15 ar
  26   14   33 1
  27   15   34 1
  28   16   17 2
  29   16   18 2
  30   19   20 1
  31   19   35 1
  32   19   36 1
  33   20   21 1
  34   20   25 1
  35   21   22 1
  36   21   37 1
  37   21   38 1
  38   22   23 1
  39   22   39 1
  40   22   40 1
  41   23   24 1
  42   24   25 1
  43   24   41 1
  44   24   42 1
  45   25   43 1
  46   25   44 1

#	End of record

