#	Name: ASD01881445
#	Creating user name:	WinNT
#	Creation time:	15. 06. 2019 19:42

#	Modifying user name:	WinNT
#	Modification time:	15. 06. 2019 19:42

#	Program:	/corina/corina34_cracker 3.40 0067  02.08.2006

@<TRIPOS>MOLECULE
ASD01881445
  54   59    0    0    0
SMALL
NO_CHARGES


@<TRIPOS>ATOM
   1 C1             0.8050     0.2740     3.1148 C.3     
   2 C2             1.4606     9.6344     5.3281 C.ar    
   3 C3             1.7931     8.3522     4.9447 C.ar    
   4 C4             0.1295     9.9825     5.5129 C.ar    
   5 C5            -0.8726     9.0402     5.3122 C.ar    
   6 C6            -0.5466     7.7561     4.9287 C.ar    
   7 C7             0.7906     7.4039     4.7424 C.ar    
   8 C8             1.1447     6.0258     4.3300 C.2     
   9 C9             1.7327     5.7945     3.1006 C.2     
  10 C10            0.8894     4.9330     5.1940 C.2     
  11 C11            1.2123     3.6816     4.8175 C.2     
  12 N12            1.7886     3.4433     3.6030 N.pl3   
  13 C13            2.0575     4.4763     2.7378 C.2     
  14 C14            2.2105     2.3120     2.9732 C.2     
  15 N15            2.6913     2.6650     1.8092 N.2     
  16 N16            2.6072     3.9401     1.6590 N.2     
  17 C17            2.1372     0.9090     3.5184 C.3     
  18 Cl18          -2.5358     9.4800     5.5451 Cl      
  19 O19           -0.1944    11.2467     5.8907 O.3     
  20 C20            0.8033    12.1634     5.9704 C.ar    
  21 C21            1.1645    12.9241     4.8611 C.ar    
  22 C22            1.4885    12.3715     7.1654 C.ar    
  23 C23            0.5860    -1.1970     3.4741 C.3     
  24 C24           -0.1659    -0.1034     4.2354 C.3     
  25 C25            2.1839    13.8460     4.9830 C.ar    
  26 N26            2.8128    14.0107     6.1312 N.ar    
  27 C27            2.4961    13.3127     7.2056 C.ar    
  28 C28            3.2483    13.5431     8.4910 C.3     
  29 C29            2.6400    14.5188     9.5004 C.3     
  30 C30            2.6193    13.0151     9.7819 C.3     
  31 C31            2.0206     6.9387     2.1632 C.3     
  32 F32            3.3421     7.3634     2.3378 F       
  33 F33            1.8372     6.5167     0.8420 F       
  34 F34            1.1499     7.9983     2.4394 F       
  35 H35            0.3781     0.6322     2.1780 H       
  36 H36            2.2371    10.3676     5.4892 H       
  37 H37            2.8290     8.0825     4.8009 H       
  38 H38           -1.3252     7.0241     4.7732 H       
  39 H39            0.4343     5.1043     6.1583 H       
  40 H40            1.0134     2.8559     5.4846 H       
  41 H41            2.2117     0.9372     4.6055 H       
  42 H42            2.9588     0.3183     3.1131 H       
  43 H43            0.6539    12.7939     3.9183 H       
  44 H44            1.2340    11.8039     8.0483 H       
  45 H45            0.0147    -1.8065     2.7739 H       
  46 H46            1.3910    -1.7124     3.9980 H       
  47 H47            0.1444     0.1007     5.2602 H       
  48 H48           -1.2319     0.0066     4.0361 H       
  49 H49            2.4708    14.4400     4.1278 H       
  50 H50            4.3350    13.5136     8.4115 H       
  51 H51            3.3265    15.1309    10.0852 H       
  52 H52            1.6957    14.9941     9.2347 H       
  53 H53            1.6614    12.5011     9.7015 H       
  54 H54            3.2922    12.6379    10.5520 H       
@<TRIPOS>BOND
   1    1   23 1
   2    1   17 1
   3    1   24 1
   4    1   35 1
   5    2    3 ar
   6    2    4 ar
   7    2   36 1
   8    3    7 ar
   9    3   37 1
  10    4    5 ar
  11    4   19 1
  12    5    6 ar
  13    5   18 1
  14    6    7 ar
  15    6   38 1
  16    7    8 1
  17    8    9 2
  18    8   10 1
  19    9   31 1
  20    9   13 1
  21   10   11 2
  22   10   39 1
  23   11   12 1
  24   11   40 1
  25   12   13 1
  26   12   14 1
  27   13   16 2
  28   14   15 2
  29   14   17 1
  30   15   16 1
  31   17   41 1
  32   17   42 1
  33   19   20 1
  34   20   21 ar
  35   20   22 ar
  36   21   25 ar
  37   21   43 1
  38   22   27 ar
  39   22   44 1
  40   23   24 1
  41   23   45 1
  42   23   46 1
  43   24   47 1
  44   24   48 1
  45   25   26 ar
  46   25   49 1
  47   26   27 ar
  48   27   28 1
  49   28   29 1
  50   28   30 1
  51   28   50 1
  52   29   30 1
  53   29   51 1
  54   29   52 1
  55   30   53 1
  56   30   54 1
  57   31   32 1
  58   31   33 1
  59   31   34 1

#	End of record

