#	Name: ASD01320044
#	Creating user name:	WinNT
#	Creation time:	15. 06. 2019 19:15

#	Modifying user name:	WinNT
#	Modification time:	15. 06. 2019 19:15

#	Program:	/corina/corina34_cracker 3.40 0067  02.08.2006

@<TRIPOS>MOLECULE
ASD01320044
  24   25    0    0    0
SMALL
NO_CHARGES


@<TRIPOS>ATOM
   1 O1             0.0021    -0.0041     0.0020 O.2     
   2 C2            -0.0144     1.2118     0.0087 C.2     
   3 N3             1.1522     1.8839     0.0012 N.am    
   4 C4             2.4195     1.1491    -0.0149 C.3     
   5 C5             1.1560     3.2694     0.0081 C.2     
   6 C6            -0.0588     3.9432     0.0233 C.2     
   7 N7             0.2462     5.2896     0.0267 N.pl3   
   8 C8            -0.7097     6.3997     0.0419 C.3     
   9 C9             1.5898     5.3889     0.0139 C.2     
  10 N10            2.1207     4.1928     0.0030 N.2     
  11 N11           -1.1969     1.8509     0.0179 N.am    
  12 C12           -2.4379     1.0722     0.0196 C.3     
  13 C13           -1.2581     3.1988     0.0317 C.2     
  14 O14           -2.3355     3.7665     0.0450 O.2     
  15 H15            2.2183     0.0779    -0.0187 H       
  16 H16            2.9830     1.4162    -0.9089 H       
  17 H17            3.0000     1.4066     0.8710 H       
  18 H18           -0.9362     6.6700     1.0732 H       
  19 H19           -0.2776     7.2582    -0.4723 H       
  20 H20           -1.6264     6.0967    -0.4640 H       
  21 H21            2.1447     6.3154     0.0122 H       
  22 H22           -2.1994     0.0087     0.0127 H       
  23 H23           -3.0144     1.3095     0.9137 H       
  24 H24           -3.0230     1.3192    -0.8662 H       
@<TRIPOS>BOND
   1    1    2 2
   2    2    3 am
   3    2   11 am
   4    3    4 1
   5    3    5 1
   6    4   15 1
   7    4   16 1
   8    4   17 1
   9    5    6 2
  10    5   10 1
  11    6    7 1
  12    6   13 1
  13    7    8 1
  14    7    9 1
  15    8   18 1
  16    8   19 1
  17    8   20 1
  18    9   10 2
  19    9   21 1
  20   11   12 1
  21   11   13 am
  22   12   22 1
  23   12   23 1
  24   12   24 1
  25   13   14 2

#	End of record

