#	Name: ASD08390049
#	Creating user name:	WinNT
#	Creation time:	15. 06. 2019 21:19

#	Modifying user name:	WinNT
#	Modification time:	15. 06. 2019 21:19

#	Program:	/corina/corina34_cracker 3.40 0067  02.08.2006

@<TRIPOS>MOLECULE
ASD08390049
  43   45    0    0    0
SMALL
NO_CHARGES


@<TRIPOS>ATOM
   1 C1            -0.1648     1.5262     0.0964 C.3     
   2 C2             0.0021    -0.0041     0.0020 C.3     
   3 N3             1.2235     2.0158     0.0485 N.pl3   
   4 C4             2.0540     0.9404    -0.0564 C.2     
   5 N5             1.4567    -0.1941    -0.0873 N.2     
   6 C6            -0.9548     2.0491    -1.0756 C.ar    
   7 C7             1.6403     3.4192     0.1042 C.3     
   8 C8             1.8599     3.8214     1.5399 C.ar    
   9 C9            -2.2993     2.3357    -0.9302 C.ar    
  10 C10           -3.0240     2.8153    -2.0052 C.ar    
  11 C11           -2.4040     3.0088    -3.2255 C.ar    
  12 C12           -1.0593     2.7231    -3.3706 C.ar    
  13 C13           -0.3337     2.2476    -2.2945 C.ar    
  14 C14            3.1065     3.6687     2.1175 C.ar    
  15 C15            0.8163     4.3482     2.2775 C.ar    
  16 C16            1.0177     4.7171     3.5944 C.ar    
  17 C17            2.2627     4.5588     4.1738 C.ar    
  18 C18            3.3080     4.0375     3.4344 C.ar    
  19 C19           -0.5524    -0.6832     1.2559 C.3     
  20 C20           -0.6808    -0.5357    -1.2317 C.2     
  21 O21           -1.8198    -0.9338    -1.1677 O.2     
  22 O22           -0.0237    -0.5670    -2.4018 O.3     
  23 C23            3.5533     1.0736    -0.1302 C.3     
  24 H24           -0.6394     1.8046     1.0373 H       
  25 H25            2.5678     3.5451    -0.4543 H       
  26 H26            0.8641     4.0464    -0.3341 H       
  27 H27           -2.7837     2.1845     0.0232 H       
  28 H28           -4.0745     3.0386    -1.8918 H       
  29 H29           -2.9704     3.3829    -4.0656 H       
  30 H30           -0.5751     2.8740    -4.3241 H       
  31 H31            0.7169     2.0244    -2.4078 H       
  32 H32            3.9229     3.2608     1.5400 H       
  33 H33           -0.1565     4.4720     1.8248 H       
  34 H34            0.2025     5.1294     4.1704 H       
  35 H35            2.4202     4.8474     5.2025 H       
  36 H36            4.2807     3.9138     3.8871 H       
  37 H37           -1.6120    -0.4488     1.3577 H       
  38 H38           -0.4256    -1.7625     1.1707 H       
  39 H39           -0.0145    -0.3223     2.1326 H       
  40 H40           -0.5031    -0.9166    -3.1653 H       
  41 H41            3.9702     1.0485     0.8766 H       
  42 H42            3.9630     0.2491    -0.7137 H       
  43 H43            3.8110     2.0194    -0.6067 H       
@<TRIPOS>BOND
   1    1    2 1
   2    1    3 1
   3    1    6 1
   4    1   24 1
   5    2   19 1
   6    2   20 1
   7    2    5 1
   8    3    4 1
   9    3    7 1
  10    4    5 2
  11    4   23 1
  12    6    9 ar
  13    6   13 ar
  14    7    8 1
  15    7   25 1
  16    7   26 1
  17    8   14 ar
  18    8   15 ar
  19    9   10 ar
  20    9   27 1
  21   10   11 ar
  22   10   28 1
  23   11   12 ar
  24   11   29 1
  25   12   13 ar
  26   12   30 1
  27   13   31 1
  28   14   18 ar
  29   14   32 1
  30   15   16 ar
  31   15   33 1
  32   16   17 ar
  33   16   34 1
  34   17   18 ar
  35   17   35 1
  36   18   36 1
  37   19   37 1
  38   19   38 1
  39   19   39 1
  40   20   21 2
  41   20   22 1
  42   22   40 1
  43   23   41 1
  44   23   42 1
  45   23   43 1

#	End of record

