#	Name: ASD03090699
#	Creating user name:	WinNT
#	Creation time:	15. 06. 2019 20:29

#	Modifying user name:	WinNT
#	Modification time:	15. 06. 2019 20:29

#	Program:	/corina/corina34_cracker 3.40 0067  02.08.2006

@<TRIPOS>MOLECULE
ASD03090699
  34   35    0    0    0
SMALL
NO_CHARGES


@<TRIPOS>ATOM
   1 N1            -0.0162     1.3436     0.0094 N.am    
   2 C2            -0.1434     0.0021     0.0365 C.2     
   3 O3             0.8430    -0.7039    -0.0461 O.2     
   4 N4            -1.3641    -0.5568     0.1550 N.am    
   5 S5            -0.1985    -3.0493     0.0770 S.3     
   6 C6            -1.4953    -1.9402     0.1829 C.2     
   7 N7            -2.6187    -2.5774     0.2937 N.2     
   8 C8            -2.5591    -3.8962     0.3039 C.2     
   9 C9            -1.3270    -4.3967     0.1968 C.2     
  10 C10           -3.7836    -4.7660     0.4276 C.3     
  11 C11           -5.0283    -3.8824     0.5315 C.3     
  12 F12           -3.8877    -5.5877    -0.6999 F       
  13 F13           -3.6779    -5.5596     1.5749 F       
  14 F14           -5.1340    -3.0888    -0.6157 F       
  15 F15           -6.1651    -4.6898     0.6463 F       
  16 F16           -4.9242    -3.0607     1.6590 F       
  17 C17            1.2581     1.9266     0.0080 C.ar    
  18 C18            1.4789     3.1118    -0.6810 C.ar    
  19 C19            2.7346     3.6861    -0.6815 C.ar    
  20 C20            3.7757     3.0789     0.0057 C.ar    
  21 C21            3.5559     1.8948     0.6937 C.ar    
  22 C22            2.2989     1.3226     0.7002 C.ar    
  23 C23            0.3484     3.7710    -1.4283 C.3     
  24 O24            5.0121     3.6447     0.0043 O.3     
  25 H25           -0.8066     1.9053    -0.0131 H       
  26 H26           -2.1511     0.0064     0.2209 H       
  27 H27           -1.0670    -5.4449     0.1849 H       
  28 H28            2.9064     4.6079    -1.2174 H       
  29 H29            4.3669     1.4225     1.2281 H       
  30 H30            2.1267     0.4031     1.2399 H       
  31 H31           -0.1690     4.4652    -0.7661 H       
  32 H32            0.7472     4.3147    -2.2847 H       
  33 H33           -0.3508     3.0099    -1.7746 H       
  34 H34            5.1600     4.2685     0.7283 H       
@<TRIPOS>BOND
   1    1    2 am
   2    1   17 1
   3    1   25 1
   4    2    3 2
   5    2    4 am
   6    4    6 1
   7    4   26 1
   8    5    6 1
   9    5    9 1
  10    6    7 2
  11    7    8 1
  12    8    9 2
  13    8   10 1
  14    9   27 1
  15   10   11 1
  16   10   12 1
  17   10   13 1
  18   11   14 1
  19   11   15 1
  20   11   16 1
  21   17   18 ar
  22   17   22 ar
  23   18   19 ar
  24   18   23 1
  25   19   20 ar
  26   19   28 1
  27   20   21 ar
  28   20   24 1
  29   21   22 ar
  30   21   29 1
  31   22   30 1
  32   23   31 1
  33   23   32 1
  34   23   33 1
  35   24   34 1

#	End of record

