#	Name: ASD01912964
#	Creating user name:	WinNT
#	Creation time:	15. 06. 2019 20:00

#	Modifying user name:	WinNT
#	Modification time:	15. 06. 2019 20:00

#	Program:	/corina/corina34_cracker 3.40 0067  02.08.2006

@<TRIPOS>MOLECULE
ASD01912964
  37   39    0    0    0
SMALL
NO_CHARGES


@<TRIPOS>ATOM
   1 C1            -0.0173     1.4278     0.0099 C.2     
   2 C2             0.0021    -0.0041     0.0020 C.1     
   3 C3             0.0180    -1.1779    -0.0044 C.1     
   4 C4             0.0374    -2.6098    -0.0123 C.ar    
   5 C5            -1.1616    -3.3287    -0.0047 C.ar    
   6 C6             1.2554    -3.2957    -0.0335 C.ar    
   7 C7             1.2660    -4.6747    -0.0414 C.ar    
   8 C8             0.0750    -5.3794    -0.0290 C.ar    
   9 C9            -1.1348    -4.7074    -0.0129 C.ar    
  10 N10            1.0315     2.1979     0.0040 N.2     
  11 C11            0.8407     3.5060     0.0143 C.2     
  12 C12           -0.4581     3.8737     0.0242 C.2     
  13 S13           -1.4644     2.4309     0.0214 S.3     
  14 C14            1.9819     4.5147     0.0224 C.3     
  15 C15            1.4544     5.8740    -0.4410 C.3     
  16 N16            0.2053     6.1747     0.2746 N.am    
  17 C17           -0.9550     5.3022     0.0266 C.3     
  18 C18            0.1251     7.2137     1.1292 C.2     
  19 O19            1.0933     7.9191     1.3187 O.2     
  20 C20           -0.9897     8.7221     2.7512 C.3     
  21 C21           -1.1676     7.4991     1.8493 C.3     
  22 H22           -2.1064    -2.8056     0.0078 H       
  23 H23            2.1856    -2.7471    -0.0439 H       
  24 H24            2.2061    -5.2060    -0.0578 H       
  25 H25            0.0896    -6.4593    -0.0360 H       
  26 H26           -2.0601    -5.2642    -0.0032 H       
  27 H27            2.3817     4.6043     1.0324 H       
  28 H28            2.7688     4.1798    -0.6534 H       
  29 H29            2.1935     6.6451    -0.2238 H       
  30 H30            1.2618     5.8439    -1.5134 H       
  31 H31           -1.3981     5.5415    -0.9401 H       
  32 H32           -1.6940     5.4358     0.8166 H       
  33 H33           -0.2037     8.5248     3.4801 H       
  34 H34           -0.7141     9.5844     2.1440 H       
  35 H35           -1.9247     8.9286     3.2720 H       
  36 H36           -1.9536     7.6964     1.1204 H       
  37 H37           -1.4433     6.6369     2.4565 H       
@<TRIPOS>BOND
   1    1    2 1
   2    1   10 2
   3    1   13 1
   4    2    3 3
   5    3    4 1
   6    4    5 ar
   7    4    6 ar
   8    5    9 ar
   9    5   22 1
  10    6    7 ar
  11    6   23 1
  12    7    8 ar
  13    7   24 1
  14    8    9 ar
  15    8   25 1
  16    9   26 1
  17   10   11 1
  18   11   12 2
  19   11   14 1
  20   12   13 1
  21   12   17 1
  22   14   15 1
  23   14   27 1
  24   14   28 1
  25   15   16 1
  26   15   29 1
  27   15   30 1
  28   16   17 1
  29   16   18 am
  30   17   31 1
  31   17   32 1
  32   18   21 1
  33   18   19 2
  34   20   21 1
  35   20   33 1
  36   20   34 1
  37   20   35 1
  38   21   36 1
  39   21   37 1

#	End of record

