#	Name: ASD01410855
#	Creating user name:	WinNT
#	Creation time:	15. 06. 2019 19:18

#	Modifying user name:	WinNT
#	Modification time:	15. 06. 2019 19:18

#	Program:	/corina/corina34_cracker 3.40 0067  02.08.2006

@<TRIPOS>MOLECULE
ASD01410855
  52   55    0    0    0
SMALL
NO_CHARGES


@<TRIPOS>ATOM
   1 C1            -0.0169     1.3937     0.0097 C.ar    
   2 C2             0.0021    -0.0041     0.0020 C.ar    
   3 C3            -1.1570    -0.7170     0.0088 C.ar    
   4 C4            -2.3902    -0.0471     0.0241 C.ar    
   5 C5            -2.4216     1.3696     0.0325 C.ar    
   6 C6            -1.2096     2.0815     0.0305 C.ar    
   7 O7             1.1549     2.0814     0.0022 O.3     
   8 C8             2.3588     1.3116    -0.0134 C.3     
   9 C9             3.5655     2.2522    -0.0199 C.3     
  10 N10            3.6039     3.0081     1.2391 N.3     
  11 C11            4.8697     3.7437     1.3735 C.3     
  12 Cl12          -1.2165     3.8175     0.0412 Cl      
  13 N13           -3.5943     2.0117     0.0472 N.ar    
  14 C14           -3.6072    -0.7607     0.0310 C.ar    
  15 Cl15          -3.6209    -2.4967     0.0217 Cl      
  16 C16           -4.7730    -0.0522     0.0455 C.ar    
  17 C17           -4.7376     1.3509     0.0540 C.ar    
  18 C18           -6.0108     2.1071     0.0707 C.2     
  19 C19           -6.0646     3.4561     0.0789 C.2     
  20 N20           -7.1997     1.5196     0.0733 N.2     
  21 C21           -8.2334     2.2864     0.0876 C.2     
  22 S22           -7.7616     3.9290     0.0971 S.3     
  23 C23           -9.6608     1.8031     0.0920 C.3     
  24 C24          -10.3670     2.3101     1.3510 C.3     
  25 C25          -10.3832     2.3351    -1.1473 C.3     
  26 C26            4.8429     4.5625     2.6669 C.3     
  27 O27            4.6044     3.6886     3.7736 O.3     
  28 C28            3.3796     2.9567     3.6757 C.3     
  29 C29            3.3915     2.1217     2.3925 C.3     
  30 H30            0.9483    -0.5245    -0.0098 H       
  31 H31           -1.1279    -1.7966     0.0020 H       
  32 H32            2.3966     0.6782     0.8729 H       
  33 H33            2.3796     0.6878    -0.9070 H       
  34 H34            4.4805     1.6686    -0.1213 H       
  35 H35            3.4817     2.9450    -0.8572 H       
  36 H36            5.6993     3.0375     1.4069 H       
  37 H37            4.9942     4.4125     0.5219 H       
  38 H38           -5.7209    -0.5697     0.0507 H       
  39 H39           -5.2177     4.1264     0.0751 H       
  40 H40           -9.6754     0.7132     0.0812 H       
  41 H41          -10.3524     3.4000     1.3618 H       
  42 H42          -11.3995     1.9606     1.3542 H       
  43 H43           -9.8524     1.9311     2.2339 H       
  44 H44          -10.3686     3.4250    -1.1365 H       
  45 H45           -9.8801     1.9739    -2.0442 H       
  46 H46          -11.4156     1.9855    -1.1441 H       
  47 H47            5.8012     5.0647     2.7996 H       
  48 H48            4.0468     5.3050     2.6113 H       
  49 H49            3.2796     2.2976     4.5380 H       
  50 H50            2.5410     3.6525     3.6494 H       
  51 H51            2.4371     1.6064     2.2847 H       
  52 H52            4.1975     1.3896     2.4422 H       
@<TRIPOS>BOND
   1    1    2 ar
   2    1    7 1
   3    1    6 ar
   4    2    3 ar
   5    2   30 1
   6    3    4 ar
   7    3   31 1
   8    4    5 ar
   9    4   14 ar
  10    5    6 ar
  11    5   13 ar
  12    6   12 1
  13    7    8 1
  14    8    9 1
  15    8   32 1
  16    8   33 1
  17    9   10 1
  18    9   34 1
  19    9   35 1
  20   10   11 1
  21   10   29 1
  22   11   26 1
  23   11   36 1
  24   11   37 1
  25   13   17 ar
  26   14   15 1
  27   14   16 ar
  28   16   17 ar
  29   16   38 1
  30   17   18 1
  31   18   19 2
  32   18   20 1
  33   19   22 1
  34   19   39 1
  35   20   21 2
  36   21   22 1
  37   21   23 1
  38   23   24 1
  39   23   25 1
  40   23   40 1
  41   24   41 1
  42   24   42 1
  43   24   43 1
  44   25   44 1
  45   25   45 1
  46   25   46 1
  47   26   27 1
  48   26   47 1
  49   26   48 1
  50   27   28 1
  51   28   29 1
  52   28   49 1
  53   28   50 1
  54   29   51 1
  55   29   52 1

#	End of record

