#	Name: ASD01913946
#	Creating user name:	WinNT
#	Creation time:	15. 06. 2019 20:02

#	Modifying user name:	WinNT
#	Modification time:	15. 06. 2019 20:02

#	Program:	/corina/corina34_cracker 3.40 0067  02.08.2006

@<TRIPOS>MOLECULE
ASD01913946
  41   43    0    0    0
SMALL
NO_CHARGES


@<TRIPOS>ATOM
   1 C1            -0.0177     1.4278     0.0034 C.ar    
   2 C2             0.0018    -0.0041    -0.0025 C.1     
   3 C3             0.0178    -1.1779    -0.0074 C.1     
   4 C4             0.0373    -2.6098    -0.0134 C.ar    
   5 C5            -1.1605    -3.3385     0.0341 C.ar    
   6 C6             0.1561    -5.3344    -0.0290 C.ar    
   7 N7             1.2695    -4.6186    -0.0788 N.ar    
   8 C8             1.2490    -3.3021    -0.0723 C.ar    
   9 C9            -1.0900    -4.7171     0.0257 C.ar    
  10 C10           -1.2341     2.1132     0.0625 C.ar    
  11 C11           -0.0554     4.1973     0.0159 C.ar    
  12 N12            0.2332    -6.7251    -0.0385 N.am    
  13 C13            1.1798     2.1465    -0.0440 C.ar    
  14 C14           -1.2450     3.4923     0.0684 C.ar    
  15 C15            1.1532     3.5254    -0.0375 C.ar    
  16 C16            0.3821    -7.3692     1.1256 C.2     
  17 C17            0.5162    -8.8645     1.2057 C.3     
  18 O18            0.0959    -9.4554    -0.0264 O.3     
  19 C19            0.6982    -8.8450    -1.1738 C.3     
  20 C20            0.1426    -7.4247    -1.3178 C.3     
  21 C21            2.2161    -8.7913    -0.9893 C.3     
  22 O22            0.4100    -6.7236     2.1519 O.2     
  23 C23            0.3582    -9.6569    -2.4252 C.3     
  24 H24           -2.1142    -2.8334     0.0764 H       
  25 H25            2.1777    -2.7524    -0.1133 H       
  26 H26           -1.9919    -5.3102     0.0616 H       
  27 H27           -2.1633     1.5643     0.1032 H       
  28 H28           -0.0701     5.2772     0.0204 H       
  29 H29            2.1238     1.6235    -0.0854 H       
  30 H30           -2.1845     4.0234     0.1095 H       
  31 H31            2.0779     4.0822    -0.0745 H       
  32 H32            1.5574    -9.1252     1.3959 H       
  33 H33           -0.1048    -9.2410     2.0185 H       
  34 H34           -0.8983    -7.4739    -1.6374 H       
  35 H35            0.7236    -6.8826    -2.0639 H       
  36 H36            2.6039    -9.8032    -0.8720 H       
  37 H37            2.6721    -8.3265    -1.8634 H       
  38 H38            2.4537    -8.2060    -0.1010 H       
  39 H39           -0.7234    -9.6863    -2.5565 H       
  40 H40            0.8175    -9.1906    -3.2968 H       
  41 H41            0.7384   -10.6724    -2.3138 H       
@<TRIPOS>BOND
   1    1    2 1
   2    1   13 ar
   3    1   10 ar
   4    2    3 3
   5    3    4 1
   6    4    5 ar
   7    4    8 ar
   8    5    9 ar
   9    5   24 1
  10    6    7 ar
  11    6   12 1
  12    6    9 ar
  13    7    8 ar
  14    8   25 1
  15    9   26 1
  16   10   14 ar
  17   10   27 1
  18   11   14 ar
  19   11   15 ar
  20   11   28 1
  21   12   16 am
  22   12   20 1
  23   13   15 ar
  24   13   29 1
  25   14   30 1
  26   15   31 1
  27   16   17 1
  28   16   22 2
  29   17   18 1
  30   17   32 1
  31   17   33 1
  32   18   19 1
  33   19   20 1
  34   19   21 1
  35   19   23 1
  36   20   34 1
  37   20   35 1
  38   21   36 1
  39   21   37 1
  40   21   38 1
  41   23   39 1
  42   23   40 1
  43   23   41 1

#	End of record

