#	Name: ASD08830237
#	Creating user name:	WinNT
#	Creation time:	15. 06. 2019 21:20

#	Modifying user name:	WinNT
#	Modification time:	15. 06. 2019 21:20

#	Program:	/corina/corina34_cracker 3.40 0067  02.08.2006

@<TRIPOS>MOLECULE
ASD08830237
  56   58    0    0    0
SMALL
NO_CHARGES


@<TRIPOS>ATOM
   1 C1             0.0030     1.4545    -0.0046 C.ar    
   2 C2             0.0178    -0.0160    -0.0074 C.2     
   3 C3            -1.2797    -0.7826     0.0011 C.3     
   4 O4             1.0740    -0.6118    -0.0165 O.2     
   5 C5            -1.2269     2.1420     0.0119 C.ar    
   6 C6             1.2009     2.1560    -0.0124 C.ar    
   7 C7             1.1781     3.5581    -0.0092 C.ar    
   8 C8            -0.0674     4.2372     0.0019 C.ar    
   9 C9            -1.2652     3.4977     0.0152 C.ar    
  10 C10            2.3704     4.3042    -0.0164 C.ar    
  11 C11            2.3140     5.6643    -0.0126 C.ar    
  12 C12            1.0907     6.3306    -0.0012 C.ar    
  13 C13           -0.0840     5.6412     0.0055 C.ar    
  14 C14           -0.9851    -2.2840    -0.0038 C.3     
  15 N15           -2.2498    -3.0312     0.0044 N.3     
  16 C16           -2.0179    -4.4613    -0.2381 C.3     
  17 C17           -3.3299    -5.2285    -0.0427 C.3     
  18 N18           -4.3618    -4.6131    -0.8912 N.am    
  19 C19           -4.5581    -3.1582    -0.8034 C.3     
  20 C20           -3.1977    -2.4725    -0.9688 C.3     
  21 C21           -5.1078    -5.3627    -1.7266 C.2     
  22 O22           -4.8692    -6.5477    -1.8573 O.2     
  23 N23           -6.1185    -4.7987    -2.4172 N.am    
  24 C24           -6.8578    -5.5855    -3.4075 C.3     
  25 C25           -7.5058    -6.7898    -2.7213 C.3     
  26 C26           -7.9439    -4.7151    -4.0427 C.3     
  27 C27           -5.8958    -6.0735    -4.4925 C.3     
  28 H28           -1.8471    -0.5266     0.8959 H       
  29 H29           -1.8606    -0.5234    -0.8840 H       
  30 H30           -2.1505     1.5823     0.0217 H       
  31 H31            2.1421     1.6264    -0.0206 H       
  32 H32           -2.2157     4.0105     0.0234 H       
  33 H33            3.3258     3.8005    -0.0246 H       
  34 H34            3.2309     6.2350    -0.0182 H       
  35 H35            1.0734     7.4105     0.0019 H       
  36 H36           -1.0243     6.1723     0.0143 H       
  37 H37           -0.4177    -2.5399    -0.8986 H       
  38 H38           -0.4041    -2.5431     0.8813 H       
  39 H39           -1.6615    -4.6042    -1.2582 H       
  40 H40           -1.2713    -4.8329     0.4638 H       
  41 H41           -3.1915    -6.2703    -0.3319 H       
  42 H42           -3.6344    -5.1730     1.0025 H       
  43 H43           -5.2317    -2.8311    -1.5955 H       
  44 H44           -4.9806    -2.9037     0.1686 H       
  45 H45           -3.3068    -1.4017    -0.7969 H       
  46 H46           -2.8249    -2.6430    -1.9788 H       
  47 H47           -6.3564    -3.8718    -2.2586 H       
  48 H48           -8.1912    -6.4421    -1.9483 H       
  49 H49           -8.0559    -7.3752    -3.4580 H       
  50 H50           -6.7320    -7.4099    -2.2687 H       
  51 H51           -7.4823    -3.8572    -4.5316 H       
  52 H52           -8.4940    -5.3005    -4.7795 H       
  53 H53           -8.6293    -4.3675    -3.2697 H       
  54 H54           -5.1220    -6.6936    -4.0399 H       
  55 H55           -6.4458    -6.6589    -5.2292 H       
  56 H56           -5.4341    -5.2156    -4.9813 H       
@<TRIPOS>BOND
   1    1    2 1
   2    1    6 ar
   3    1    5 ar
   4    2    3 1
   5    2    4 2
   6    3   14 1
   7    3   28 1
   8    3   29 1
   9    5    9 ar
  10    5   30 1
  11    6    7 ar
  12    6   31 1
  13    7    8 ar
  14    7   10 ar
  15    8    9 ar
  16    8   13 ar
  17    9   32 1
  18   10   11 ar
  19   10   33 1
  20   11   12 ar
  21   11   34 1
  22   12   13 ar
  23   12   35 1
  24   13   36 1
  25   14   15 1
  26   14   37 1
  27   14   38 1
  28   15   16 1
  29   15   20 1
  30   16   17 1
  31   16   39 1
  32   16   40 1
  33   17   18 1
  34   17   41 1
  35   17   42 1
  36   18   19 1
  37   18   21 am
  38   19   20 1
  39   19   43 1
  40   19   44 1
  41   20   45 1
  42   20   46 1
  43   21   22 2
  44   21   23 am
  45   23   24 1
  46   23   47 1
  47   24   25 1
  48   24   26 1
  49   24   27 1
  50   25   48 1
  51   25   49 1
  52   25   50 1
  53   26   51 1
  54   26   52 1
  55   26   53 1
  56   27   54 1
  57   27   55 1
  58   27   56 1

#	End of record

