#	Name: ASD01900681
#	Creating user name:	WinNT
#	Creation time:	15. 06. 2019 19:52

#	Modifying user name:	WinNT
#	Modification time:	15. 06. 2019 19:52

#	Program:	/corina/corina34_cracker 3.40 0067  02.08.2006

@<TRIPOS>MOLECULE
ASD01900681
  33   36    0    0    0
SMALL
NO_CHARGES


@<TRIPOS>ATOM
   1 C1            -0.0183     1.4024     0.1324 C.ar    
   2 C2            -0.0080     0.0176     0.1214 C.ar    
   3 C3             1.1829    -0.6779     0.0625 C.ar    
   4 C4             2.3875     0.0112     0.0133 C.ar    
   5 C5             2.3724     1.4126     0.0291 C.ar    
   6 O6             3.5589    -0.6564    -0.0563 O.3     
   7 C7             4.7337    -0.0515     0.1901 C.2     
   8 C8             4.8729     1.2945     0.2214 C.2     
   9 C9             3.6750     2.1245    -0.0107 C.2     
  10 C10            5.9231    -0.8912     0.4378 C.ar    
  11 N11            7.0973    -0.3038     0.6840 N.ar    
  12 C12            8.1920    -0.9865     0.9120 C.ar    
  13 C13            8.1641    -2.3909     0.9044 C.ar    
  14 C14            6.9367    -3.0564     0.6470 C.ar    
  15 C15            5.7949    -2.2707     0.4150 C.ar    
  16 C16            9.3168    -3.1589     1.1439 C.ar    
  17 C17            9.1994    -4.5206     1.1173 C.ar    
  18 C18            7.9635    -5.1093     0.8582 C.ar    
  19 N19            6.8891    -4.3899     0.6349 N.ar    
  20 C20            1.1700     2.1048     0.0864 C.ar    
  21 N21            3.7560     3.4127    -0.2376 N.2     
  22 O22            2.5976     4.1420    -0.6001 O.3     
  23 H23           -0.9575     1.9342     0.1725 H       
  24 H24           -0.9417    -0.5240     0.1596 H       
  25 H25            1.1779    -1.7579     0.0550 H       
  26 H26            5.8343     1.7485     0.4110 H       
  27 H27            9.1191    -0.4677     1.1062 H       
  28 H28            4.8392    -2.7324     0.2152 H       
  29 H29           10.2676    -2.6869     1.3429 H       
  30 H30           10.0654    -5.1405     1.2968 H       
  31 H31            7.8877    -6.1865     0.8407 H       
  32 H32            1.1641     3.1847     0.0953 H       
  33 H33            2.7561     5.0845    -0.7468 H       
@<TRIPOS>BOND
   1    1    2 ar
   2    1   20 ar
   3    1   23 1
   4    2    3 ar
   5    2   24 1
   6    3    4 ar
   7    3   25 1
   8    4    5 ar
   9    4    6 1
  10    5   20 ar
  11    5    9 1
  12    6    7 1
  13    7    8 2
  14    7   10 1
  15    8    9 1
  16    8   26 1
  17    9   21 2
  18   10   11 ar
  19   10   15 ar
  20   11   12 ar
  21   12   13 ar
  22   12   27 1
  23   13   14 ar
  24   13   16 ar
  25   14   15 ar
  26   14   19 ar
  27   15   28 1
  28   16   17 ar
  29   16   29 1
  30   17   18 ar
  31   17   30 1
  32   18   19 ar
  33   18   31 1
  34   20   32 1
  35   21   22 1
  36   22   33 1

#	End of record

