#	Name: ASD01811610
#	Creating user name:	WinNT
#	Creation time:	15. 06. 2019 19:27

#	Modifying user name:	WinNT
#	Modification time:	15. 06. 2019 19:27

#	Program:	/corina/corina34_cracker 3.40 0067  02.08.2006

@<TRIPOS>MOLECULE
ASD01811610
  58   61    0    0    0
SMALL
NO_CHARGES


@<TRIPOS>ATOM
   1 C1            -0.2941     0.8001     1.0872 C.ar    
   2 C2             0.0053    -0.0482     0.0198 C.ar    
   3 C3            -0.8952    -0.2048    -1.0156 C.ar    
   4 C4            -2.0963     0.4754    -1.0027 C.ar    
   5 C5            -2.4086     1.3270     0.0595 C.ar    
   6 C6            -1.5069     1.4848     1.1098 C.ar    
   7 C7            -3.6955     2.0550     0.0720 C.2     
   8 O8            -4.7407     1.4437    -0.0349 O.2     
   9 N9            -3.7097     3.3964     0.2019 N.am    
  10 C10           -4.9729     4.1428     0.1235 C.3     
  11 C11           -4.8306     5.2433    -0.9326 C.3     
  12 C12           -3.6102     6.1060    -0.6033 C.3     
  13 C13           -2.3483     5.2407    -0.6343 C.3     
  14 C14           -2.4631     4.1396     0.4307 C.3     
  15 C15           -3.4867     7.2105    -1.6211 C.ar    
  16 C16           -3.5337     8.5317    -1.2127 C.ar    
  17 C17           -3.3213     6.8988    -2.9589 C.ar    
  18 C18           -3.2071     7.9048    -3.8958 C.ar    
  19 C19           -3.2590     9.2403    -3.4913 C.ar    
  20 C20           -3.4209     9.5477    -2.1389 C.ar    
  21 C21           -3.1412    10.2898    -4.4584 C.1     
  22 N22           -3.0478    11.1224    -5.2256 N.1     
  23 C23            0.6721     0.9670     2.1952 C.2     
  24 N24            1.8443     0.3826     2.3052 N.2     
  25 S25            1.5358    -0.9208    -0.0068 S.o2    
  26 C26            2.7951     0.3781    -0.1398 C.3     
  27 N27            2.4158     0.7583     3.3936 N.2     
  28 C28            1.6482     1.5973     4.0361 C.2     
  29 N29            0.5176     1.7637     3.2972 N.pl3   
  30 C30            1.9596     2.2628     5.3519 C.3     
  31 O31            1.6020    -1.5512     1.2650 O.2     
  32 O32            1.4816    -1.6870    -1.2024 O.2     
  33 C33           -3.0725     0.2992    -2.1372 C.3     
  34 H34           -0.6584    -0.8622    -1.8392 H       
  35 H35           -1.7435     2.1418     1.9337 H       
  36 H36           -5.7798     3.4668    -0.1596 H       
  37 H37           -5.1926     4.5920     1.0920 H       
  38 H38           -4.7011     4.7900    -1.9153 H       
  39 H39           -5.7260     5.8649    -0.9332 H       
  40 H40           -3.7290     6.5393     0.3898 H       
  41 H41           -2.2422     4.7874    -1.6199 H       
  42 H42           -1.4769     5.8604    -0.4227 H       
  43 H43           -2.4773     4.5909     1.4228 H       
  44 H44           -1.6141     3.4610     0.3478 H       
  45 H45           -3.6593     8.7680    -0.1664 H       
  46 H46           -3.2810     5.8654    -3.2703 H       
  47 H47           -3.0776     7.6601    -4.9397 H       
  48 H48           -3.4622    10.5785    -1.8194 H       
  49 H49            2.7217     1.0447     0.7195 H       
  50 H50            3.7854    -0.0769    -0.1631 H       
  51 H51            2.6350     0.9470    -1.0557 H       
  52 H52           -0.2431     2.3264     3.5104 H       
  53 H53            2.4723     3.2072     5.1690 H       
  54 H54            1.0320     2.4516     5.8921 H       
  55 H55            2.5999     1.6110     5.9462 H       
  56 H56           -3.6892    -0.5803    -1.9526 H       
  57 H57           -3.7093     1.1810    -2.2089 H       
  58 H58           -2.5250     0.1696    -3.0708 H       
@<TRIPOS>BOND
   1    1    2 ar
   2    1   23 1
   3    1    6 ar
   4    2    3 ar
   5    2   25 1
   6    3    4 ar
   7    3   34 1
   8    4    5 ar
   9    4   33 1
  10    5    6 ar
  11    5    7 1
  12    6   35 1
  13    7    8 2
  14    7    9 am
  15    9   10 1
  16    9   14 1
  17   10   11 1
  18   10   36 1
  19   10   37 1
  20   11   12 1
  21   11   38 1
  22   11   39 1
  23   12   13 1
  24   12   15 1
  25   12   40 1
  26   13   14 1
  27   13   41 1
  28   13   42 1
  29   14   43 1
  30   14   44 1
  31   15   16 ar
  32   15   17 ar
  33   16   20 ar
  34   16   45 1
  35   17   18 ar
  36   17   46 1
  37   18   19 ar
  38   18   47 1
  39   19   20 ar
  40   19   21 1
  41   20   48 1
  42   21   22 3
  43   23   24 2
  44   23   29 1
  45   24   27 1
  46   25   26 1
  47   25   31 2
  48   25   32 2
  49   26   49 1
  50   26   50 1
  51   26   51 1
  52   27   28 2
  53   28   29 1
  54   28   30 1
  55   29   52 1
  56   30   53 1
  57   30   54 1
  58   30   55 1
  59   33   56 1
  60   33   57 1
  61   33   58 1

#	End of record

