#	Name: ASD09380006
#	Creating user name:	WinNT
#	Creation time:	15. 06. 2019 21:21

#	Modifying user name:	WinNT
#	Modification time:	15. 06. 2019 21:21

#	Program:	/corina/corina34_cracker 3.40 0067  02.08.2006

@<TRIPOS>MOLECULE
ASD09380006
  52   51    0    0    0
SMALL
NO_CHARGES


@<TRIPOS>ATOM
   1 C1            -0.0187     1.5258     0.0104 C.3     
   2 C2             0.0021    -0.0041     0.0020 C.3     
   3 C3            -1.4333    -0.5336     0.0129 C.3     
   4 C4            -1.4129    -2.0405     0.0046 C.2     
   5 C5            -2.0457    -2.7093     0.9364 C.2     
   6 C6            -2.2381    -5.5644     2.9525 C.2     
   7 C7            -1.5199    -4.7189     2.2558 C.2     
   8 C8            -2.0253    -4.2161     0.9281 C.3     
   9 C9            -1.7327    -6.0673     4.2802 C.3     
  10 C10           -2.7794    -5.7922     5.3617 C.3     
  11 C11           -2.2662    -6.3027     6.7096 C.3     
  12 C12           -3.8465    -6.2632    10.2206 C.3     
  13 C13           -2.7998    -6.5382     9.1391 C.3     
  14 C14           -3.3129    -6.0277     7.7912 C.3     
  15 C15           -3.3333    -6.7737    11.5686 C.3     
  16 C16            1.4167     2.0553    -0.0004 C.3     
  17 C17            1.3960     3.5852     0.0080 C.3     
  18 C18           -4.3643    -6.5028    12.6338 C.2     
  19 O19           -5.4029    -5.9574    12.3446 O.2     
  20 O20           -4.1287    -6.8674    13.9040 O.3     
  21 H21           -0.5459     1.8868    -0.8726 H       
  22 H22           -0.5289     1.8773     0.9072 H       
  23 H23            0.5123    -0.3556    -0.8948 H       
  24 H24            0.5293    -0.3651     0.8851 H       
  25 H25           -1.9435    -0.1821     0.9097 H       
  26 H26           -1.9605    -0.1726    -0.8702 H       
  27 H27           -0.8765    -2.5690    -0.7696 H       
  28 H28           -2.5822    -2.1807     1.7106 H       
  29 H29           -3.1925    -5.9011     2.5754 H       
  30 H30           -0.5655    -4.3822     2.6329 H       
  31 H31           -3.0340    -4.5922     0.7573 H       
  32 H32           -1.3674    -4.5662     0.1327 H       
  33 H33           -1.5492    -7.1398     4.2165 H       
  34 H34           -0.8049    -5.5543     4.5336 H       
  35 H35           -2.9629    -4.7197     5.4253 H       
  36 H36           -3.7071    -6.3052     5.1082 H       
  37 H37           -2.0827    -7.3753     6.6460 H       
  38 H38           -1.3384    -5.7898     6.9631 H       
  39 H39           -4.0300    -5.1906    10.2843 H       
  40 H40           -4.7742    -6.7761     9.9671 H       
  41 H41           -1.8720    -6.0253     9.3926 H       
  42 H42           -2.6163    -7.6108     9.0754 H       
  43 H43           -3.4964    -4.9552     7.8548 H       
  44 H44           -4.2407    -6.5406     7.5377 H       
  45 H45           -3.1498    -7.8462    11.5049 H       
  46 H46           -2.4055    -6.2608    11.8220 H       
  47 H47            1.9439     1.6943     0.8826 H       
  48 H48            1.9269     1.7038    -0.8972 H       
  49 H49            0.8688     3.9463    -0.8751 H       
  50 H50            0.8858     3.9367     0.9048 H       
  51 H51            2.4186     3.9625     0.0002 H       
  52 H52           -4.8196    -6.6727    14.5519 H       
@<TRIPOS>BOND
   1    1    2 1
   2    1   16 1
   3    1   21 1
   4    1   22 1
   5    2    3 1
   6    2   23 1
   7    2   24 1
   8    3    4 1
   9    3   25 1
  10    3   26 1
  11    4    5 2
  12    4   27 1
  13    5    8 1
  14    5   28 1
  15    6    7 2
  16    6    9 1
  17    6   29 1
  18    7    8 1
  19    7   30 1
  20    8   31 1
  21    8   32 1
  22    9   10 1
  23    9   33 1
  24    9   34 1
  25   10   11 1
  26   10   35 1
  27   10   36 1
  28   11   14 1
  29   11   37 1
  30   11   38 1
  31   12   13 1
  32   12   15 1
  33   12   39 1
  34   12   40 1
  35   13   14 1
  36   13   41 1
  37   13   42 1
  38   14   43 1
  39   14   44 1
  40   15   18 1
  41   15   45 1
  42   15   46 1
  43   16   17 1
  44   16   47 1
  45   16   48 1
  46   17   49 1
  47   17   50 1
  48   17   51 1
  49   18   19 2
  50   18   20 1
  51   20   52 1

#	End of record

