#	Name: ASD01900180
#	Creating user name:	WinNT
#	Creation time:	15. 06. 2019 19:51

#	Modifying user name:	WinNT
#	Modification time:	15. 06. 2019 19:51

#	Program:	/corina/corina34_cracker 3.40 0067  02.08.2006

@<TRIPOS>MOLECULE
ASD01900180
  32   35    0    0    0
SMALL
NO_CHARGES


@<TRIPOS>ATOM
   1 N1            -0.0167     1.3828     0.0096 N.pl3   
   2 S2            -1.3051    -1.1031     0.1234 S.3     
   3 C3             0.0638    -0.0018    -0.0074 C.2     
   4 N4             1.1600    -0.6885    -0.1231 N.2     
   5 C5             1.0489    -2.0050    -0.1370 C.2     
   6 C6             2.1241    -3.0184    -0.4014 C.2     
   7 C7             1.8577    -4.1078    -1.2557 C.2     
   8 C8             0.5804    -4.2463    -2.0268 C.3     
   9 C9            -0.5992    -4.6948    -1.1468 C.3     
  10 C10           -0.5351    -3.9281     0.1836 C.3     
  11 C11           -0.2111    -2.4746     0.0358 C.2     
  12 N12            2.9131    -4.8692    -1.2564 N.2     
  13 N13            3.8948    -4.2686    -0.4518 N.pl3   
  14 C14            3.3831    -3.1195     0.0554 C.2     
  15 C15            1.1457     2.1474     0.0088 C.ar    
  16 C16            1.0690     3.5352    -0.0861 C.ar    
  17 N17            2.3301     1.5573     0.1038 N.ar    
  18 N18            2.1737     4.2563    -0.0861 N.ar    
  19 C19            3.3527     3.6633     0.0037 C.ar    
  20 C20            3.4326     2.2874     0.1030 C.ar    
  21 H21           -0.8835     1.8181     0.0182 H       
  22 H22            0.3364    -3.2851    -2.4791 H       
  23 H23            0.7261    -4.9793    -2.8203 H       
  24 H24           -1.5387    -4.4724    -1.6526 H       
  25 H25           -0.5273    -5.7656    -0.9561 H       
  26 H26           -1.4993    -4.0196     0.6836 H       
  27 H27            0.2243    -4.3905     0.8142 H       
  28 H28            4.7853    -4.6160    -0.2867 H       
  29 H29            3.8908    -2.4198     0.7027 H       
  30 H30            0.1067     4.0199    -0.1599 H       
  31 H31            4.2552     4.2565     0.0031 H       
  32 H32            4.3970     1.8075     0.1804 H       
@<TRIPOS>BOND
   1    1    3 1
   2    1   15 1
   3    1   21 1
   4    2    3 1
   5    2   11 1
   6    3    4 2
   7    4    5 1
   8    5    6 1
   9    5   11 2
  10    6    7 1
  11    6   14 2
  12    7    8 1
  13    7   12 2
  14    8    9 1
  15    8   22 1
  16    8   23 1
  17    9   10 1
  18    9   24 1
  19    9   25 1
  20   10   11 1
  21   10   26 1
  22   10   27 1
  23   12   13 1
  24   13   14 1
  25   13   28 1
  26   14   29 1
  27   15   16 ar
  28   15   17 ar
  29   16   18 ar
  30   16   30 1
  31   17   20 ar
  32   18   19 ar
  33   19   20 ar
  34   19   31 1
  35   20   32 1

#	End of record

