#	Name: ASD03090869
#	Creating user name:	WinNT
#	Creation time:	15. 06. 2019 20:29

#	Modifying user name:	WinNT
#	Modification time:	15. 06. 2019 20:29

#	Program:	/corina/corina34_cracker 3.40 0067  02.08.2006

@<TRIPOS>MOLECULE
ASD03090869
  52   55    0    0    0
SMALL
NO_CHARGES


@<TRIPOS>ATOM
   1 N1            -0.3600     1.0319    -0.2196 N.am    
   2 C2            -0.1921    -0.3053    -0.2070 C.2     
   3 O3            -1.1388    -1.0405    -0.4284 O.2     
   4 N4             1.0119    -0.8250     0.0482 N.2     
   5 C5             0.7778     1.9155     0.0466 C.3     
   6 C6             1.0939     2.7321    -1.2081 C.3     
   7 C7             0.4301     2.8623     1.1970 C.3     
   8 S8            -0.0233    -3.3461    -0.2258 S.3     
   9 C9             1.1777    -2.1456     0.0606 C.2     
  10 N10            2.3281    -2.8240     0.3011 N.pl3   
  11 C11            2.2615    -4.1834     0.2613 C.2     
  12 C12            1.0778    -4.7174    -0.0089 C.2     
  13 C13            0.7404    -6.1826    -0.1107 C.3     
  14 O14            7.1809    -0.4243     1.3807 O.3     
  15 C15            8.0215    -1.5184     0.9692 C.3     
  16 O16            7.1750    -2.6739     1.1153 O.3     
  17 C17            5.8993    -2.2135     0.9597 C.ar    
  18 C18            5.9024    -0.8298     1.1229 C.ar    
  19 C19            4.7132    -2.8735     0.6875 C.ar    
  20 C20            3.5295    -2.1561     0.5773 C.ar    
  21 C21            3.5358    -0.7777     0.7401 C.ar    
  22 C22            4.7194    -0.1178     1.0115 C.ar    
  23 F23            8.4141    -1.3621    -0.3644 F       
  24 F24            9.1399    -1.6198     1.8035 F       
  25 C25           -1.6789     1.6019    -0.5053 C.3     
  26 C26           -2.4996     1.6277     0.7584 C.ar    
  27 C27           -2.5675     2.7827     1.5149 C.ar    
  28 C28           -3.3201     2.8064     2.6741 C.ar    
  29 C29           -4.0053     1.6752     3.0766 C.ar    
  30 C30           -3.9381     0.5205     2.3195 C.ar    
  31 C31           -3.1889     0.4982     1.1580 C.ar    
  32 H32            1.6470     1.3167     0.3189 H       
  33 H33            0.2247     3.3309    -1.4804 H       
  34 H34            1.9404     3.3895    -1.0101 H       
  35 H35            1.3416     2.0575    -2.0277 H       
  36 H36            0.0980     2.2817     2.0577 H       
  37 H37            1.3116     3.4430     1.4688 H       
  38 H38           -0.3670     3.5368     0.8843 H       
  39 H39            3.1313    -4.7977     0.4413 H       
  40 H40           -0.3178    -6.2963    -0.3464 H       
  41 H41            1.3392    -6.6395    -0.8986 H       
  42 H42            0.9556    -6.6719     0.8392 H       
  43 H43            4.7086    -3.9460     0.5603 H       
  44 H44            2.6148    -0.2202     0.6543 H       
  45 H45            4.7218     0.9548     1.1383 H       
  46 H46           -1.5617     2.6176    -0.8832 H       
  47 H47           -2.1840     0.9917    -1.2541 H       
  48 H48           -2.0322     3.6664     1.2005 H       
  49 H49           -3.3726     3.7085     3.2656 H       
  50 H50           -4.5928     1.6935     3.9826 H       
  51 H51           -4.4731    -0.3633     2.6341 H       
  52 H52           -3.1394    -0.4028     0.5646 H       
@<TRIPOS>BOND
   1    1    2 am
   2    1    5 1
   3    1   25 1
   4    2    3 2
   5    2    4 1
   6    4    9 2
   7    5    6 1
   8    5    7 1
   9    5   32 1
  10    6   33 1
  11    6   34 1
  12    6   35 1
  13    7   36 1
  14    7   37 1
  15    7   38 1
  16    8    9 1
  17    8   12 1
  18    9   10 1
  19   10   11 1
  20   10   20 1
  21   11   12 2
  22   11   39 1
  23   12   13 1
  24   13   40 1
  25   13   41 1
  26   13   42 1
  27   14   15 1
  28   14   18 1
  29   15   16 1
  30   15   23 1
  31   15   24 1
  32   16   17 1
  33   17   18 ar
  34   17   19 ar
  35   18   22 ar
  36   19   20 ar
  37   19   43 1
  38   20   21 ar
  39   21   22 ar
  40   21   44 1
  41   22   45 1
  42   25   26 1
  43   25   46 1
  44   25   47 1
  45   26   27 ar
  46   26   31 ar
  47   27   28 ar
  48   27   48 1
  49   28   29 ar
  50   28   49 1
  51   29   30 ar
  52   29   50 1
  53   30   31 ar
  54   30   51 1
  55   31   52 1

#	End of record

