#	Name: ASD02030461
#	Creating user name:	WinNT
#	Creation time:	15. 06. 2019 20:15

#	Modifying user name:	WinNT
#	Modification time:	15. 06. 2019 20:15

#	Program:	/corina/corina34_cracker 3.40 0067  02.08.2006

@<TRIPOS>MOLECULE
ASD02030461
  51   52    0    0    0
SMALL
NO_CHARGES


@<TRIPOS>ATOM
   1 C1            -0.0144     1.2113     0.0087 C.2     
   2 O2             0.0671    -0.0011    -0.0216 O.2     
   3 C3             2.1439     4.1555    -0.2715 C.ar    
   4 N4             1.0999     3.3608    -0.2056 N.ar    
   5 C5             1.2113     2.0369    -0.0561 C.ar    
   6 C6             2.4455     1.4219     0.0397 C.ar    
   7 C7             3.6035     2.2191    -0.0235 C.ar    
   8 C8             4.8907     1.6702     0.0658 C.ar    
   9 C9             5.9766     2.4916    -0.0022 C.ar    
  10 C10            5.8252     3.8669    -0.1588 C.ar    
  11 C11            4.5877     4.4327    -0.2483 C.ar    
  12 C12            3.4493     3.6198    -0.1829 C.ar    
  13 O13            1.9695     5.4899    -0.4292 O.3     
  14 C14            0.6237     5.9624    -0.5164 C.3     
  15 N15           -1.2220     1.8035     0.0958 N.am    
  16 C16           -2.4589     1.0149    -0.0103 C.3     
  17 C17           -3.3572     1.3554     1.1836 C.3     
  18 N18           -3.5515     2.8101     1.2470 N.3     
  19 C19           -2.2801     3.5078     1.4810 C.3     
  20 C20           -1.3377     3.2547     0.3054 C.3     
  21 C21           -4.7127     0.6661     1.0156 C.3     
  22 C22           -2.6946     0.8721     2.4752 C.3     
  23 H23            2.5197     0.3513     0.1610 H       
  24 H24            5.0209     0.6050     0.1877 H       
  25 H25            6.9683     2.0697     0.0668 H       
  26 H26            6.7018     4.4955    -0.2098 H       
  27 H27            4.4862     5.5011    -0.3693 H       
  28 H28            0.1308     5.4996    -1.3713 H       
  29 H29            0.0876     5.7028     0.3965 H       
  30 H30            0.6262     7.0453    -0.6409 H       
  31 H31           -2.9735     1.2639    -0.9384 H       
  32 H32           -2.2179    -0.0480     0.0042 H       
  33 H33           -4.0027     3.1514     0.4115 H       
  34 H34           -2.4647     4.5778     1.5771 H       
  35 H35           -1.8231     3.1335     2.3971 H       
  36 H36           -0.3557     3.6719     0.5286 H       
  37 H37           -1.7424     3.7231    -0.5917 H       
  38 H38           -4.5679    -0.4131     0.9663 H       
  39 H39           -5.3513     0.9085     1.8650 H       
  40 H40           -5.1846     1.0118     0.0959 H       
  41 H41           -1.7295     1.3645     2.5948 H       
  42 H42           -3.3338     1.1144     3.3242 H       
  43 H43           -2.5484    -0.2070     2.4269 H       
  44 C44           13.1398    14.0335     9.4710 C.2     
  45 C45           13.1602    12.5267     9.4627 C.3     
  46 O46           14.1778    14.6518     9.4644 O.2     
  47 O47           11.9683    14.6888     9.4801 O.3     
  48 F48           14.4853    12.0783     9.4477 F       
  49 F49           12.5180    12.0453    10.6086 F       
  50 F50           12.4962    12.0576     8.3242 F       
  51 H51           12.0058    15.6550     9.4852 H       
@<TRIPOS>BOND
   1    1    2 2
   2    1    5 1
   3    1   15 am
   4    3    4 ar
   5    3   12 ar
   6    3   13 1
   7    4    5 ar
   8    5    6 ar
   9    6    7 ar
  10    6   23 1
  11    7    8 ar
  12    7   12 ar
  13    8    9 ar
  14    8   24 1
  15    9   10 ar
  16    9   25 1
  17   10   11 ar
  18   10   26 1
  19   11   12 ar
  20   11   27 1
  21   13   14 1
  22   14   28 1
  23   14   29 1
  24   14   30 1
  25   15   16 1
  26   15   20 1
  27   16   17 1
  28   16   31 1
  29   16   32 1
  30   17   18 1
  31   17   21 1
  32   17   22 1
  33   18   19 1
  34   18   33 1
  35   19   20 1
  36   19   34 1
  37   19   35 1
  38   20   36 1
  39   20   37 1
  40   21   38 1
  41   21   39 1
  42   21   40 1
  43   22   41 1
  44   22   42 1
  45   22   43 1
  46   44   45 1
  47   44   46 2
  48   44   47 1
  49   45   48 1
  50   45   49 1
  51   45   50 1
  52   47   51 1

#	End of record

