#	Name: ASD03092262
#	Creating user name:	WinNT
#	Creation time:	15. 06. 2019 20:32

#	Modifying user name:	WinNT
#	Modification time:	15. 06. 2019 20:32

#	Program:	/corina/corina34_cracker 3.40 0067  02.08.2006

@<TRIPOS>MOLECULE
ASD03092262
  50   52    0    0    0
SMALL
NO_CHARGES


@<TRIPOS>ATOM
   1 C1             0.9136    -0.2304    -0.6779 C.3     
   2 O2             0.2086    -0.4095     0.5521 O.3     
   3 C3            -1.0214    -0.9841     0.4804 C.ar    
   4 C4            -1.5349    -1.3722    -0.7487 C.ar    
   5 C5            -2.7841    -1.9554    -0.8222 C.ar    
   6 C6            -3.5264    -2.1540     0.3343 C.ar    
   7 C7            -3.0118    -1.7658     1.5641 C.ar    
   8 C8            -1.7603    -1.1875     1.6370 C.ar    
   9 N9            -4.7956    -2.7460     0.2602 N.pl3   
  10 N10           -5.9594    -2.3259     0.9246 N.2     
  11 C11           -6.9149    -3.1560     0.5765 C.2     
  12 N12           -8.2398    -3.0984     1.0123 N.pl3   
  13 C13           -8.6169    -2.1644     1.9825 C.ar    
  14 C14           -7.6967    -1.7369     2.9305 C.ar    
  15 C15           -8.0717    -0.8130     3.8894 C.ar    
  16 F16           -7.1771    -0.3961     4.8119 F       
  17 C17           -9.3653    -0.3144     3.9036 C.ar    
  18 F18           -9.7303     0.5883     4.8402 F       
  19 C19          -10.2837    -0.7403     2.9582 C.ar    
  20 Br20         -12.0471    -0.0579     2.9798 Br      
  21 C21           -9.9106    -1.6590     1.9954 C.ar    
  22 N22           -6.4112    -4.0652    -0.2642 N.2     
  23 C23           -5.1403    -3.8257    -0.4664 C.2     
  24 C24           -4.2211    -4.6230    -1.3554 C.3     
  25 C25           -3.6750    -5.8230    -0.5790 C.3     
  26 C26           -2.6670    -6.5540    -1.4279 C.2     
  27 O27           -2.4106    -6.1545    -2.5440 O.2     
  28 N28           -2.0504    -7.6517    -0.9469 N.am    
  29 C29           -1.0705    -8.3623    -1.7721 C.3     
  30 C30           -2.3601    -8.1342     0.4013 C.3     
  31 H31            1.8781     0.2370    -0.4791 H       
  32 H32            1.0704    -1.1996    -1.1513 H       
  33 H33            0.3303     0.4080    -1.3414 H       
  34 H34           -0.9574    -1.2177    -1.6482 H       
  35 H35           -3.1840    -2.2568    -1.7790 H       
  36 H36           -3.5889    -1.9198     2.4640 H       
  37 H37           -1.3580    -0.8895     2.5940 H       
  38 H38           -8.8989    -3.7063     0.6423 H       
  39 H39           -6.6892    -2.1257     2.9195 H       
  40 H40          -10.6260    -1.9869     1.2558 H       
  41 H41           -4.7733    -4.9749    -2.2268 H       
  42 H42           -3.3930    -3.9930    -1.6801 H       
  43 H43           -3.1956    -5.4759     0.3363 H       
  44 H44           -4.4944    -6.4963    -0.3272 H       
  45 H45           -0.0776    -7.9495    -1.5937 H       
  46 H46           -1.0760    -9.4208    -1.5121 H       
  47 H47           -1.3289    -8.2454    -2.8246 H       
  48 H48           -3.1052    -7.4829     0.8581 H       
  49 H49           -2.7521    -9.1496     0.3426 H       
  50 H50           -1.4533    -8.1292     1.0062 H       
@<TRIPOS>BOND
   1    1    2 1
   2    1   31 1
   3    1   32 1
   4    1   33 1
   5    2    3 1
   6    3    8 ar
   7    3    4 ar
   8    4    5 ar
   9    4   34 1
  10    5    6 ar
  11    5   35 1
  12    6    7 ar
  13    6    9 1
  14    7    8 ar
  15    7   36 1
  16    8   37 1
  17    9   23 1
  18    9   10 1
  19   10   11 2
  20   11   12 1
  21   11   22 1
  22   12   13 1
  23   12   38 1
  24   13   21 ar
  25   13   14 ar
  26   14   15 ar
  27   14   39 1
  28   15   16 1
  29   15   17 ar
  30   17   18 1
  31   17   19 ar
  32   19   20 1
  33   19   21 ar
  34   21   40 1
  35   22   23 2
  36   23   24 1
  37   24   25 1
  38   24   41 1
  39   24   42 1
  40   25   26 1
  41   25   43 1
  42   25   44 1
  43   26   27 2
  44   26   28 am
  45   28   29 1
  46   28   30 1
  47   29   45 1
  48   29   46 1
  49   29   47 1
  50   30   48 1
  51   30   49 1
  52   30   50 1

#	End of record

