#	Name: ASD00122086
#	Creating user name:	WinNT
#	Creation time:	15. 06. 2019 18:31

#	Modifying user name:	WinNT
#	Modification time:	15. 06. 2019 18:31

#	Program:	/corina/corina34_cracker 3.40 0067  02.08.2006

@<TRIPOS>MOLECULE
ASD00122086
  32   34    0    0    0
SMALL
NO_CHARGES


@<TRIPOS>ATOM
   1 C1            -0.0169     1.3942     0.0097 C.ar    
   2 C2             0.0021    -0.0041     0.0020 C.ar    
   3 N3            -1.1597    -0.6705     0.0091 N.ar    
   4 C4            -2.3073    -0.0326     0.0231 C.ar    
   5 N5            -2.3802     1.2861     0.0309 N.ar    
   6 C6            -1.2859     2.0337     0.0307 C.ar    
   7 C7             1.3158     1.9580     0.0000 C.2     
   8 C8             2.2992     1.0577    -0.0142 C.2     
   9 S9             1.6635    -0.5765    -0.0169 S.3     
  10 S10           -1.4025     3.7918     0.0411 S.3     
  11 C11           -3.2019     3.9874     0.0495 C.3     
  12 C12           -3.5477     5.4541     0.0592 C.2     
  13 C13            3.7389     1.3937    -0.0269 C.ar    
  14 C14            4.6956     0.3777    -0.0414 C.ar    
  15 C15            6.0375     0.6981    -0.0531 C.ar    
  16 C16            6.4355     2.0232    -0.0505 C.ar    
  17 C17            5.4921     3.0352    -0.0357 C.ar    
  18 C18            4.1470     2.7284    -0.0302 C.ar    
  19 O19           -2.6684     6.2818     0.0604 O.2     
  20 C20           -4.9909     5.8880     0.0675 C.3     
  21 H21           -3.2227    -0.6057     0.0280 H       
  22 H22            1.4991     3.0223     0.0036 H       
  23 H23           -3.6222     3.5209    -0.8414 H       
  24 H24           -3.6150     3.5108     0.9385 H       
  25 H25            4.3863    -0.6570    -0.0430 H       
  26 H26            6.7789    -0.0872    -0.0640 H       
  27 H27            7.4872     2.2687    -0.0598 H       
  28 H28            5.8093     4.0675    -0.0331 H       
  29 H29            3.4116     3.5193    -0.0186 H       
  30 H30           -5.6347     5.0084     0.0651 H       
  31 H31           -5.1873     6.4796     0.9617 H       
  32 H32           -5.1945     6.4897    -0.8182 H       
@<TRIPOS>BOND
   1    1    2 ar
   2    1    7 1
   3    1    6 ar
   4    2    3 ar
   5    2    9 1
   6    3    4 ar
   7    4    5 ar
   8    4   21 1
   9    5    6 ar
  10    6   10 1
  11    7    8 2
  12    7   22 1
  13    8    9 1
  14    8   13 1
  15   10   11 1
  16   11   12 1
  17   11   23 1
  18   11   24 1
  19   12   19 2
  20   12   20 1
  21   13   14 ar
  22   13   18 ar
  23   14   15 ar
  24   14   25 1
  25   15   16 ar
  26   15   26 1
  27   16   17 ar
  28   16   27 1
  29   17   18 ar
  30   17   28 1
  31   18   29 1
  32   20   30 1
  33   20   31 1
  34   20   32 1

#	End of record

