#	Name: ASD01884581
#	Creating user name:	WinNT
#	Creation time:	15. 06. 2019 19:48

#	Modifying user name:	WinNT
#	Modification time:	15. 06. 2019 19:48

#	Program:	/corina/corina34_cracker 3.40 0067  02.08.2006

@<TRIPOS>MOLECULE
ASD01884581
  41   42    0    0    0
SMALL
NO_CHARGES


@<TRIPOS>ATOM
   1 C1            -0.0164     1.3598     0.0095 C.2     
   2 C2             0.0021    -0.0041     0.0020 C.2     
   3 C3             1.2342    -0.6727    -0.0133 C.2     
   4 C4             2.3874     0.0358    -0.0205 C.2     
   5 N5             2.3670     1.3933    -0.0126 N.am    
   6 C6             1.1996     2.0643     0.0017 C.2     
   7 O7             1.1975     3.2849     0.0083 O.2     
   8 C8             3.6294     2.1366    -0.0197 C.3     
   9 C9             1.2747    -2.1791    -0.0213 C.3     
  10 C10            1.1781    -2.6917     1.3925 C.ar    
  11 C11           -0.0601    -2.9580     1.9471 C.ar    
  12 C12           -0.1513    -3.4280     3.2429 C.ar    
  13 C13            1.0009    -3.6327     3.9880 C.ar    
  14 C14            2.2422    -3.3647     3.4293 C.ar    
  15 C15            2.3283    -2.9003     2.1311 C.ar    
  16 O16            0.9139    -4.0945     5.2631 O.3     
  17 C17            2.1413    -4.2817     5.9706 C.3     
  18 C18            4.0560     2.4036    -1.4646 C.3     
  19 C19            5.3744     3.1798    -1.4720 C.3     
  20 H20            6.1436     2.5943    -0.9684 H       
  21 C21            5.8009     3.4468    -2.9169 C.3     
  22 F22            4.8137     4.1983    -3.5633 F       
  23 F23            7.0065     4.1566    -2.9237 F       
  24 F24            5.9726     2.2297    -3.5849 F       
  25 H25           -0.9557     1.8927     0.0169 H       
  26 H26           -0.9222    -0.5627     0.0082 H       
  27 H27            3.3339    -0.4842    -0.0324 H       
  28 H28            3.4957     3.0849     0.5008 H       
  29 H29            4.3986     1.5511     0.4839 H       
  30 H30            0.4372    -2.5620    -0.6046 H       
  31 H31            2.2112    -2.5151    -0.4665 H       
  32 H32           -0.9569    -2.7982     1.3668 H       
  33 H33           -1.1188    -3.6355     3.6757 H       
  34 H34            3.1406    -3.5233     4.0072 H       
  35 H35            3.2943    -2.6915     1.6957 H       
  36 H36            1.9297    -4.6527     6.9734 H       
  37 H37            2.7605    -5.0043     5.4390 H       
  38 H38            2.6699    -3.3309     6.0389 H       
  39 H39            4.1897     1.4552    -1.9851 H       
  40 H40            3.2868     2.9891    -1.9682 H       
  41 H41            5.2406     4.1281    -0.9515 H       
@<TRIPOS>BOND
   1    1    2 2
   2    1    6 1
   3    1   25 1
   4    2    3 1
   5    2   26 1
   6    3    4 2
   7    3    9 1
   8    4    5 1
   9    4   27 1
  10    5    6 am
  11    5    8 1
  12    6    7 2
  13    8   18 1
  14    8   28 1
  15    8   29 1
  16    9   10 1
  17    9   30 1
  18    9   31 1
  19   10   11 ar
  20   10   15 ar
  21   11   12 ar
  22   11   32 1
  23   12   13 ar
  24   12   33 1
  25   13   14 ar
  26   13   16 1
  27   14   15 ar
  28   14   34 1
  29   15   35 1
  30   16   17 1
  31   17   36 1
  32   17   37 1
  33   17   38 1
  34   18   19 1
  35   18   39 1
  36   18   40 1
  37   19   20 1
  38   19   21 1
  39   19   41 1
  40   21   22 1
  41   21   23 1
  42   21   24 1

#	End of record

