#	Name: ASD01883716
#	Creating user name:	WinNT
#	Creation time:	15. 06. 2019 19:46

#	Modifying user name:	WinNT
#	Modification time:	15. 06. 2019 19:46

#	Program:	/corina/corina34_cracker 3.40 0067  02.08.2006

@<TRIPOS>MOLECULE
ASD01883716
  46   49    0    0    0
SMALL
NO_CHARGES


@<TRIPOS>ATOM
   1 C1            -0.0167     1.3792     0.0096 C.2     
   2 C2             0.0021    -0.0041     0.0020 C.2     
   3 C3            -1.2232    -0.7132     0.0099 C.2     
   4 C4            -2.3914    -0.0450     0.0246 C.2     
   5 N5            -2.4195     1.3213     0.0317 N.pl3   
   6 C6            -1.2556     2.0465     0.0309 C.2     
   7 C7            -3.4509     2.2222     0.0451 C.2     
   8 C8            -2.9029     3.4572     0.0458 C.2     
   9 N9            -1.5738     3.3345     0.0381 N.2     
  10 Cl10           1.4676     2.2795     0.0003 Cl      
  11 C11           -4.9223     1.8967     0.0569 C.3     
  12 C12           -5.4603     1.9159    -1.3752 C.3     
  13 C13            1.2901    -0.7352    -0.0147 C.ar    
  14 C14            1.6567    -1.5299     1.0720 C.ar    
  15 C15            2.8555    -2.2095     1.0538 C.ar    
  16 C16            3.6994    -2.1038    -0.0462 C.ar    
  17 C17            3.3366    -1.3122    -1.1303 C.ar    
  18 C18            2.1363    -0.6351    -1.1195 C.ar    
  19 F19           -4.7786     0.9651    -2.1423 F       
  20 F20           -6.8263     1.6138    -1.3643 F       
  21 F21           -5.2682     3.1863    -1.9286 F       
  22 N22            4.9125    -2.7930    -0.0621 N.3     
  23 C23            5.6436    -2.5426    -1.3108 C.3     
  24 C24            7.0267    -3.1931    -1.2329 C.3     
  25 C25            6.8651    -4.6989    -1.0074 C.3     
  26 C26            6.0588    -4.9316     0.2734 C.3     
  27 C27            4.7038    -4.2307     0.1518 C.3     
  28 H28           -1.2204    -1.7932     0.0037 H       
  29 H29           -3.3199    -0.5965     0.0304 H       
  30 H30           -3.4494     4.3887     0.0549 H       
  31 H31           -5.0720     0.9069     0.4881 H       
  32 H32           -5.4535     2.6375     0.6546 H       
  33 H33            1.0018    -1.6121     1.9268 H       
  34 H34            3.1398    -2.8245     1.8949 H       
  35 H35            3.9940    -1.2314    -1.9834 H       
  36 H36            1.8548    -0.0206    -1.9619 H       
  37 H37            5.0892    -2.9672    -2.1477 H       
  38 H38            5.7553    -1.4682    -1.4571 H       
  39 H39            7.5631    -3.0203    -2.1659 H       
  40 H40            7.5868    -2.7591    -0.4046 H       
  41 H41            6.3389    -5.1397    -1.8541 H       
  42 H42            7.8478    -5.1599    -0.9080 H       
  43 H43            5.9038    -6.0010     0.4166 H       
  44 H44            6.6037    -4.5250     1.1254 H       
  45 H45            4.1330    -4.3824     1.0679 H       
  46 H46            4.1538    -4.6474    -0.6919 H       
@<TRIPOS>BOND
   1    1    2 2
   2    1   10 1
   3    1    6 1
   4    2    3 1
   5    2   13 1
   6    3    4 2
   7    3   28 1
   8    4    5 1
   9    4   29 1
  10    5    6 1
  11    5    7 1
  12    6    9 2
  13    7    8 2
  14    7   11 1
  15    8    9 1
  16    8   30 1
  17   11   12 1
  18   11   31 1
  19   11   32 1
  20   12   19 1
  21   12   20 1
  22   12   21 1
  23   13   14 ar
  24   13   18 ar
  25   14   15 ar
  26   14   33 1
  27   15   16 ar
  28   15   34 1
  29   16   17 ar
  30   16   22 1
  31   17   18 ar
  32   17   35 1
  33   18   36 1
  34   22   23 1
  35   22   27 1
  36   23   24 1
  37   23   37 1
  38   23   38 1
  39   24   25 1
  40   24   39 1
  41   24   40 1
  42   25   26 1
  43   25   41 1
  44   25   42 1
  45   26   27 1
  46   26   43 1
  47   26   44 1
  48   27   45 1
  49   27   46 1

#	End of record

