#	Name: ASD04590367
#	Creating user name:	WinNT
#	Creation time:	15. 06. 2019 20:50

#	Modifying user name:	WinNT
#	Modification time:	15. 06. 2019 20:50

#	Program:	/corina/corina34_cracker 3.40 0067  02.08.2006

@<TRIPOS>MOLECULE
ASD04590367
  32   35    0    0    0
SMALL
NO_CHARGES


@<TRIPOS>ATOM
   1 C1            -0.0167     1.3834     0.0096 C.ar    
   2 C2             0.0021    -0.0041     0.0020 C.ar    
   3 C3             1.1863    -0.6848    -0.0125 C.ar    
   4 C4             2.3948     0.0191    -0.0203 C.ar    
   5 C5             2.3756     1.4250    -0.0131 C.ar    
   6 C6             1.1624     2.0987     0.0022 C.ar    
   7 N7             3.6952    -0.3636    -0.0345 N.2     
   8 C8             4.4665     0.6967    -0.0364 C.2     
   9 N9             3.6970     1.8290    -0.0235 N.pl3   
  10 C10            5.9437     0.6731    -0.0496 C.2     
  11 C11            6.7566    -0.4840    -0.0628 C.2     
  12 C12            8.0506    -0.0799    -0.0722 C.2     
  13 N13            8.0626     1.2789    -0.0653 N.pl3   
  14 N14            6.7358     1.7272    -0.0570 N.2     
  15 N15            6.3046    -1.8131    -0.0651 N.am    
  16 C16            7.1926    -2.8269    -0.0782 C.2     
  17 C17            6.7185    -4.2207    -0.0807 C.2     
  18 O18            8.3858    -2.5902    -0.0880 O.2     
  19 N19            7.4799    -5.2814    -0.0929 N.2     
  20 C20            6.8576    -6.4310    -0.0924 C.2     
  21 C21            5.5170    -6.3692    -0.0794 C.2     
  22 S22            5.0325    -4.7286    -0.0601 S.3     
  23 H23           -0.9614     1.9069     0.0170 H       
  24 H24           -0.9290    -0.5513     0.0080 H       
  25 H25            1.1893    -1.7648    -0.0177 H       
  26 H26            1.1417     3.1785     0.0079 H       
  27 H27            4.0192     2.7439    -0.0222 H       
  28 H28            8.9178    -0.7235    -0.0832 H       
  29 H29            8.8531     1.8410    -0.0695 H       
  30 H30            5.3532    -2.0018    -0.0573 H       
  31 H31            7.3888    -7.3712    -0.1022 H       
  32 H32            4.8507    -7.2191    -0.0770 H       
@<TRIPOS>BOND
   1    1    2 ar
   2    1    6 ar
   3    1   23 1
   4    2    3 ar
   5    2   24 1
   6    3    4 ar
   7    3   25 1
   8    4    5 ar
   9    4    7 1
  10    5    6 ar
  11    5    9 1
  12    6   26 1
  13    7    8 2
  14    8    9 1
  15    8   10 1
  16    9   27 1
  17   10   11 1
  18   10   14 2
  19   11   12 2
  20   11   15 1
  21   12   13 1
  22   12   28 1
  23   13   14 1
  24   13   29 1
  25   15   16 am
  26   15   30 1
  27   16   17 1
  28   16   18 2
  29   17   19 2
  30   17   22 1
  31   19   20 1
  32   20   21 2
  33   20   31 1
  34   21   22 1
  35   21   32 1

#	End of record

