#	Name: ASD02198001
#	Creating user name:	WinNT
#	Creation time:	15. 06. 2019 20:18

#	Modifying user name:	WinNT
#	Modification time:	15. 06. 2019 20:18

#	Program:	/corina/corina34_cracker 3.40 0067  02.08.2006

@<TRIPOS>MOLECULE
ASD02198001
  41   44    0    0    0
SMALL
NO_CHARGES


@<TRIPOS>ATOM
   1 N1            -0.0157     1.3074     0.0092 N.ar    
   2 C2             0.0021    -0.0041     0.0020 C.ar    
   3 C3             1.1968    -0.7200    -0.0128 C.ar    
   4 C4             2.3896    -0.0545    -0.0206 C.ar    
   5 C5             2.3652     1.3533    -0.0132 C.ar    
   6 C6             3.5525     2.1031    -0.0200 C.ar    
   7 C7             3.4990     3.4646    -0.0117 C.ar    
   8 C8             2.2806     4.1337     0.0029 C.ar    
   9 C9             1.0881     3.4324     0.0100 C.ar    
  10 C10            1.1145     2.0170     0.0022 C.ar    
  11 C11            4.7806     4.2574    -0.0181 C.3     
  12 C12            5.1659     5.8872    -3.4047 C.ar    
  13 C13            4.7647     5.6709    -2.1000 C.ar    
  14 C14            5.1957     4.5297    -1.4410 C.ar    
  15 C15            6.0181     3.6453    -2.1221 C.ar    
  16 C16            6.3784     3.9286    -3.4259 C.ar    
  17 N17            5.9490     5.0239    -4.0216 N.ar    
  18 C18           -0.2046     4.1560     0.0266 C.ar    
  19 C19           -0.4280     5.1690     0.9589 C.ar    
  20 C20           -1.6339     5.8392     0.9694 C.ar    
  21 C21           -2.6206     5.5082     0.0576 C.ar    
  22 C22           -2.4050     4.5041    -0.8691 C.ar    
  23 C23           -1.2006     3.8308    -0.8935 C.ar    
  24 N24           -1.8728     6.9142     1.9584 N.pl3   
  25 O25           -1.0053     7.2064     2.7619 O.2     
  26 O26           -2.9370     7.5067     1.9688 O.2     
  27 H27           -0.9339    -0.5428     0.0081 H       
  28 H28            1.1800    -1.7998    -0.0177 H       
  29 H29            3.3256    -0.5933    -0.0317 H       
  30 H30            4.5083     1.6004    -0.0313 H       
  31 H31            2.2648     5.2136     0.0091 H       
  32 H32            4.6259     5.2025     0.5024 H       
  33 H33            5.5621     3.6887     0.4858 H       
  34 H34            4.8309     6.7715    -3.9265 H       
  35 H35            4.1236     6.3818    -1.6001 H       
  36 H36            6.3730     2.7465    -1.6396 H       
  37 H37            7.0187     3.2447    -3.9633 H       
  38 H38            0.3412     5.4281     1.6713 H       
  39 H39           -3.5629     6.0356     0.0697 H       
  40 H40           -3.1790     4.2499    -1.5781 H       
  41 H41           -1.0316     3.0503    -1.6206 H       
@<TRIPOS>BOND
   1    1    2 ar
   2    1   10 ar
   3    2    3 ar
   4    2   27 1
   5    3    4 ar
   6    3   28 1
   7    4    5 ar
   8    4   29 1
   9    5    6 ar
  10    5   10 ar
  11    6    7 ar
  12    6   30 1
  13    7    8 ar
  14    7   11 1
  15    8    9 ar
  16    8   31 1
  17    9   10 ar
  18    9   18 1
  19   11   14 1
  20   11   32 1
  21   11   33 1
  22   12   13 ar
  23   12   17 ar
  24   12   34 1
  25   13   14 ar
  26   13   35 1
  27   14   15 ar
  28   15   16 ar
  29   15   36 1
  30   16   17 ar
  31   16   37 1
  32   18   19 ar
  33   18   23 ar
  34   19   20 ar
  35   19   38 1
  36   20   21 ar
  37   20   24 1
  38   21   22 ar
  39   21   39 1
  40   22   23 ar
  41   22   40 1
  42   23   41 1
  43   24   25 2
  44   24   26 2

#	End of record

