#	Name: ASD02390016
#	Creating user name:	WinNT
#	Creation time:	15. 06. 2019 20:20

#	Modifying user name:	WinNT
#	Modification time:	15. 06. 2019 20:20

#	Program:	/corina/corina34_cracker 3.40 0067  02.08.2006

@<TRIPOS>MOLECULE
ASD02390016
  44   46    0    0    0
SMALL
NO_CHARGES


@<TRIPOS>ATOM
   1 F1             4.4106     2.3966    -4.6985 F       
   2 F2             4.0355     0.9674    -6.4408 F       
   3 F3             6.0158     0.8882    -5.3045 F       
   4 O4            -0.0173     1.4259     0.0099 O.3     
   5 O5             2.8922    -6.7394    -2.0922 O.3     
   6 O6             4.3288    -7.6889    -4.2384 O.3     
   7 N7             2.1015     0.0829    -1.2528 N.3     
   8 N8             2.9825    -1.6820    -2.5022 N.ar    
   9 N9             3.3506     0.4978    -3.1835 N.ar    
  10 C10            2.0433     1.5519    -1.2438 C.3     
  11 C11            0.7485    -0.4921    -1.2424 C.3     
  12 C12            0.0021    -0.0041     0.0020 C.3     
  13 C13            1.2838     2.0194     0.0006 C.3     
  14 C14            2.8280    -0.3780    -2.3371 C.ar    
  15 C15            3.6755    -2.1571    -3.5354 C.ar    
  16 C16            4.0514     0.0971    -4.2326 C.ar    
  17 C17            3.8469    -3.6178    -3.7186 C.ar    
  18 C18            4.2384    -1.2569    -4.4445 C.ar    
  19 C19            3.2809    -4.5073    -2.8060 C.ar    
  20 C20            4.5696    -4.1049    -4.8071 C.ar    
  21 C21            4.6389     1.1054    -5.1862 C.3     
  22 C22            3.4427    -5.8694    -2.9808 C.ar    
  23 C23            4.1701    -6.3501    -4.0671 C.ar    
  24 C24            4.7283    -5.4645    -4.9774 C.ar    
  25 C25            2.1599    -6.1765    -1.0018 C.3     
  26 C26            5.0863    -8.1125    -5.3737 C.3     
  27 H27            3.0554     1.9561    -1.2258 H       
  28 H28            1.5270     1.9012    -2.1379 H       
  29 H29            0.2115    -0.1755    -2.1365 H       
  30 H30            0.8155    -1.5799    -1.2234 H       
  31 H31            1.1886     3.1051    -0.0176 H       
  32 H32            1.8285     1.7162     0.8948 H       
  33 H33            0.5095    -0.3661     0.8962 H       
  34 H34           -1.0202    -0.3818    -0.0153 H       
  35 H35            4.8062    -1.6103    -5.2925 H       
  36 H36            2.7174    -4.1331    -1.9640 H       
  37 H37            5.0049    -3.4175    -5.5173 H       
  38 H38            5.2883    -5.8403    -5.8209 H       
  39 H39            2.8175    -5.5353    -0.4149 H       
  40 H40            1.3283    -5.5873    -1.3884 H       
  41 H41            1.7752    -6.9774    -0.3705 H       
  42 H42            4.6059    -7.7556    -6.2847 H       
  43 H43            6.0948    -7.7037    -5.3107 H       
  44 H44            5.1360    -9.2012    -5.3917 H       
@<TRIPOS>BOND
   1    1   21 1
   2    2   21 1
   3    3   21 1
   4    4   12 1
   5    4   13 1
   6    5   22 1
   7    5   25 1
   8    6   23 1
   9    6   26 1
  10    7   10 1
  11    7   11 1
  12    7   14 1
  13    8   14 ar
  14    8   15 ar
  15    9   14 ar
  16    9   16 ar
  17   10   13 1
  18   10   27 1
  19   10   28 1
  20   11   12 1
  21   11   29 1
  22   11   30 1
  23   12   33 1
  24   12   34 1
  25   13   31 1
  26   13   32 1
  27   15   17 1
  28   15   18 ar
  29   16   18 ar
  30   16   21 1
  31   17   19 ar
  32   17   20 ar
  33   18   35 1
  34   19   22 ar
  35   19   36 1
  36   20   24 ar
  37   20   37 1
  38   22   23 ar
  39   23   24 ar
  40   24   38 1
  41   25   39 1
  42   25   40 1
  43   25   41 1
  44   26   42 1
  45   26   43 1
  46   26   44 1

#	End of record

