#	Name: ASD01882627
#	Creating user name:	WinNT
#	Creation time:	15. 06. 2019 19:44

#	Modifying user name:	WinNT
#	Modification time:	15. 06. 2019 19:44

#	Program:	/corina/corina34_cracker 3.40 0067  02.08.2006

@<TRIPOS>MOLECULE
ASD01882627
  60   61    0    0    0
SMALL
NO_CHARGES


@<TRIPOS>ATOM
   1 C1            -0.0672     1.2750     0.0565 C.ar    
   2 C2             0.0650    -0.1000    -0.0125 C.ar    
   3 C3             1.3175    -0.6746    -0.0747 C.ar    
   4 C4             2.4567     0.1333    -0.0681 C.ar    
   5 C5             2.3216     1.5203     0.0016 C.ar    
   6 C6             1.0592     2.0863     0.0636 C.ar    
   7 O7             0.9230     3.4369     0.1310 O.3     
   8 C8            -0.4084     3.9524     0.1921 C.3     
   9 C9            -0.3610     5.4800     0.2628 C.3     
  10 C10           -1.7865     6.0320     0.3282 C.3     
  11 C11           -1.7392     7.5596     0.3990 C.3     
  12 O12           -3.0705     8.0751     0.4601 O.3     
  13 C13           -3.2065     9.4233     0.5274 C.ar    
  14 C14           -4.6137    11.3621     0.6639 C.ar    
  15 C15           -4.4725     9.9868     0.5947 C.ar    
  16 C16           -2.0743    10.2344     0.5343 C.ar    
  17 C17           -2.1974    11.5913     0.6026 C.ar    
  18 C18           -3.4686    12.1787     0.6659 C.ar    
  19 C19           -5.6928     9.1025     0.5920 C.3     
  20 O20           -5.8485    11.9186     0.7303 O.3     
  21 C21           -3.6035    13.6356     0.7383 C.2     
  22 O22           -4.7052    14.1406     0.7968 O.2     
  23 C23           -2.3741    14.5070     0.7401 C.3     
  24 C24           -2.7909    15.9769     0.8220 C.3     
  25 C25            3.5454     2.3996     0.0097 C.3     
  26 C26           -3.4748    16.2389     2.1654 C.3     
  27 C27           -1.5519    16.8660     0.6985 C.3     
  28 C28            3.7999    -0.4785    -0.1340 C.2     
  29 O29            3.9336    -1.8177    -0.0779 O.3     
  30 O30            4.7837     0.2262    -0.2389 O.2     
  31 H31           -1.0505     1.7193     0.1004 H       
  32 H32           -0.8152    -0.7258    -0.0173 H       
  33 H33            1.4172    -1.7487    -0.1281 H       
  34 H34           -0.9576     3.6468    -0.6984 H       
  35 H35           -0.9085     3.5630     1.0789 H       
  36 H36            0.1882     5.7857     1.1534 H       
  37 H37            0.1390     5.8695    -0.6239 H       
  38 H38           -2.3357     5.7263    -0.5623 H       
  39 H39           -2.2866     5.6425     1.2150 H       
  40 H40           -1.1900     7.8653     1.2895 H       
  41 H41           -1.2391     7.9491    -0.4878 H       
  42 H42           -1.0928     9.7863     0.4857 H       
  43 H43           -1.3147    12.2136     0.6083 H       
  44 H44           -6.0197     8.9376    -0.4346 H       
  45 H45           -5.4492     8.1457     1.0539 H       
  46 H46           -6.4921     9.5846     1.1549 H       
  47 H47           -6.1779    12.0385     1.6316 H       
  48 H48           -1.7528    14.2571     1.6002 H       
  49 H49           -1.8090    14.3402    -0.1769 H       
  50 H50           -3.4833    16.2039     0.0114 H       
  51 H51            3.8829     2.5620    -1.0139 H       
  52 H52            3.3013     3.3579     0.4682 H       
  53 H53            4.3373     1.9148     0.5808 H       
  54 H54           -3.7718    17.2861     2.2237 H       
  55 H55           -4.3575    15.6055     2.2534 H       
  56 H56           -2.7824    16.0119     2.9760 H       
  57 H57           -1.0647    16.6793    -0.2585 H       
  58 H58           -1.8489    17.9131     0.7569 H       
  59 H59           -0.8595    16.6390     1.5091 H       
  60 H60            4.8323    -2.1716    -0.1248 H       
@<TRIPOS>BOND
   1    1    2 ar
   2    1    6 ar
   3    1   31 1
   4    2    3 ar
   5    2   32 1
   6    3    4 ar
   7    3   33 1
   8    4    5 ar
   9    4   28 1
  10    5    6 ar
  11    5   25 1
  12    6    7 1
  13    7    8 1
  14    8    9 1
  15    8   34 1
  16    8   35 1
  17    9   10 1
  18    9   36 1
  19    9   37 1
  20   10   11 1
  21   10   38 1
  22   10   39 1
  23   11   12 1
  24   11   40 1
  25   11   41 1
  26   12   13 1
  27   13   16 ar
  28   13   15 ar
  29   14   15 ar
  30   14   18 ar
  31   14   20 1
  32   15   19 1
  33   16   17 ar
  34   16   42 1
  35   17   18 ar
  36   17   43 1
  37   18   21 1
  38   19   44 1
  39   19   45 1
  40   19   46 1
  41   20   47 1
  42   21   22 2
  43   21   23 1
  44   23   24 1
  45   23   48 1
  46   23   49 1
  47   24   27 1
  48   24   26 1
  49   24   50 1
  50   25   51 1
  51   25   52 1
  52   25   53 1
  53   26   54 1
  54   26   55 1
  55   26   56 1
  56   27   57 1
  57   27   58 1
  58   27   59 1
  59   28   29 1
  60   28   30 2
  61   29   60 1

#	End of record

