#	Name: ASD01813686
#	Creating user name:	WinNT
#	Creation time:	15. 06. 2019 19:30

#	Modifying user name:	WinNT
#	Modification time:	15. 06. 2019 19:30

#	Program:	/corina/corina34_cracker 3.40 0067  02.08.2006

@<TRIPOS>MOLECULE
ASD01813686
  50   52    0    0    0
SMALL
NO_CHARGES


@<TRIPOS>ATOM
   1 C1            -0.0018     1.3992     0.0116 C.ar    
   2 C2             0.0107     0.0119     0.0003 C.ar    
   3 C3             1.2013    -0.6813    -0.0143 C.ar    
   4 C4             2.4094     0.0110    -0.0179 C.ar    
   5 C5             2.3941     1.4162    -0.0065 C.ar    
   6 C6             1.1814     2.1048     0.0082 C.ar    
   7 N7             3.6069    -0.6709    -0.0320 N.pl3   
   8 C8             4.7945    -0.0520    -0.0356 C.2     
   9 C9             4.9071     1.3237    -0.0250 C.2     
  10 C10            3.6806     2.1373    -0.0106 C.2     
  11 O11            3.7263     3.3549    -0.0012 O.2     
  12 C12            6.2295     1.9652    -0.0285 C.2     
  13 O13            6.3263     3.3097    -0.0180 O.3     
  14 O14            7.2358     1.2834    -0.0408 O.2     
  15 C15            3.5796    -2.1356    -0.0430 C.3     
  16 C16            3.5598    -2.6269    -1.4675 C.ar    
  17 C17            4.7392    -2.8797    -2.1451 C.ar    
  18 C18            4.6808    -3.3321    -3.4586 C.ar    
  19 N19            3.5146    -3.5194    -4.0556 N.ar    
  20 C20            2.3740    -3.2869    -3.4345 C.ar    
  21 C21            2.3574    -2.8417    -2.1276 C.ar    
  22 N22            5.8616    -3.5902    -4.1532 N.am    
  23 C23            5.8131    -4.1273    -5.3884 C.2     
  24 O24            6.9452    -4.2800    -6.1010 O.3     
  25 O25            4.7478    -4.4737    -5.8589 O.2     
  26 C26            6.8177    -4.8654    -7.4236 C.3     
  27 C27            5.9057    -3.9883    -8.2838 C.3     
  28 C28            8.1988    -4.9584    -8.0755 C.3     
  29 C29            6.2143    -6.2664    -7.3053 C.3     
  30 H30           -0.9432     1.9284     0.0185 H       
  31 H31           -0.9231    -0.5306     0.0034 H       
  32 H32            1.1976    -1.7613    -0.0225 H       
  33 H33            1.1700     3.1847     0.0166 H       
  34 H34            5.6942    -0.6492    -0.0468 H       
  35 H35            7.2173     3.6857    -0.0209 H       
  36 H36            4.4665    -2.5193     0.4614 H       
  37 H37            2.6869    -2.4862     0.4748 H       
  38 H38            5.6923    -2.7273    -1.6606 H       
  39 H39            1.4412    -3.4507    -3.9537 H       
  40 H40            1.4190    -2.6542    -1.6270 H       
  41 H41            6.7181    -3.3833    -3.7476 H       
  42 H42            6.3356    -2.9902    -8.3681 H       
  43 H43            5.8100    -4.4277    -9.2767 H       
  44 H44            4.9219    -3.9221    -7.8194 H       
  45 H45            8.8485    -5.5832    -7.4627 H       
  46 H46            8.1031    -5.3978    -9.0684 H       
  47 H47            8.6287    -3.9603    -8.1598 H       
  48 H48            5.2304    -6.2002    -6.8409 H       
  49 H49            6.1186    -6.7058    -8.2982 H       
  50 H50            6.8640    -6.8913    -6.6925 H       
@<TRIPOS>BOND
   1    1    2 ar
   2    1    6 ar
   3    1   30 1
   4    2    3 ar
   5    2   31 1
   6    3    4 ar
   7    3   32 1
   8    4    5 ar
   9    4    7 1
  10    5    6 ar
  11    5   10 1
  12    6   33 1
  13    7    8 1
  14    7   15 1
  15    8    9 2
  16    8   34 1
  17    9   10 1
  18    9   12 1
  19   10   11 2
  20   12   13 1
  21   12   14 2
  22   13   35 1
  23   15   16 1
  24   15   36 1
  25   15   37 1
  26   16   17 ar
  27   16   21 ar
  28   17   18 ar
  29   17   38 1
  30   18   19 ar
  31   18   22 1
  32   19   20 ar
  33   20   21 ar
  34   20   39 1
  35   21   40 1
  36   22   23 am
  37   22   41 1
  38   23   24 1
  39   23   25 2
  40   24   26 1
  41   26   27 1
  42   26   28 1
  43   26   29 1
  44   27   42 1
  45   27   43 1
  46   27   44 1
  47   28   45 1
  48   28   46 1
  49   28   47 1
  50   29   48 1
  51   29   49 1
  52   29   50 1

#	End of record

