#	Name: ASD01918388
#	Creating user name:	WinNT
#	Creation time:	15. 06. 2019 20:11

#	Modifying user name:	WinNT
#	Modification time:	15. 06. 2019 20:11

#	Program:	/corina/corina34_cracker 3.40 0067  02.08.2006

@<TRIPOS>MOLECULE
ASD01918388
  33   35    0    0    0
SMALL
NO_CHARGES


@<TRIPOS>ATOM
   1 C1            -0.0187     1.5273     0.0104 C.3     
   2 C2             0.0021    -0.0041     0.0020 C.3     
   3 C3             0.5028    -0.5028    -1.3576 C.3     
   4 N4             1.7542     0.1884    -1.6830 N.pl3   
   5 C5             2.1793     1.3263    -1.0868 C.2     
   6 C6             1.4234     2.0511    -0.0005 C.3     
   7 N7             2.7080    -0.1833    -2.6330 N.2     
   8 C8             3.6764     0.7028    -2.6075 C.2     
   9 C9             3.3616     1.6668    -1.6356 C.2     
  10 O10            4.7912     0.6892    -3.3862 O.3     
  11 C11            4.9192    -0.3874    -4.3171 C.3     
  12 C12            6.2065    -0.2364    -5.0859 C.ar    
  13 N13            6.5229    -1.1300    -6.0033 N.ar    
  14 C14            7.6350    -1.0446    -6.7034 C.ar    
  15 C15            8.5263     0.0090    -6.4937 C.ar    
  16 C16            8.2176     0.9736    -5.5261 C.ar    
  17 C17            7.0343     0.8404    -4.8219 C.ar    
  18 C18            9.7359     0.1019    -7.2545 C.1     
  19 N19           10.6955     0.1756    -7.8581 N.1     
  20 H20           -0.5444     1.8893    -0.8732 H       
  21 H21           -0.5274     1.8797     0.9078 H       
  22 H22            0.6672    -0.3625     0.7877 H       
  23 H23           -1.0050    -0.3818     0.1789 H       
  24 H24            0.6807    -1.5771    -1.3098 H       
  25 H25           -0.2429    -0.2877    -2.1229 H       
  26 H26            1.4243     3.1220    -0.2036 H       
  27 H27            1.8920     1.8588     0.9647 H       
  28 H28            3.9602     2.5272    -1.3750 H       
  29 H29            4.9270    -1.3348    -3.7781 H       
  30 H30            4.0780    -0.3706    -5.0101 H       
  31 H31            7.8595    -1.7962    -7.4458 H       
  32 H32            8.8842     1.8021    -5.3375 H       
  33 H33            6.7633     1.5650    -4.0683 H       
@<TRIPOS>BOND
   1    1    2 1
   2    1    6 1
   3    1   20 1
   4    1   21 1
   5    2    3 1
   6    2   22 1
   7    2   23 1
   8    3    4 1
   9    3   24 1
  10    3   25 1
  11    4    5 1
  12    4    7 1
  13    5    6 1
  14    5    9 2
  15    6   26 1
  16    6   27 1
  17    7    8 2
  18    8    9 1
  19    8   10 1
  20    9   28 1
  21   10   11 1
  22   11   12 1
  23   11   29 1
  24   11   30 1
  25   12   13 ar
  26   12   17 ar
  27   13   14 ar
  28   14   15 ar
  29   14   31 1
  30   15   16 ar
  31   15   18 1
  32   16   17 ar
  33   16   32 1
  34   17   33 1
  35   18   19 3

#	End of record

