#	Name: ASD03092043
#	Creating user name:	WinNT
#	Creation time:	15. 06. 2019 20:31

#	Modifying user name:	WinNT
#	Modification time:	15. 06. 2019 20:31

#	Program:	/corina/corina34_cracker 3.40 0067  02.08.2006

@<TRIPOS>MOLECULE
ASD03092043
  43   45    0    0    0
SMALL
NO_CHARGES


@<TRIPOS>ATOM
   1 N1             0.1405     1.5192     0.0344 N.am    
   2 C2             0.1277     0.1505    -0.0407 C.2     
   3 C3            -1.1770    -0.2421    -0.0883 C.2     
   4 C4            -1.9752     0.9122    -0.0412 C.2     
   5 N5            -1.1891     1.9598     0.0380 N.2     
   6 C6             1.2365     2.3009     0.0990 C.2     
   7 N7             1.1111     3.6421     0.0557 N.am    
   8 N8            -3.3721     0.9402    -0.0676 N.pl3   
   9 C9            -4.0496     2.1525     0.0843 C.ar    
  10 C10           -3.5034     3.3234    -0.4253 C.ar    
  11 C11           -4.1765     4.5212    -0.2732 C.ar    
  12 C12           -5.3928     4.5537     0.3861 C.ar    
  13 C13           -5.9385     3.3891     0.8944 C.ar    
  14 C14           -5.2739     2.1885     0.7406 C.ar    
  15 Cl15          -3.4951     5.9858    -0.9090 Cl      
  16 C16            1.3107    -0.7364    -0.0656 C.ar    
  17 C17            1.3018    -1.9661     0.6025 C.ar    
  18 C18            2.4272    -2.7623     0.5526 C.ar    
  19 N19            3.5001    -2.3780    -0.1120 N.ar    
  20 C20            3.5505    -1.2269    -0.7552 C.ar    
  21 C21            2.4686    -0.3719    -0.7628 C.ar    
  22 C22            2.3024     4.4919     0.1260 C.3     
  23 C23            4.8055    -0.8442    -1.4966 C.3     
  24 O24            2.3377     1.7965     0.1964 O.2     
  25 C25            1.8849     5.9622     0.0570 C.3     
  26 H26           -1.5332    -1.2597    -0.1514 H       
  27 H27            0.2320     4.0448    -0.0220 H       
  28 H28           -3.8714     0.1178    -0.1914 H       
  29 H29           -2.5540     3.2982    -0.9395 H       
  30 H30           -5.9169     5.4907     0.5042 H       
  31 H31           -6.8878     3.4179     1.4086 H       
  32 H32           -5.7011     1.2796     1.1376 H       
  33 H33            0.4272    -2.2867     1.1490 H       
  34 H34            2.4301    -3.7131     1.0649 H       
  35 H35            2.5169     0.5687    -1.2914 H       
  36 H36            2.8261     4.3065     1.0639 H       
  37 H37            2.9625     4.2620    -0.7103 H       
  38 H38            4.7475    -1.2092    -2.5220 H       
  39 H39            4.9074     0.2411    -1.5024 H       
  40 H40            5.6695    -1.2875    -1.0015 H       
  41 H41            2.7713     6.5944     0.1094 H       
  42 H42            1.3612     6.1476    -0.8808 H       
  43 H43            1.2248     6.1921     0.8934 H       
@<TRIPOS>BOND
   1    1    2 1
   2    1    6 am
   3    1    5 1
   4    2    3 2
   5    2   16 1
   6    3    4 1
   7    3   26 1
   8    4    5 2
   9    4    8 1
  10    6    7 am
  11    6   24 2
  12    7   22 1
  13    7   27 1
  14    8    9 1
  15    8   28 1
  16    9   10 ar
  17    9   14 ar
  18   10   11 ar
  19   10   29 1
  20   11   12 ar
  21   11   15 1
  22   12   13 ar
  23   12   30 1
  24   13   14 ar
  25   13   31 1
  26   14   32 1
  27   16   17 ar
  28   16   21 ar
  29   17   18 ar
  30   17   33 1
  31   18   19 ar
  32   18   34 1
  33   19   20 ar
  34   20   21 ar
  35   20   23 1
  36   21   35 1
  37   22   25 1
  38   22   36 1
  39   22   37 1
  40   23   38 1
  41   23   39 1
  42   23   40 1
  43   25   41 1
  44   25   42 1
  45   25   43 1

#	End of record

