#	Name: ASD01411079
#	Creating user name:	WinNT
#	Creation time:	15. 06. 2019 19:19

#	Modifying user name:	WinNT
#	Modification time:	15. 06. 2019 19:19

#	Program:	/corina/corina34_cracker 3.40 0067  02.08.2006

@<TRIPOS>MOLECULE
ASD01411079
  39   41    0    0    0
SMALL
NO_CHARGES


@<TRIPOS>ATOM
   1 C1            -0.4732     1.7628     0.1264 C.2     
   2 C2            -0.7956     0.3992     0.4795 C.ar    
   3 C3             0.8485     1.9351     0.3615 C.2     
   4 C4            -1.3661     2.8570    -0.4024 C.3     
   5 C5             0.4181    -0.1851     0.9264 C.ar    
   6 C6            -1.9856    -0.3368     0.4475 C.ar    
   7 C7             1.5580     3.2444     0.1078 C.3     
   8 N8             1.3882     0.7739     0.8411 N.pl3   
   9 C9            -0.6252     4.1916    -0.2355 C.3     
  10 C10            0.4562    -1.5136     1.3466 C.ar    
  11 C11           -1.9179    -1.6528     0.8704 C.ar    
  12 Cl12          -3.4760     0.3678    -0.0963 Cl      
  13 O13            0.7147     4.0573    -0.7178 O.3     
  14 C14            1.8198     3.9557     1.4369 C.3     
  15 C15           -0.7330    -2.2225     1.3061 C.ar    
  16 Cl16           1.9302    -2.2478     1.8962 Cl      
  17 C17            2.7868     3.1436     2.2593 C.2     
  18 H18            2.3191     0.6495     1.0838 H       
  19 O19            3.2281     2.1066     1.8235 O.2     
  20 O20            3.1578     3.5721     3.4761 O.3     
  21 H21            3.7800     3.0173     3.9661 H       
  22 C22            4.9265     4.0583    -1.5651 C.3     
  23 C23            3.6635     4.2934    -0.7340 C.3     
  24 C24            2.8848     2.9825    -0.6076 C.3     
  25 H25           -1.5784     2.6824    -1.4572 H       
  26 H26           -2.2974     2.8789     0.1634 H       
  27 H27           -1.1407     4.9667    -0.8026 H       
  28 H28           -0.6042     4.4661     0.8191 H       
  29 H29           -2.8155    -2.2533     0.8606 H       
  30 H30            2.2448     4.9408     1.2442 H       
  31 H31            0.8819     4.0648     1.9815 H       
  32 H32           -0.7365    -3.2543     1.6251 H       
  33 H33            5.5503     3.3110    -1.0746 H       
  34 H34            4.6476     3.7042    -2.5575 H       
  35 H35            5.4812     4.9922    -1.6551 H       
  36 H36            3.9424     4.6475     0.2584 H       
  37 H37            3.0398     5.0407    -1.2245 H       
  38 H38            3.4716     2.2652    -0.0337 H       
  39 H39            2.6885     2.5792    -1.6010 H       
@<TRIPOS>BOND
   1    1    2 1
   2    1    3 2
   3    1    4 1
   4    2    5 ar
   5    2    6 ar
   6    3    7 1
   7    3    8 1
   8    4    9 1
   9    4   25 1
  10    4   26 1
  11    5   10 ar
  12    5    8 1
  13    6   11 ar
  14    6   12 1
  15    7   14 1
  16    7   24 1
  17    7   13 1
  18    8   18 1
  19    9   13 1
  20    9   27 1
  21    9   28 1
  22   10   15 ar
  23   10   16 1
  24   11   15 ar
  25   11   29 1
  26   14   17 1
  27   14   30 1
  28   14   31 1
  29   15   32 1
  30   17   19 2
  31   17   20 1
  32   20   21 1
  33   22   23 1
  34   22   33 1
  35   22   34 1
  36   22   35 1
  37   23   24 1
  38   23   36 1
  39   23   37 1
  40   24   38 1
  41   24   39 1

#	End of record

