#	Name: ASD01911706
#	Creating user name:	WinNT
#	Creation time:	15. 06. 2019 19:58

#	Modifying user name:	WinNT
#	Modification time:	15. 06. 2019 19:58

#	Program:	/corina/corina34_cracker 3.40 0067  02.08.2006

@<TRIPOS>MOLECULE
ASD01911706
  34   36    0    0    0
SMALL
NO_CHARGES


@<TRIPOS>ATOM
   1 N1            -0.0171     1.3436     0.0002 N.am    
   2 C2             0.0021    -0.0041     0.0020 C.2     
   3 C3            -1.2506    -0.7543     0.1205 C.2     
   4 C4            -1.3861    -2.1134     0.0310 C.2     
   5 S5            -2.8470    -0.0658     0.4110 S.3     
   6 C6            -3.5481    -1.6812     0.3766 C.2     
   7 N7            -2.6014    -2.5625     0.1688 N.2     
   8 C8            -4.9363    -1.9844     0.5538 C.1     
   9 C9            -6.0745    -2.2331     0.6990 C.1     
  10 C10           -7.4627    -2.5364     0.8762 C.ar    
  11 C11           -7.9037    -3.8626     0.8283 C.ar    
  12 C12           -9.2416    -4.1472     1.0001 C.ar    
  13 C13          -10.1484    -3.1232     1.2194 C.ar    
  14 C14           -9.7186    -1.8071     1.2681 C.ar    
  15 C15           -8.3829    -1.5082     1.1036 C.ar    
  16 O16            1.0602    -0.5978    -0.0948 O.2     
  17 C17           -1.2238     2.1834     0.0062 C.3     
  18 C18           -0.7585     3.6544    -0.0250 C.3     
  19 C19            0.6718     3.5539    -0.6179 C.3     
  20 C20            1.1686     2.2197    -0.0018 C.3     
  21 Cl21         -11.8314    -3.4908     1.4336 Cl      
  22 H22           -0.5445    -2.7678    -0.1420 H       
  23 H23           -7.1979    -4.6618     0.6567 H       
  24 H24           -9.5836    -5.1710     0.9634 H       
  25 H25          -10.4311    -1.0137     1.4390 H       
  26 H26           -8.0492    -0.4818     1.1418 H       
  27 H27           -1.8300     1.9676    -0.8736 H       
  28 H28           -1.8011     1.9963     0.9117 H       
  29 H29           -1.4032     4.2492    -0.6720 H       
  30 H30           -0.7302     4.0714     0.9817 H       
  31 H31            0.6407     3.4980    -1.7060 H       
  32 H32            1.2908     4.3886    -0.2888 H       
  33 H33            1.5287     2.3818     1.0142 H       
  34 H34            1.9553     1.7863    -0.6193 H       
@<TRIPOS>BOND
   1    1    2 am
   2    1   17 1
   3    1   20 1
   4    2    3 1
   5    2   16 2
   6    3    4 2
   7    3    5 1
   8    4    7 1
   9    4   22 1
  10    5    6 1
  11    6    7 2
  12    6    8 1
  13    8    9 3
  14    9   10 1
  15   10   11 ar
  16   10   15 ar
  17   11   12 ar
  18   11   23 1
  19   12   13 ar
  20   12   24 1
  21   13   14 ar
  22   13   21 1
  23   14   15 ar
  24   14   25 1
  25   15   26 1
  26   17   18 1
  27   17   27 1
  28   17   28 1
  29   18   19 1
  30   18   29 1
  31   18   30 1
  32   19   20 1
  33   19   31 1
  34   19   32 1
  35   20   33 1
  36   20   34 1

#	End of record

