#	Name: ASD03090234
#	Creating user name:	WinNT
#	Creation time:	15. 06. 2019 20:28

#	Modifying user name:	WinNT
#	Modification time:	15. 06. 2019 20:28

#	Program:	/corina/corina34_cracker 3.40 0067  02.08.2006

@<TRIPOS>MOLECULE
ASD03090234
  39   41    0    0    0
SMALL
NO_CHARGES


@<TRIPOS>ATOM
   1 N1             0.1131     1.4330     0.6404 N.ar    
   2 C2             0.2377     0.5012    -0.2847 C.ar    
   3 C3             1.4207    -0.1993    -0.4307 C.ar    
   4 C4             2.4930     0.0955     0.4218 C.ar    
   5 C5             2.3137     1.0918     1.3870 C.ar    
   6 C6             1.0980     1.7403     1.4622 C.ar    
   7 C7             3.7787    -0.6273     0.3046 C.2     
   8 N8             5.7574    -3.5230     0.0691 N.pl3   
   9 C9             4.9031    -4.6271    -0.0183 C.ar    
  10 C10            3.6813    -4.5113    -0.6681 C.ar    
  11 C11            2.8395    -5.6031    -0.7536 C.ar    
  12 C12            3.2131    -6.8122    -0.1921 C.ar    
  13 C13            4.4309    -6.9299     0.4567 C.ar    
  14 C14            5.2782    -5.8426     0.5397 C.ar    
  15 N15            3.9307    -1.9355     0.2526 N.2     
  16 C16            5.2265    -2.2341     0.1479 C.2     
  17 N17            5.9226    -1.1205     0.1313 N.2     
  18 N18            5.0042    -0.0623     0.2260 N.pl3   
  19 C19            5.3136     1.3695     0.2456 C.3     
  20 C20            5.1979     1.9357    -1.1711 C.3     
  21 O21            5.4997     3.3323    -1.1520 O.3     
  22 F22            2.3882    -7.8788    -0.2770 F       
  23 F23            1.5408    -1.1530    -1.3799 F       
  24 C24            4.8345    -8.2473     1.0673 C.3     
  25 F25            6.0946    -8.1193     1.6614 F       
  26 F26            3.8971    -8.6184     2.0373 F       
  27 F27            4.8865    -9.2270     0.0701 F       
  28 H28           -0.5952     0.2822    -0.9363 H       
  29 H29            3.1148     1.3493     2.0640 H       
  30 H30            0.9509     2.5109     2.2044 H       
  31 H31            6.7186    -3.6527     0.0750 H       
  32 H32            3.3893    -3.5681    -1.1059 H       
  33 H33            1.8890    -5.5134    -1.2585 H       
  34 H34            6.2278    -5.9349     1.0458 H       
  35 H35            4.6111     1.8841     0.9010 H       
  36 H36            6.3289     1.5168     0.6139 H       
  37 H37            5.9005     1.4211    -1.8266 H       
  38 H38            4.1826     1.7884    -1.5394 H       
  39 H39            5.4459     3.7582    -2.0185 H       
@<TRIPOS>BOND
   1    1    2 ar
   2    1    6 ar
   3    2    3 ar
   4    2   28 1
   5    3    4 ar
   6    3   23 1
   7    4    5 ar
   8    4    7 1
   9    5    6 ar
  10    5   29 1
  11    6   30 1
  12    7   15 2
  13    7   18 1
  14    8    9 1
  15    8   16 1
  16    8   31 1
  17    9   10 ar
  18    9   14 ar
  19   10   11 ar
  20   10   32 1
  21   11   12 ar
  22   11   33 1
  23   12   13 ar
  24   12   22 1
  25   13   14 ar
  26   13   24 1
  27   14   34 1
  28   15   16 1
  29   16   17 2
  30   17   18 1
  31   18   19 1
  32   19   20 1
  33   19   35 1
  34   19   36 1
  35   20   21 1
  36   20   37 1
  37   20   38 1
  38   21   39 1
  39   24   25 1
  40   24   26 1
  41   24   27 1

#	End of record

