#	Name: ASD00061013
#	Creating user name:	WinNT
#	Creation time:	15. 06. 2019 18:29

#	Modifying user name:	WinNT
#	Modification time:	15. 06. 2019 18:29

#	Program:	/corina/corina34_cracker 3.40 0067  02.08.2006

@<TRIPOS>MOLECULE
ASD00061013
  47   49    0    0    0
SMALL
NO_CHARGES


@<TRIPOS>ATOM
   1 C1            -0.0167     1.3829     0.0096 C.ar    
   2 C2             0.0021    -0.0041     0.0020 C.ar    
   3 N3            -1.2099    -0.7082    -0.0137 N.am    
   4 C4            -2.1496    -0.3597    -0.9119 C.2     
   5 C5            -1.8553     0.6941    -1.9425 C.3     
   6 C6            -1.9891     2.0910    -1.3358 C.3     
   7 C7            -1.3320     2.1133     0.0457 C.3     
   8 C8             1.1718     2.0868     0.0021 C.ar    
   9 C9             2.3765     1.4077    -0.0025 C.ar    
  10 C10            2.3967     0.0248    -0.0002 C.ar    
  11 C11            1.2109    -0.6846     0.0024 C.ar    
  12 O12           -3.2367    -0.8970    -0.8894 O.2     
  13 N13           -0.4902     0.5131    -2.4424 N.am    
  14 S14           -0.2236    -0.3567    -3.8261 S.o2    
  15 C15           -1.4489    -1.8033     0.9295 C.3     
  16 C16           -0.9728     0.5297    -5.1519 C.ar    
  17 C17           -0.2445     1.4744    -5.8503 C.ar    
  18 C18           -0.8323     2.1699    -6.8904 C.ar    
  19 C19           -2.1483     1.9202    -7.2323 C.ar    
  20 C20           -2.8763     0.9748    -6.5344 C.ar    
  21 C21           -2.2872     0.2763    -5.4971 C.ar    
  22 O22            1.1775    -0.3195    -4.0597 O.2     
  23 O23           -0.9566    -1.5661    -3.6872 O.2     
  24 C24           -2.0787    -1.2567     2.1848 C.2     
  25 O25           -2.3048    -0.0737     2.2815 O.2     
  26 O26           -2.3886    -2.0840     3.1953 O.3     
  27 C27           -2.9927    -1.4881     4.3735 C.3     
  28 H28           -2.5571     0.5930    -2.7704 H       
  29 H29           -1.4974     2.8168    -1.9835 H       
  30 H30           -3.0446     2.3459    -1.2403 H       
  31 H31           -1.9922     1.6320     0.7672 H       
  32 H32           -1.1628     3.1468     0.3482 H       
  33 H33            1.1603     3.1667    -0.0007 H       
  34 H34            3.3050     1.9593    -0.0081 H       
  35 H35            3.3400    -0.5010    -0.0001 H       
  36 H36            1.2252    -1.7645     0.0040 H       
  37 H37            0.2575     0.9029    -1.9629 H       
  38 H38           -2.1182    -2.5342     0.4757 H       
  39 H39           -0.5018    -2.2827     1.1773 H       
  40 H40            0.7836     1.6695    -5.5832 H       
  41 H41           -0.2636     2.9085    -7.4357 H       
  42 H42           -2.6077     2.4640    -8.0445 H       
  43 H43           -3.9045     0.7800    -6.8013 H       
  44 H44           -2.8559    -0.4624    -4.9519 H       
  45 H45           -3.1923    -2.2647     5.1118 H       
  46 H46           -2.3115    -0.7503     4.7974 H       
  47 H47           -3.9279    -1.0018     4.0958 H       
@<TRIPOS>BOND
   1    1    2 ar
   2    1    8 ar
   3    1    7 1
   4    2    3 1
   5    2   11 ar
   6    3    4 am
   7    3   15 1
   8    4    5 1
   9    4   12 2
  10    5    6 1
  11    5   13 1
  12    5   28 1
  13    6    7 1
  14    6   29 1
  15    6   30 1
  16    7   31 1
  17    7   32 1
  18    8    9 ar
  19    8   33 1
  20    9   10 ar
  21    9   34 1
  22   10   11 ar
  23   10   35 1
  24   11   36 1
  25   13   14 am
  26   13   37 1
  27   14   16 1
  28   14   22 2
  29   14   23 2
  30   15   24 1
  31   15   38 1
  32   15   39 1
  33   16   17 ar
  34   16   21 ar
  35   17   18 ar
  36   17   40 1
  37   18   19 ar
  38   18   41 1
  39   19   20 ar
  40   19   42 1
  41   20   21 ar
  42   20   43 1
  43   21   44 1
  44   24   25 2
  45   24   26 1
  46   26   27 1
  47   27   45 1
  48   27   46 1
  49   27   47 1

#	End of record

