#	Name: ASD01209012
#	Creating user name:	WinNT
#	Creation time:	15. 06. 2019 19:10

#	Modifying user name:	WinNT
#	Modification time:	15. 06. 2019 19:10

#	Program:	/corina/corina34_cracker 3.40 0067  02.08.2006

@<TRIPOS>MOLECULE
ASD01209012
  59   63    0    0    0
SMALL
NO_CHARGES


@<TRIPOS>ATOM
   1 S1            -0.1894     0.7862     0.3797 S.o2    
   2 C2            -2.0851    -0.8925    -6.0975 C.3     
   3 C3            -3.5491    -1.0325    -5.6756 C.3     
   4 C4            -3.9338     0.1404    -4.7716 C.3     
   5 C5            -5.4048     0.0672    -4.4523 C.2     
   6 O6            -5.7684    -0.1703    -3.3198 O.2     
   7 N7            -3.1605     0.0735    -3.5292 N.pl3   
   8 C8            -2.2983     1.0396    -3.0749 C.ar    
   9 C9            -1.7742     0.5724    -1.8544 C.ar    
  10 C10           -2.3835    -0.7325    -1.6184 C.2     
  11 N11           -3.1869    -0.9826    -2.6126 N.2     
  12 N12           -6.3162     0.2655    -5.4251 N.am    
  13 C13           -1.8954     2.2780    -3.5674 C.ar    
  14 C14           -0.9969     3.0327    -2.8689 C.ar    
  15 C15           -0.4726     2.5794    -1.6598 C.ar    
  16 C16           -0.8547     1.3568    -1.1488 C.ar    
  17 C17           -7.6714     0.2963    -5.1128 C.2     
  18 S18           -8.9799     0.5444    -6.2658 S.3     
  19 C19          -10.1530     0.4151    -4.9569 C.2     
  20 C20           -9.4877     0.2060    -3.8187 C.2     
  21 N21           -8.1737     0.1412    -3.9263 N.2     
  22 F22          -11.4946     0.5114    -5.0836 F       
  23 C23           -1.3386     1.4129     1.6356 C.3     
  24 C24           -0.9743     1.1836     3.1038 C.3     
  25 C25           -0.8700     2.5854     2.4997 C.3     
  26 O26           -0.2715    -0.6296     0.2909 O.2     
  27 O27            1.0670     1.4422     0.4817 O.2     
  28 C28           -1.6524    -2.1429    -6.8691 C.3     
  29 C29           -0.2120    -1.9604    -7.3547 C.3     
  30 O30           -0.1293    -0.7869    -8.1659 O.3     
  31 C31           -0.4768     0.4197    -7.4836 C.3     
  32 C32           -1.9278     0.3328    -7.0032 C.3     
  33 O33            0.4206     3.3470    -0.9801 O.3     
  34 C34            0.7740     4.6024    -1.5643 C.3     
  35 H35           -1.4601    -0.7758    -5.2122 H       
  36 H36           -4.1842    -1.0320    -6.5615 H       
  37 H37           -3.6830    -1.9684    -5.1331 H       
  38 H38           -3.7193     1.0788    -5.2830 H       
  39 H39           -2.2037    -1.3743    -0.7686 H       
  40 H40           -6.0272     0.3868    -6.3431 H       
  41 H41           -2.2937     2.6420    -4.5029 H       
  42 H42           -0.6890     3.9919    -3.2581 H       
  43 H43           -9.9926     0.0926    -2.8707 H       
  44 H44           -2.3944     1.3754     1.3672 H       
  45 H45           -1.7904     0.9956     3.8014 H       
  46 H46           -0.0441     0.6561     3.3150 H       
  47 H47            0.1288     2.9802     2.3135 H       
  48 H48           -1.6176     3.3197     2.7999 H       
  49 H49           -1.7086    -3.0126    -6.2144 H       
  50 H50           -2.3101    -2.2879    -7.7261 H       
  51 H51            0.4507    -1.8560    -6.4956 H       
  52 H52            0.0868    -2.8294    -7.9410 H       
  53 H53            0.1824     0.5553    -6.6262 H       
  54 H54           -0.3688     1.2654    -8.1627 H       
  55 H55           -2.5911     0.2379    -7.8629 H       
  56 H56           -2.1811     1.2338    -6.4443 H       
  57 H57            1.2189     4.4343    -2.5451 H       
  58 H58           -0.1193     5.2177    -1.6712 H       
  59 H59            1.4920     5.1126    -0.9223 H       
@<TRIPOS>BOND
   1    1   26 2
   2    1   27 2
   3    1   16 1
   4    1   23 1
   5    2    3 1
   6    2   28 1
   7    2   32 1
   8    2   35 1
   9    3    4 1
  10    3   36 1
  11    3   37 1
  12    4    7 1
  13    4    5 1
  14    4   38 1
  15    5    6 2
  16    5   12 am
  17    7    8 1
  18    7   11 1
  19    8    9 ar
  20    8   13 ar
  21    9   10 1
  22    9   16 ar
  23   10   11 2
  24   10   39 1
  25   12   17 1
  26   12   40 1
  27   13   14 ar
  28   13   41 1
  29   14   15 ar
  30   14   42 1
  31   15   16 ar
  32   15   33 1
  33   17   18 1
  34   17   21 2
  35   18   19 1
  36   19   20 2
  37   19   22 1
  38   20   21 1
  39   20   43 1
  40   23   24 1
  41   23   25 1
  42   23   44 1
  43   24   25 1
  44   24   45 1
  45   24   46 1
  46   25   47 1
  47   25   48 1
  48   28   29 1
  49   28   49 1
  50   28   50 1
  51   29   30 1
  52   29   51 1
  53   29   52 1
  54   30   31 1
  55   31   32 1
  56   31   53 1
  57   31   54 1
  58   32   55 1
  59   32   56 1
  60   33   34 1
  61   34   57 1
  62   34   58 1
  63   34   59 1

#	End of record

