#	Name: ASD07930046
#	Creating user name:	WinNT
#	Creation time:	15. 06. 2019 21:11

#	Modifying user name:	WinNT
#	Modification time:	15. 06. 2019 21:11

#	Program:	/corina/corina34_cracker 3.40 0067  02.08.2006

@<TRIPOS>MOLECULE
ASD07930046
  48   50    0    0    0
SMALL
NO_CHARGES


@<TRIPOS>ATOM
   1 C1            -0.0526     1.6206     0.0798 C.3     
   2 C2            -0.7505     1.9659    -1.2518 C.3     
   3 C3             0.0286     0.0791     0.1022 C.3     
   4 C4            -1.0323     0.6040    -1.9220 C.3     
   5 C5             1.3303     2.2181     0.1163 C.ar    
   6 C6             2.9150     3.7249     1.0949 C.ar    
   7 C7             3.8704     3.3138     0.1813 C.ar    
   8 C8             3.5570     2.3515    -0.7601 C.ar    
   9 C9             1.6442     3.1759     1.0614 C.ar    
  10 C10            2.2873     1.8034    -0.7930 C.ar    
  11 Cl11           1.8946     0.5945    -1.9753 Cl      
  12 F12            3.2209     4.6651     2.0156 F       
  13 N13           -0.8453     2.1048     1.2127 N.pl3   
  14 O14           -0.4799     1.8791     2.3524 O.2     
  15 O15           -1.8698     2.7332     1.0148 O.2     
  16 C16            0.1589     2.7978    -2.1190 C.2     
  17 O17            0.5034     2.3870    -3.2018 O.2     
  18 O18            0.5861     3.9953    -1.6885 O.3     
  19 C19            1.8396     6.0703    -1.9195 C.3     
  20 C20            1.4596     4.7417    -2.5763 C.3     
  21 N21           -1.0661    -0.3665    -0.7978 N.3     
  22 C22           -2.0632    -2.2415    -1.9790 C.ar    
  23 C23           -2.2165    -2.0399    -3.3380 C.ar    
  24 C24           -3.3452    -2.5094    -3.9834 C.ar    
  25 C25           -4.3204    -3.1809    -3.2700 C.ar    
  26 C26           -4.1667    -3.3833    -1.9112 C.ar    
  27 C27           -3.0386    -2.9126    -1.2655 C.ar    
  28 C28           -0.8299    -1.7351    -1.2766 C.3     
  29 H29           -1.6844     2.4956    -1.0636 H       
  30 H30            0.9935    -0.2563    -0.2779 H       
  31 H31           -0.1339    -0.2955     1.1128 H       
  32 H32           -1.9935     0.6247    -2.4355 H       
  33 H33           -0.2334     0.3508    -2.6190 H       
  34 H34            4.8603     3.7451     0.2038 H       
  35 H35            4.3021     2.0309    -1.4731 H       
  36 H36            0.8984     3.4966     1.7737 H       
  37 H37            0.9376     6.6505    -1.7249 H       
  38 H38            2.3566     5.8763    -0.9797 H       
  39 H39            2.4954     6.6306    -2.5859 H       
  40 H40            2.3617     4.1615    -2.7708 H       
  41 H41            0.9427     4.9357    -3.5161 H       
  42 H42           -1.4546    -1.5153    -3.8954 H       
  43 H43           -3.4653    -2.3512    -5.0450 H       
  44 H44           -5.2025    -3.5471    -3.7741 H       
  45 H45           -4.9289    -3.9073    -1.3537 H       
  46 H46           -2.9189    -3.0700    -0.2038 H       
  47 H47            0.0104    -1.7372    -1.9709 H       
  48 H48           -0.6028    -2.3822    -0.4294 H       
@<TRIPOS>BOND
   1    1    3 1
   2    1    5 1
   3    1   13 1
   4    1    2 1
   5    2    4 1
   6    2   16 1
   7    2   29 1
   8    3   21 1
   9    3   30 1
  10    3   31 1
  11    4   21 1
  12    4   32 1
  13    4   33 1
  14    5    9 ar
  15    5   10 ar
  16    6    7 ar
  17    6   12 1
  18    6    9 ar
  19    7    8 ar
  20    7   34 1
  21    8   10 ar
  22    8   35 1
  23    9   36 1
  24   10   11 1
  25   13   14 2
  26   13   15 2
  27   16   17 2
  28   16   18 1
  29   18   20 1
  30   19   20 1
  31   19   37 1
  32   19   38 1
  33   19   39 1
  34   20   40 1
  35   20   41 1
  36   21   28 1
  37   22   23 ar
  38   22   27 ar
  39   22   28 1
  40   23   24 ar
  41   23   42 1
  42   24   25 ar
  43   24   43 1
  44   25   26 ar
  45   25   44 1
  46   26   27 ar
  47   26   45 1
  48   27   46 1
  49   28   47 1
  50   28   48 1

#	End of record

