#	Name: ASD01881832
#	Creating user name:	WinNT
#	Creation time:	15. 06. 2019 19:43

#	Modifying user name:	WinNT
#	Modification time:	15. 06. 2019 19:43

#	Program:	/corina/corina34_cracker 3.40 0067  02.08.2006

@<TRIPOS>MOLECULE
ASD01881832
  38   41    0    0    0
SMALL
NO_CHARGES


@<TRIPOS>ATOM
   1 N1            -0.0154     1.2839     0.0091 N.pl3   
   2 N2             0.0021    -0.0041     0.0020 N.2     
   3 N3             1.2033    -0.4649    -0.0119 N.2     
   4 C4             2.0741     0.5645    -0.0147 C.ar    
   5 C5             1.2843     1.7298    -0.0009 C.ar    
   6 C6             3.4670     0.6759    -0.0271 C.ar    
   7 C7             4.0484     1.9285    -0.0255 C.ar    
   8 C8             3.2560     3.0739    -0.0118 C.ar    
   9 C9             1.8924     2.9784    -0.0004 C.ar    
  10 O10            5.4033     2.0444    -0.0370 O.3     
  11 C11            5.9411     3.3683    -0.0346 C.3     
  12 C12            7.4694     3.2979    -0.0487 C.3     
  13 C13            8.3326     5.3916     1.0419 C.2     
  14 N14            8.7969     6.5456     0.6473 N.2     
  15 C15            8.7981     6.5868    -0.6933 C.2     
  16 C16            8.3163     5.4138    -1.1467 C.2     
  17 N17            8.0209     4.6552    -0.0463 N.pl3   
  18 C18           -1.2133     2.1272     0.0196 C.3     
  19 C19           -1.6228     2.4135     1.4657 C.3     
  20 C20           -2.7884     3.3784     1.6921 C.3     
  21 C21           -2.9777     1.8797     1.9352 C.3     
  22 Br22           4.5472    -0.8761    -0.0451 Br      
  23 H23            3.7236     4.0474    -0.0103 H       
  24 H24            1.2882     3.8735     0.0099 H       
  25 H25            5.5939     3.9031    -0.9187 H       
  26 H26            5.6098     3.8935     0.8612 H       
  27 H27            7.8167     2.7631     0.8353 H       
  28 H28            7.8008     2.7728    -0.9445 H       
  29 H29            8.2206     5.0759     2.0687 H       
  30 H30            9.1274     7.4156    -1.3025 H       
  31 H31            8.1874     5.1270    -2.1799 H       
  32 H32           -1.0007     3.0667    -0.4906 H       
  33 H33           -2.0254     1.6113    -0.4926 H       
  34 H34           -0.8089     2.4286     2.1906 H       
  35 H35           -2.7415     4.0280     2.5661 H       
  36 H36           -3.2635     3.8093     0.8108 H       
  37 H37           -3.5773     1.3246     1.2137 H       
  38 H38           -3.0553     1.5434     2.9691 H       
@<TRIPOS>BOND
   1    1    2 1
   2    1    5 1
   3    1   18 1
   4    2    3 2
   5    3    4 1
   6    4    5 ar
   7    4    6 ar
   8    5    9 ar
   9    6    7 ar
  10    6   22 1
  11    7    8 ar
  12    7   10 1
  13    8    9 ar
  14    8   23 1
  15    9   24 1
  16   10   11 1
  17   11   12 1
  18   11   25 1
  19   11   26 1
  20   12   17 1
  21   12   27 1
  22   12   28 1
  23   13   14 2
  24   13   17 1
  25   13   29 1
  26   14   15 1
  27   15   16 2
  28   15   30 1
  29   16   17 1
  30   16   31 1
  31   18   19 1
  32   18   32 1
  33   18   33 1
  34   19   20 1
  35   19   21 1
  36   19   34 1
  37   20   21 1
  38   20   35 1
  39   20   36 1
  40   21   37 1
  41   21   38 1

#	End of record

