#	Name: ASD08070110
#	Creating user name:	WinNT
#	Creation time:	15. 06. 2019 21:14

#	Modifying user name:	WinNT
#	Modification time:	15. 06. 2019 21:14

#	Program:	/corina/corina34_cracker 3.40 0067  02.08.2006

@<TRIPOS>MOLECULE
ASD08070110
  45   46    0    0    0
SMALL
NO_CHARGES


@<TRIPOS>ATOM
   1 C1            -0.0167     1.3819     0.0096 C.ar    
   2 C2             0.0021    -0.0041     0.0020 C.ar    
   3 C3             1.1759     2.0892     0.0021 C.ar    
   4 C4             2.3848     1.4084    -0.0131 C.ar    
   5 C5             2.4009     0.0265    -0.0207 C.ar    
   6 C6             1.2140    -0.6804    -0.0132 C.ar    
   7 C7             1.2351    -2.1873    -0.0210 C.3     
   8 N8             0.9894    -2.6721    -1.3814 N.am    
   9 O9             1.1607     3.4481     0.0090 O.3     
  10 C10            0.9630    -3.9964    -1.6304 C.2     
  11 O11            1.1426    -4.7867    -0.7282 O.2     
  12 C12            0.7103    -4.4951    -3.0299 C.3     
  13 N13            0.7309    -5.9639    -3.0375 N.3     
  14 C14            0.4876    -6.4868    -4.3885 C.3     
  15 C15            0.5165    -8.0162    -4.3563 C.3     
  16 C16            0.2669    -8.5527    -5.7423 C.2     
  17 C17            1.2092    -8.8166    -6.6652 C.2     
  18 C18            0.5363    -9.2994    -7.8111 C.2     
  19 C19           -0.7769    -9.3016    -7.5199 C.2     
  20 O20           -0.9337    -8.8538    -6.2634 O.3     
  21 O21           -1.1651    -0.7001     0.0099 O.3     
  22 C22           -2.3743     0.0613     0.0260 C.3     
  23 C23            2.4265     4.1111     0.0005 C.3     
  24 H24           -0.9588     1.9100     0.0170 H       
  25 H25            3.3139     1.9589    -0.0194 H       
  26 H26            3.3429    -0.5016    -0.0326 H       
  27 H27            2.2091    -2.5387     0.3196 H       
  28 H28            0.4593    -2.5650     0.6450 H       
  29 H29            0.8458    -2.0400    -2.1030 H       
  30 H30           -0.2636    -4.1436    -3.3705 H       
  31 H31            1.4861    -4.1174    -3.6958 H       
  32 H32            1.6003    -6.3153    -2.6649 H       
  33 H33           -0.4879    -6.1492    -4.7385 H       
  34 H34            1.2619    -6.1229    -5.0639 H       
  35 H35            1.4920    -8.3539    -4.0062 H       
  36 H36           -0.2578    -8.3801    -3.6809 H       
  37 H37            2.2751    -8.6845    -6.5526 H       
  38 H38            0.9897    -9.6070    -8.7418 H       
  39 H39           -1.5703    -9.6143    -8.1826 H       
  40 H40           -2.3992     0.6849     0.9196 H       
  41 H41           -2.4169     0.6944    -0.8603 H       
  42 H42           -3.2293    -0.6148     0.0308 H       
  43 H43            2.2716     5.1900     0.0074 H       
  44 H44            2.9951     3.8200     0.8838 H       
  45 H45            2.9784     3.8289    -0.8961 H       
@<TRIPOS>BOND
   1    1    2 ar
   2    1    3 ar
   3    1   24 1
   4    2   21 1
   5    2    6 ar
   6    3    4 ar
   7    3    9 1
   8    4    5 ar
   9    4   25 1
  10    5    6 ar
  11    5   26 1
  12    6    7 1
  13    7    8 1
  14    7   27 1
  15    7   28 1
  16    8   10 am
  17    8   29 1
  18    9   23 1
  19   10   11 2
  20   10   12 1
  21   12   13 1
  22   12   30 1
  23   12   31 1
  24   13   14 1
  25   13   32 1
  26   14   15 1
  27   14   33 1
  28   14   34 1
  29   15   16 1
  30   15   35 1
  31   15   36 1
  32   16   17 2
  33   16   20 1
  34   17   18 1
  35   17   37 1
  36   18   19 2
  37   18   38 1
  38   19   20 1
  39   19   39 1
  40   21   22 1
  41   22   40 1
  42   22   41 1
  43   22   42 1
  44   23   43 1
  45   23   44 1
  46   23   45 1

#	End of record

