#	Name: ASD08178311
#	Creating user name:	WinNT
#	Creation time:	15. 06. 2019 21:18

#	Modifying user name:	WinNT
#	Modification time:	15. 06. 2019 21:18

#	Program:	/corina/corina34_cracker 3.40 0067  02.08.2006

@<TRIPOS>MOLECULE
ASD08178311
  80   82    0    0    0
SMALL
NO_CHARGES


@<TRIPOS>ATOM
   1 N1            -0.0168     1.3902     0.0097 N.am    
   2 C2            -0.2171     0.0103     0.0231 C.ar    
   3 C3             0.8689    -0.8559    -0.0925 C.ar    
   4 N4            -1.4393    -0.4833     0.1512 N.ar    
   5 N5            -1.6661    -1.7464     0.1682 N.ar    
   6 C6            -0.6999    -2.6367     0.0594 C.ar    
   7 C7             0.6167    -2.2188    -0.0737 C.ar    
   8 C8            -1.0244    -4.1081     0.0861 C.3     
   9 C9            -1.8112    -4.4338     1.3572 C.3     
  10 C10           -2.1407    -5.9277     1.3843 C.3     
  11 C11           -2.9274    -6.2534     2.6554 C.3     
  12 C12           -3.2519    -7.7248     2.6821 C.2     
  13 N13           -2.5209    -8.6591     3.2021 N.2     
  14 N14           -2.9687    -9.8368     3.1226 N.2     
  15 C15           -4.1127   -10.0084     2.5318 C.2     
  16 S16           -4.6992    -8.4833     2.0175 S.3     
  17 N17           -4.7572   -11.2276     2.3518 N.am    
  18 C18           -4.1927   -12.3624     2.8099 C.2     
  19 C19           -4.8911   -13.6835     2.6148 C.3     
  20 O20           -3.1226   -12.3205     3.3791 O.2     
  21 C21           -4.0565   -14.7862     3.2136 C.ar    
  22 C22           -1.0751     2.2248     0.0166 C.2     
  23 C23           -0.8605     3.7129     0.1197 C.3     
  24 O24           -2.2000     1.7783    -0.0600 O.2     
  25 C25           -2.2143     4.4255     0.1062 C.3     
  26 C26           -4.2363   -15.1491     4.5350 C.ar    
  27 C27           -3.4706   -16.1607     5.0844 C.ar    
  28 C28           -2.5257   -16.8094     4.3120 C.ar    
  29 C29           -2.3465   -16.4470     2.9899 C.ar    
  30 C30           -3.1150   -15.4387     2.4395 C.ar    
  31 C31           -3.6660   -16.5557     6.5255 C.3     
  32 N32           -4.6791   -17.6105     6.6098 N.am    
  33 C33           -5.0203   -18.1231     7.8087 C.2     
  34 O34           -4.4875   -17.7103     8.8197 O.2     
  35 O35           -5.9514   -19.0925     7.8860 O.3     
  36 C36           -6.2688   -19.5975     9.2099 C.3     
  37 C37           -6.7932   -18.4534    10.0799 C.3     
  38 C38           -7.3392   -20.6849     9.0978 C.3     
  39 C39           -5.0084   -20.1862     9.8469 C.3     
  40 C40           -0.1283     4.0334     1.4243 C.3     
  41 C41           -0.0209     4.1904    -1.0669 C.3     
  42 H42            0.8841     1.7495    -0.0006 H       
  43 H43            1.8752    -0.4770    -0.1939 H       
  44 H44            1.4207    -2.9343    -0.1640 H       
  45 H45           -1.6237    -4.3638    -0.7877 H       
  46 H46           -0.0994    -4.6844     0.0736 H       
  47 H47           -1.2119    -4.1780     2.2310 H       
  48 H48           -2.7362    -3.8574     1.3697 H       
  49 H49           -2.7400    -6.1835     0.5105 H       
  50 H50           -1.2156    -6.5041     1.3718 H       
  51 H51           -2.3281    -5.9977     3.5292 H       
  52 H52           -3.8525    -5.6771     2.6680 H       
  53 H53           -5.6131   -11.2611     1.8965 H       
  54 H54           -5.8637   -13.6563     3.1060 H       
  55 H55           -5.0273   -13.8686     1.5493 H       
  56 H56           -2.8124     4.0853     0.9515 H       
  57 H57           -2.0590     5.5019     0.1807 H       
  58 H58           -2.7359     4.1972    -0.8233 H       
  59 H59           -4.9747   -14.6422     5.1386 H       
  60 H60           -1.9271   -17.5992     4.7414 H       
  61 H61           -1.6079   -16.9537     2.3864 H       
  62 H62           -2.9750   -15.1556     1.4067 H       
  63 H63           -2.7240   -16.9234     6.9324 H       
  64 H64           -3.9955   -15.6889     7.0984 H       
  65 H65           -5.1045   -17.9400     5.8026 H       
  66 H66           -7.6911   -18.0339     9.6261 H       
  67 H67           -7.0315   -18.8324    11.0737 H       
  68 H68           -6.0306   -17.6787    10.1598 H       
  69 H69           -6.9657   -21.5000     8.4780 H       
  70 H70           -7.5775   -21.0640    10.0916 H       
  71 H71           -8.2371   -20.2654     8.6440 H       
  72 H72           -4.2458   -19.4115     9.9267 H       
  73 H73           -5.2467   -20.5653    10.8407 H       
  74 H74           -4.6349   -21.0013     9.2270 H       
  75 H75            0.8361     3.5257     1.4340 H       
  76 H76            0.0269     5.1097     1.4989 H       
  77 H77           -0.7265     3.6932     2.2697 H       
  78 H78           -0.5425     3.9621    -1.9963 H       
  79 H79            0.1344     5.2667    -0.9923 H       
  80 H80            0.9436     3.6827    -1.0573 H       
@<TRIPOS>BOND
   1    1    2 1
   2    1   22 am
   3    1   42 1
   4    2    3 ar
   5    2    4 ar
   6    3    7 ar
   7    3   43 1
   8    4    5 ar
   9    5    6 ar
  10    6    7 ar
  11    6    8 1
  12    7   44 1
  13    8    9 1
  14    8   45 1
  15    8   46 1
  16    9   10 1
  17    9   47 1
  18    9   48 1
  19   10   11 1
  20   10   49 1
  21   10   50 1
  22   11   12 1
  23   11   51 1
  24   11   52 1
  25   12   13 2
  26   12   16 1
  27   13   14 1
  28   14   15 2
  29   15   16 1
  30   15   17 1
  31   17   18 am
  32   17   53 1
  33   18   19 1
  34   18   20 2
  35   19   21 1
  36   19   54 1
  37   19   55 1
  38   21   26 ar
  39   21   30 ar
  40   22   23 1
  41   22   24 2
  42   23   25 1
  43   23   40 1
  44   23   41 1
  45   25   56 1
  46   25   57 1
  47   25   58 1
  48   26   27 ar
  49   26   59 1
  50   27   28 ar
  51   27   31 1
  52   28   29 ar
  53   28   60 1
  54   29   30 ar
  55   29   61 1
  56   30   62 1
  57   31   32 1
  58   31   63 1
  59   31   64 1
  60   32   33 am
  61   32   65 1
  62   33   34 2
  63   33   35 1
  64   35   36 1
  65   36   37 1
  66   36   38 1
  67   36   39 1
  68   37   66 1
  69   37   67 1
  70   37   68 1
  71   38   69 1
  72   38   70 1
  73   38   71 1
  74   39   72 1
  75   39   73 1
  76   39   74 1
  77   40   75 1
  78   40   76 1
  79   40   77 1
  80   41   78 1
  81   41   79 1
  82   41   80 1

#	End of record

