#	Name: ASD07300236
#	Creating user name:	WinNT
#	Creation time:	15. 06. 2019 21:09

#	Modifying user name:	WinNT
#	Modification time:	15. 06. 2019 21:09

#	Program:	/corina/corina34_cracker 3.40 0067  02.08.2006

@<TRIPOS>MOLECULE
ASD07300236
  47   52    0    0    0
SMALL
NO_CHARGES


@<TRIPOS>ATOM
   1 C1            -0.0174     1.3941    -0.0127 C.ar    
   2 C2             0.0017    -0.0041    -0.0113 C.ar    
   3 C3             1.2193    -0.6673    -0.0451 C.ar    
   4 C4             2.3796     0.0925    -0.0793 C.ar    
   5 C5             2.2864     1.4715    -0.0786 C.ar    
   6 N6             1.1150     2.0769    -0.0456 N.ar    
   7 C7            -2.1134     0.6622     0.0564 C.2     
   8 N8            -1.3542     1.7734     0.0301 N.am    
   9 N9            -1.3232    -0.4280     0.0272 N.am    
  10 O10           -3.3294     0.6453     0.0962 O.2     
  11 C11           -1.8317     3.0925     0.0441 C.ar    
  12 C12           -3.1980     3.3357     0.0880 C.ar    
  13 C13           -3.6681     4.6336     0.1018 C.ar    
  14 C14           -2.7742     5.6962     0.0722 C.ar    
  15 C15           -1.4075     5.4527     0.0288 C.ar    
  16 C16           -0.9378     4.1545     0.0199 C.ar    
  17 C17           -2.3935     8.0993     0.1834 C.2     
  18 N18           -1.1269     8.0971     0.5057 N.2     
  19 C19           -0.6606     9.3619     0.4939 C.ar    
  20 C20           -1.7395    10.2066     0.1303 C.ar    
  21 N21           -2.8163     9.3863    -0.0601 N.pl3   
  22 C22            0.6055     9.8921     0.7635 C.ar    
  23 C23            0.7467    11.2646     0.6579 C.ar    
  24 C24           -0.3091    12.0852     0.3025 C.ar    
  25 C25           -1.5719    11.5819     0.0311 C.ar    
  26 N26           -3.2506     7.0124     0.0857 N.pl3   
  27 C27           -4.6904     7.3185    -0.0036 C.3     
  28 C28           -4.8830     8.4775    -0.9880 C.3     
  29 C29           -4.1861     9.7330    -0.4491 C.3     
  30 H30            1.2630    -1.7464    -0.0445 H       
  31 H31            3.3461    -0.3888    -0.1059 H       
  32 H32            3.1890     2.0640    -0.1052 H       
  33 H33           -1.6254    -1.3497     0.0366 H       
  34 H34           -3.8930     2.5094     0.1111 H       
  35 H35           -4.7309     4.8227     0.1353 H       
  36 H36           -0.7122     6.2787     0.0058 H       
  37 H37            0.1251     3.9651    -0.0101 H       
  38 H38            1.4351     9.2591     1.0419 H       
  39 H39            1.7103    11.7088     0.8594 H       
  40 H40           -0.1444    13.1504     0.2345 H       
  41 H41           -2.3897    12.2308    -0.2457 H       
  42 H42           -5.2297     6.4413    -0.3611 H       
  43 H43           -5.0650     7.6066     0.9787 H       
  44 H44           -4.4540     8.2085    -1.9532 H       
  45 H45           -5.9476     8.6779    -1.1084 H       
  46 H46           -4.7284    10.1075     0.4191 H       
  47 H47           -4.1625    10.4986    -1.2247 H       
@<TRIPOS>BOND
   1    1    2 ar
   2    1    6 ar
   3    1    8 1
   4    2    3 ar
   5    2    9 1
   6    3    4 ar
   7    3   30 1
   8    4    5 ar
   9    4   31 1
  10    5    6 ar
  11    5   32 1
  12    7    8 am
  13    7    9 am
  14    7   10 2
  15    8   11 1
  16    9   33 1
  17   11   12 ar
  18   11   16 ar
  19   12   13 ar
  20   12   34 1
  21   13   14 ar
  22   13   35 1
  23   14   15 ar
  24   14   26 1
  25   15   16 ar
  26   15   36 1
  27   16   37 1
  28   17   18 2
  29   17   21 1
  30   17   26 1
  31   18   19 1
  32   19   20 ar
  33   19   22 ar
  34   20   21 1
  35   20   25 ar
  36   21   29 1
  37   22   23 ar
  38   22   38 1
  39   23   24 ar
  40   23   39 1
  41   24   25 ar
  42   24   40 1
  43   25   41 1
  44   26   27 1
  45   27   28 1
  46   27   42 1
  47   27   43 1
  48   28   29 1
  49   28   44 1
  50   28   45 1
  51   29   46 1
  52   29   47 1

#	End of record

