#	Name: ASD09116147
#	Creating user name:	WinNT
#	Creation time:	15. 06. 2019 21:20

#	Modifying user name:	WinNT
#	Modification time:	15. 06. 2019 21:20

#	Program:	/corina/corina34_cracker 3.40 0067  02.08.2006

@<TRIPOS>MOLECULE
ASD09116147
  86   93    0    0    0
SMALL
NO_CHARGES


@<TRIPOS>ATOM
   1 N1            -0.1162     1.7103     0.5073 N.2     
   2 C2            -0.1330     0.2610     0.7732 C.3     
   3 C3             1.1400     2.0623     0.4619 C.2     
   4 N4             1.9808     1.0274     0.6649 N.2     
   5 C5             1.3384    -0.0944     0.8611 C.2     
   6 N6             1.5629     3.3557     0.2308 N.pl3   
   7 C7             2.9257     3.6713     0.3069 C.ar    
   8 C8             3.4524     4.6713    -0.4989 C.ar    
   9 C9             3.7483     2.9872     1.1927 C.ar    
  10 C10            5.0927     3.2988     1.2675 C.ar    
  11 C11            5.6207     4.2971     0.4556 C.ar    
  12 C12            4.7964     4.9830    -0.4250 C.ar    
  13 N13            1.8767    -1.3216     1.0943 N.pl3   
  14 C14           -0.8294    -0.0322     2.0771 C.ar    
  15 C15           -1.4526     0.9961     2.7540 C.ar    
  16 N16           -0.8336    -1.2738     2.5443 N.ar    
  17 C17           -1.4257    -1.5609     3.6662 C.ar    
  18 C18           -2.0776    -0.5805     4.4225 C.ar    
  19 C19           -2.1028     0.7290     3.9691 C.ar    
  20 C20           -1.4996    -2.9373     4.3013 C.3     
  21 C21           -0.8992    -2.7899     5.7147 C.3     
  22 C22           -1.6124    -1.6555     6.4537 C.3     
  23 N23           -2.6587    -1.0593     5.6000 N.3     
  24 C24           -3.6558    -2.0953     5.2661 C.3     
  25 C25           -2.9997    -3.2413     4.4929 C.3     
  26 C26           -2.7815     1.8009     4.7359 C.ar    
  27 N27            6.9833     4.6140     0.5310 N.3     
  28 C28            7.6446     4.4053    -0.7634 C.3     
  29 C29            9.1519     4.6200    -0.6083 C.3     
  30 C30            9.4107     6.0429    -0.1054 C.3     
  31 C31            8.6716     6.2499     1.2196 C.3     
  32 C32            7.1783     5.9879     1.0114 C.3     
  33 N33           10.8522     6.2359     0.1012 N.3     
  34 F34            5.8935     2.6343     2.1291 F       
  35 C35           11.5909     6.0989    -1.1674 C.3     
  36 C36           12.3821     7.4067    -1.3794 C.3     
  37 C37           12.4954     7.9833     0.0564 C.3     
  38 C38           11.1321     7.5730     0.6668 C.3     
  39 C39           -2.1143     2.9945     5.0087 C.ar    
  40 C40           -4.0904     1.6199     5.1810 C.ar    
  41 C41           -4.7190     2.6189     5.8940 C.ar    
  42 C42           -4.0498     3.8040     6.1690 C.ar    
  43 C43           -2.7484     3.9895     5.7223 C.ar    
  44 O44           -4.6720     4.7865     6.8714 O.3     
  45 C45           -3.9254     5.9796     7.1188 C.3     
  46 H46           -0.6123    -0.2747    -0.0461 H       
  47 H47            0.9164     4.0462     0.0158 H       
  48 H48            2.8113     5.2058    -1.1843 H       
  49 H49            3.3375     2.2124     1.8230 H       
  50 H50            5.2062     5.7582    -1.0555 H       
  51 H51            2.8400    -1.4302     1.1283 H       
  52 H52            1.2972    -2.0882     1.2266 H       
  53 H53           -1.4400     1.9985     2.3524 H       
  54 H54           -0.9851    -3.6947     3.7098 H       
  55 H55           -1.0312    -3.7217     6.2647 H       
  56 H56            0.1636    -2.5611     5.6362 H       
  57 H57           -2.0699    -2.0492     7.3614 H       
  58 H58           -0.8861    -0.8881     6.7214 H       
  59 H59           -4.0914    -2.4850     6.1861 H       
  60 H60           -4.4429    -1.6534     4.6551 H       
  61 H61           -3.4774    -3.3428     3.5185 H       
  62 H62           -3.1139    -4.1697     5.0526 H       
  63 H63            7.4561     3.3884    -1.1077 H       
  64 H64            7.2498     5.1141    -1.4914 H       
  65 H65            9.5497     3.9024     0.1093 H       
  66 H66            9.6405     4.4803    -1.5725 H       
  67 H67            9.0478     6.7608    -0.8409 H       
  68 H68            9.0619     5.5579     1.9659 H       
  69 H69            8.8172     7.2747     1.5612 H       
  70 H70            6.7857     6.6893     0.2752 H       
  71 H71            6.6512     6.1205     1.9562 H       
  72 H72           12.2784     5.2552    -1.1070 H       
  73 H73           10.8910     5.9514    -1.9899 H       
  74 H74           13.3700     7.1973    -1.7897 H       
  75 H75           11.8316     8.0895    -2.0266 H       
  76 H76           13.3207     7.5217     0.5985 H       
  77 H77           12.6027     9.0678     0.0343 H       
  78 H78           10.3562     8.2796     0.3721 H       
  79 H79           11.2038     7.5181     1.7530 H       
  80 H80           -1.1018     3.1393     4.6618 H       
  81 H81           -4.6116     0.6985     4.9671 H       
  82 H82           -5.7329     2.4794     6.2387 H       
  83 H83           -2.2304     4.9123     5.9380 H       
  84 H84           -3.0285     5.7354     7.6882 H       
  85 H85           -3.6408     6.4334     6.1695 H       
  86 H86           -4.5373     6.6798     7.6874 H       
@<TRIPOS>BOND
   1    1    2 1
   2    1    3 2
   3    2   14 1
   4    2    5 1
   5    2   46 1
   6    3    4 1
   7    3    6 1
   8    4    5 2
   9    5   13 1
  10    6    7 1
  11    6   47 1
  12    7    8 ar
  13    7    9 ar
  14    8   12 ar
  15    8   48 1
  16    9   10 ar
  17    9   49 1
  18   10   11 ar
  19   10   34 1
  20   11   12 ar
  21   11   27 1
  22   12   50 1
  23   13   51 1
  24   13   52 1
  25   14   15 ar
  26   14   16 ar
  27   15   19 ar
  28   15   53 1
  29   16   17 ar
  30   17   18 ar
  31   17   20 1
  32   18   19 ar
  33   18   23 1
  34   19   26 1
  35   20   21 1
  36   20   25 1
  37   20   54 1
  38   21   22 1
  39   21   55 1
  40   21   56 1
  41   22   23 1
  42   22   57 1
  43   22   58 1
  44   23   24 1
  45   24   25 1
  46   24   59 1
  47   24   60 1
  48   25   61 1
  49   25   62 1
  50   26   39 ar
  51   26   40 ar
  52   27   28 1
  53   27   32 1
  54   28   29 1
  55   28   63 1
  56   28   64 1
  57   29   30 1
  58   29   65 1
  59   29   66 1
  60   30   31 1
  61   30   33 1
  62   30   67 1
  63   31   32 1
  64   31   68 1
  65   31   69 1
  66   32   70 1
  67   32   71 1
  68   33   35 1
  69   33   38 1
  70   35   36 1
  71   35   72 1
  72   35   73 1
  73   36   37 1
  74   36   74 1
  75   36   75 1
  76   37   38 1
  77   37   76 1
  78   37   77 1
  79   38   78 1
  80   38   79 1
  81   39   43 ar
  82   39   80 1
  83   40   41 ar
  84   40   81 1
  85   41   42 ar
  86   41   82 1
  87   42   43 ar
  88   42   44 1
  89   43   83 1
  90   44   45 1
  91   45   84 1
  92   45   85 1
  93   45   86 1

#	End of record

