#	Name: ASD01917705
#	Creating user name:	WinNT
#	Creation time:	15. 06. 2019 20:09

#	Modifying user name:	WinNT
#	Modification time:	15. 06. 2019 20:09

#	Program:	/corina/corina34_cracker 3.40 0067  02.08.2006

@<TRIPOS>MOLECULE
ASD01917705
  44   47    0    0    0
SMALL
NO_CHARGES


@<TRIPOS>ATOM
   1 C1            -0.0188     1.5379     0.0105 C.3     
   2 C2             0.0021    -0.0041     0.0020 C.3     
   3 C3            -1.1988    -0.3970    -0.8277 C.2     
   4 N4            -1.6435     0.6580    -1.5280 N.am    
   5 C5            -0.8487     1.8625    -1.2618 C.3     
   6 C6            -2.7838     0.6125    -2.4467 C.3     
   7 O7            -1.6896    -1.5056    -0.8563 O.2     
   8 C8             1.2701    -0.5090    -0.6368 C.ar    
   9 N9             2.3014    -0.8192     0.1255 N.ar    
  10 C10            3.4321    -1.2645    -0.3812 C.ar    
  11 C11            3.5772    -1.4241    -1.7618 C.ar    
  12 C12            2.4987    -1.1026    -2.5966 C.ar    
  13 C13            1.3313    -0.6446    -2.0121 C.ar    
  14 C14            4.8088    -1.9020    -2.3144 C.1     
  15 C15            5.8185    -2.2939    -2.7674 C.1     
  16 C16            7.0502    -2.7718    -3.3199 C.ar    
  17 C17            8.1201    -3.0899    -2.4793 C.ar    
  18 C18            9.3033    -3.5496    -3.0186 C.ar    
  19 C19            9.4324    -3.6962    -4.3886 C.ar    
  20 C20            8.3772    -3.3827    -5.2273 C.ar    
  21 C21            7.1859    -2.9278    -4.7019 C.ar    
  22 C22           -1.7966     3.0118    -0.8730 C.3     
  23 C23           -1.5240     3.3321     0.6105 C.3     
  24 C24           -0.8933     2.0271     1.1878 C.3     
  25 H25           -0.2100     2.1192    -2.1069 H       
  26 H26            0.9770     1.9810     0.0034 H       
  27 H27           -0.0937    -0.3911     1.0165 H       
  28 H28           -3.1974    -0.3958    -2.4629 H       
  29 H29           -3.5484     1.3135    -2.1117 H       
  30 H30           -2.4541     0.8862    -3.4489 H       
  31 H31            4.2542    -1.5080     0.2755 H       
  32 H32            2.5767    -1.2095    -3.6685 H       
  33 H33            0.4779    -0.3914    -2.6237 H       
  34 H34            8.0210    -2.9757    -1.4099 H       
  35 H35           10.1313    -3.7955    -2.3702 H       
  36 H36           10.3612    -4.0566    -4.8053 H       
  37 H37            8.4853    -3.4993    -6.2955 H       
  38 H38            6.3631    -2.6839    -5.3576 H       
  39 H39           -1.5910     3.8884    -1.4874 H       
  40 H40           -2.8330     2.7002    -1.0027 H       
  41 H41           -0.8159     4.1560     0.6990 H       
  42 H42           -2.4542     3.5704     1.1264 H       
  43 H43           -1.6657     1.2919     1.4137 H       
  44 H44           -0.2956     2.2455     2.0727 H       
@<TRIPOS>BOND
   1    1    2 1
   2    1   26 1
   3    1    5 1
   4    1   24 1
   5    2    3 1
   6    2    8 1
   7    2   27 1
   8    3    4 am
   9    3    7 2
  10    4    5 1
  11    4    6 1
  12    5   22 1
  13    5   25 1
  14    6   28 1
  15    6   29 1
  16    6   30 1
  17    8    9 ar
  18    8   13 ar
  19    9   10 ar
  20   10   11 ar
  21   10   31 1
  22   11   12 ar
  23   11   14 1
  24   12   13 ar
  25   12   32 1
  26   13   33 1
  27   14   15 3
  28   15   16 1
  29   16   17 ar
  30   16   21 ar
  31   17   18 ar
  32   17   34 1
  33   18   19 ar
  34   18   35 1
  35   19   20 ar
  36   19   36 1
  37   20   21 ar
  38   20   37 1
  39   21   38 1
  40   22   23 1
  41   22   39 1
  42   22   40 1
  43   23   24 1
  44   23   41 1
  45   23   42 1
  46   24   43 1
  47   24   44 1

#	End of record

