#	Name: ASD05430307
#	Creating user name:	WinNT
#	Creation time:	15. 06. 2019 21:00

#	Modifying user name:	WinNT
#	Modification time:	15. 06. 2019 21:00

#	Program:	/corina/corina34_cracker 3.40 0067  02.08.2006

@<TRIPOS>MOLECULE
ASD05430307
  69   74    0    0    0
SMALL
NO_CHARGES


@<TRIPOS>ATOM
   1 C1            -0.0102     1.3701    -0.1565 C.ar    
   2 C2             0.0204    -0.0143    -0.3187 C.ar    
   3 C3             1.2358    -0.6829    -0.3831 C.ar    
   4 C4             2.4181     0.0185    -0.2866 C.ar    
   5 C5             2.3956     1.4080    -0.1237 C.ar    
   6 C6             1.1713     2.0810    -0.0593 C.ar    
   7 O7             4.8757     0.1409     0.2361 O.3     
   8 C8             4.8323     1.4969     0.0682 C.2     
   9 C9             3.6562     2.1589    -0.0200 C.2     
  10 C10            6.0972    -0.4196     0.7089 C.3     
  11 C11            6.9260     0.5200     1.5851 C.3     
  12 N12            7.1370     1.7733     0.8550 N.pl3   
  13 C13            6.1223     2.2076    -0.0123 C.2     
  14 N14           -1.1801    -0.7340    -0.4166 N.pl3   
  15 C15           -1.5011    -1.6559    -1.3786 C.2     
  16 C16           -2.7409    -2.0996    -1.0956 C.2     
  17 N17           -3.1694    -1.4691     0.0077 N.2     
  18 C18           -2.2409    -0.6528     0.4272 C.2     
  19 C19           -3.5134    -3.1264    -1.8831 C.3     
  20 C20            8.3415     2.5811     1.0294 C.3     
  21 C21            8.7675     3.1363    -0.3347 C.3     
  22 N22            7.6065     3.7250    -1.0065 N.pl3   
  23 N23            6.3333     3.1617    -0.8608 N.2     
  24 C24            8.0525     3.7218     1.9708 C.ar    
  25 C25            8.9933     4.0970     2.9115 C.ar    
  26 C26            7.5223     5.8147     3.6977 C.ar    
  27 C27            6.5836     5.4429     2.7536 C.ar    
  28 C28            6.8487     4.3966     1.8900 C.ar    
  29 C29            8.7282     5.1433     3.7751 C.ar    
  30 C30           -1.1587     3.4401     0.0679 C.3     
  31 O31           -1.2021     2.0216    -0.0995 O.3     
  32 C32            5.9325    -1.8232     1.3129 C.3     
  33 O33            7.1248    -2.1561     0.5725 O.3     
  34 C34            6.9216    -1.1041    -0.3932 C.3     
  35 C35            9.8402     4.2091    -0.1363 C.3     
  36 S36            7.1752     7.1848     4.8284 Du      
  37 F37            7.7351     6.3109     6.0592 F       
  38 F38            8.6527     7.7707     4.5722 F       
  39 F39            6.8664     8.4035     5.8342 F       
  40 F40            6.6152     8.0586     3.5976 F       
  41 F41            5.6976     6.5989     5.0847 F       
  42 H42            1.2545    -1.7554    -0.5088 H       
  43 H43            3.3618    -0.5042    -0.3363 H       
  44 H44            1.1490     3.1535     0.0660 H       
  45 H45            3.6426     3.2388    -0.0142 H       
  46 H46            6.3908     0.7225     2.5129 H       
  47 H47            7.8885     0.0594     1.8075 H       
  48 H48           -0.8792    -1.9669    -2.2050 H       
  49 H49           -2.3081    -0.0144     1.2958 H       
  50 H50           -3.2995    -4.1209    -1.4915 H       
  51 H51           -4.5807    -2.9234    -1.7961 H       
  52 H52           -3.2185    -3.0775    -2.9313 H       
  53 H53            9.1405     1.9620     1.4374 H       
  54 H54            9.1701     2.3286    -0.9460 H       
  55 H55            7.7213     4.5144    -1.5584 H       
  56 H56            9.9355     3.5724     2.9720 H       
  57 H57            5.6430     5.9700     2.6906 H       
  58 H58            6.1156     4.1065     1.1519 H       
  59 H59            9.4630     5.4360     4.5105 H       
  60 H60           -0.6487     3.6804     1.0008 H       
  61 H61           -0.6196     3.8881    -0.7668 H       
  62 H62           -2.1747     3.8337     0.0975 H       
  63 H63            6.0615    -1.8559     2.3948 H       
  64 H64            5.0403    -2.3483     0.9719 H       
  65 H65            6.3340    -1.4078    -1.2595 H       
  66 H66            7.8325    -0.5682    -0.6600 H       
  67 H67           10.7041     3.7710     0.3635 H       
  68 H68           10.1430     4.6038    -1.1061 H       
  69 H69            9.4376     5.0167     0.4751 H       
@<TRIPOS>BOND
   1    1    2 ar
   2    1    6 ar
   3    1   31 1
   4    2    3 ar
   5    2   14 1
   6    3    4 ar
   7    3   42 1
   8    4    5 ar
   9    4   43 1
  10    5    6 ar
  11    5    9 1
  12    6   44 1
  13    7    8 1
  14    7   10 1
  15    8    9 2
  16    8   13 1
  17    9   45 1
  18   10   11 1
  19   10   32 1
  20   10   34 1
  21   11   12 1
  22   11   46 1
  23   11   47 1
  24   12   13 1
  25   12   20 1
  26   13   23 2
  27   14   15 1
  28   14   18 1
  29   15   16 2
  30   15   48 1
  31   16   17 1
  32   16   19 1
  33   17   18 2
  34   18   49 1
  35   19   50 1
  36   19   51 1
  37   19   52 1
  38   20   21 1
  39   20   24 1
  40   20   53 1
  41   21   22 1
  42   21   35 1
  43   21   54 1
  44   22   23 1
  45   22   55 1
  46   24   25 ar
  47   24   28 ar
  48   25   29 ar
  49   25   56 1
  50   26   27 ar
  51   26   36 1
  52   26   29 ar
  53   27   28 ar
  54   27   57 1
  55   28   58 1
  56   29   59 1
  57   30   31 1
  58   30   60 1
  59   30   61 1
  60   30   62 1
  61   32   33 1
  62   32   63 1
  63   32   64 1
  64   33   34 1
  65   34   65 1
  66   34   66 1
  67   35   67 1
  68   35   68 1
  69   35   69 1
  70   36   37 1
  71   36   38 1
  72   36   39 1
  73   36   40 1
  74   36   41 1

#	End of record

