#	Name: ASD02398034
#	Creating user name:	WinNT
#	Creation time:	15. 06. 2019 20:20

#	Modifying user name:	WinNT
#	Modification time:	15. 06. 2019 20:20

#	Program:	/corina/corina34_cracker 3.40 0067  02.08.2006

@<TRIPOS>MOLECULE
ASD02398034
  70   74    0    0    0
SMALL
NO_CHARGES


@<TRIPOS>ATOM
   1 C1            -0.8714     1.0224     0.3886 C.ar    
   2 C2            -0.5357    -0.3347     0.3596 C.ar    
   3 C3            -1.5037    -1.2914     0.6548 C.ar    
   4 C4            -2.7875    -0.8967     0.9739 C.ar    
   5 C5            -3.1166     0.4467     1.0018 C.ar    
   6 C6            -2.1622     1.4048     0.7157 C.ar    
   7 C7            -3.8342    -1.9329     1.2926 C.3     
   8 C8            -3.7458    -2.3045     2.7504 C.2     
   9 O9            -2.8605    -1.8515     3.4367 O.2     
  10 O10           -4.6505    -3.1387     3.2865 O.3     
  11 C11            0.8450    -0.7535     0.0156 C.ar    
  12 C12            1.9000    -0.4620     0.8787 C.ar    
  13 C13            1.0915    -1.4448    -1.1689 C.ar    
  14 C14            2.3783    -1.8324    -1.4838 C.ar    
  15 C15            3.4220    -1.5359    -0.6261 C.ar    
  16 C16            3.1824    -0.8544     0.5538 C.ar    
  17 C17            1.6406     0.2807     2.1641 C.3     
  18 N18            2.8720     0.3310     2.9561 N.am    
  19 C19            3.8514     1.2350     2.8174 C.2     
  20 O20            4.8714     1.0620     3.6655 O.3     
  21 C21            4.6073    -0.0926     4.5140 C.3     
  22 C22            3.2321    -0.5989     4.0375 C.3     
  23 O23            3.8164     2.1298     1.9961 O.2     
  24 C24            3.3428    -2.0254     3.4957 C.3     
  25 C25            5.6630    -1.1489     4.3124 C.ar    
  26 C26            6.0557    -1.9448     5.3722 C.ar    
  27 C27            6.2347    -1.3258     3.0663 C.ar    
  28 C28            7.2031    -2.2948     2.8813 C.ar    
  29 C29            7.6001    -3.0866     3.9426 C.ar    
  30 C30            7.0241    -2.9137     5.1873 C.ar    
  31 O31            0.0663     1.9628     0.1026 O.3     
  32 C32           -0.3491     3.3292     0.1521 C.3     
  33 C33            0.8160     4.2212    -0.1913 C.ar    
  34 C34            1.0477     4.5802    -1.5060 C.ar    
  35 C35            1.6497     4.6850     0.8091 C.ar    
  36 C36            2.7185     5.5032     0.4941 C.ar    
  37 C37            2.9538     5.8572    -0.8213 C.ar    
  38 C38            2.1165     5.3983    -1.8209 C.ar    
  39 C39            4.8247    -1.9622    -0.9752 C.3     
  40 F40            4.8161    -2.6346    -2.2019 F       
  41 F41            5.6458    -0.8333    -1.0679 F       
  42 F42            5.3144    -2.8145     0.0203 F       
  43 H43           -1.2504    -2.3411     0.6336 H       
  44 H44           -4.1229     0.7485     1.2523 H       
  45 H45           -2.4251     2.4520     0.7391 H       
  46 H46           -4.8234    -1.5274     1.0804 H       
  47 H47           -3.6661    -2.8193     0.6809 H       
  48 H48           -4.5527    -3.3476     4.2256 H       
  49 H49            0.2772    -1.6772    -1.8392 H       
  50 H50            2.5705    -2.3686    -2.4014 H       
  51 H51            4.0011    -0.6255     1.2198 H       
  52 H52            1.3126     1.2952     1.9377 H       
  53 H53            0.8648    -0.2340     2.7309 H       
  54 H54            4.5591     0.2059     5.5612 H       
  55 H55            2.5048    -0.5514     4.8479 H       
  56 H56            3.7339    -2.6804     4.2742 H       
  57 H57            2.3572    -2.3748     3.1881 H       
  58 H58            4.0163    -2.0373     2.6387 H       
  59 H59            5.6061    -1.8094     6.3448 H       
  60 H60            5.9244    -0.7072     2.2371 H       
  61 H61            7.6492    -2.4334     1.9076 H       
  62 H62            8.3564    -3.8438     3.7980 H       
  63 H63            7.3343    -3.5324     6.0165 H       
  64 H64           -1.1539     3.4905    -0.5651 H       
  65 H65           -0.7039     3.5650     1.1554 H       
  66 H66            0.3939     4.2211    -2.2870 H       
  67 H67            1.4659     4.4084     1.8367 H       
  68 H68            3.3694     5.8662     1.2757 H       
  69 H69            3.7885     6.4968    -1.0673 H       
  70 H70            2.3003     5.6749    -2.8486 H       
@<TRIPOS>BOND
   1    1    2 ar
   2    1   31 1
   3    1    6 ar
   4    2    3 ar
   5    2   11 1
   6    3    4 ar
   7    3   43 1
   8    4    5 ar
   9    4    7 1
  10    5    6 ar
  11    5   44 1
  12    6   45 1
  13    7    8 1
  14    7   46 1
  15    7   47 1
  16    8    9 2
  17    8   10 1
  18   10   48 1
  19   11   12 ar
  20   11   13 ar
  21   12   17 1
  22   12   16 ar
  23   13   14 ar
  24   13   49 1
  25   14   15 ar
  26   14   50 1
  27   15   16 ar
  28   15   39 1
  29   16   51 1
  30   17   18 1
  31   17   52 1
  32   17   53 1
  33   18   19 am
  34   18   22 1
  35   19   20 1
  36   19   23 2
  37   20   21 1
  38   21   22 1
  39   21   25 1
  40   21   54 1
  41   22   24 1
  42   22   55 1
  43   24   56 1
  44   24   57 1
  45   24   58 1
  46   25   26 ar
  47   25   27 ar
  48   26   30 ar
  49   26   59 1
  50   27   28 ar
  51   27   60 1
  52   28   29 ar
  53   28   61 1
  54   29   30 ar
  55   29   62 1
  56   30   63 1
  57   31   32 1
  58   32   33 1
  59   32   64 1
  60   32   65 1
  61   33   34 ar
  62   33   35 ar
  63   34   38 ar
  64   34   66 1
  65   35   36 ar
  66   35   67 1
  67   36   37 ar
  68   36   68 1
  69   37   38 ar
  70   37   69 1
  71   38   70 1
  72   39   40 1
  73   39   41 1
  74   39   42 1

#	End of record

