#	Name: ASD03950097
#	Creating user name:	WinNT
#	Creation time:	15. 06. 2019 20:48

#	Modifying user name:	WinNT
#	Modification time:	15. 06. 2019 20:48

#	Program:	/corina/corina34_cracker 3.40 0067  02.08.2006

@<TRIPOS>MOLECULE
ASD03950097
  59   62    0    0    0
SMALL
NO_CHARGES


@<TRIPOS>ATOM
   1 N1            -0.0178     1.4650     0.0101 N.am    
   2 C2             0.0021    -0.0041     0.0020 C.3     
   3 C3             0.8803    -0.4916     1.1586 C.3     
   4 C4             2.2627     0.1563     1.0525 C.3     
   5 C5             2.1248     1.6768     1.1584 C.3     
   6 C6             1.2607     2.1889     0.0018 C.3     
   7 C7            -1.1868     2.1359     0.0193 C.2     
   8 O8            -2.2375     1.5256     0.0210 O.2     
   9 O9            -1.1902     3.4822     0.0266 O.3     
  10 N10            3.9433    -0.8092     4.1799 N.pl3   
  11 N11            2.9116    -0.2171     3.4446 N.2     
  12 C12            3.1403    -0.3472     2.1693 C.2     
  13 C13            4.4007    -1.0698     2.0164 C.ar    
  14 C14            5.1434    -1.4944     0.9115 C.ar    
  15 C15            6.3362    -2.1779     1.1010 C.ar    
  16 C16            6.8006    -2.4452     2.3900 C.ar    
  17 C17            6.0737    -2.0302     3.4988 C.ar    
  18 C18            4.8630    -1.3358     3.3191 C.ar    
  19 C19            7.1228    -2.6282    -0.0744 C.ar    
  20 C20            8.3211    -3.3149     0.1082 C.ar    
  21 C21            9.0492    -3.7322    -0.9902 C.ar    
  22 C22            8.5882    -3.4680    -2.2699 C.ar    
  23 C23            7.3996    -2.7862    -2.4543 C.ar    
  24 C24            6.6623    -2.3704    -1.3637 C.ar    
  25 F25           10.2118    -4.3979    -0.8158 F       
  26 C26            6.5689    -2.3163     4.8587 C.2     
  27 O27            5.9305    -1.9519     5.8273 O.2     
  28 N28            7.7288    -2.9816     5.0275 N.am    
  29 C29           -2.4856     4.1381     0.0364 C.3     
  30 C30           -3.2605     3.7182     1.2870 C.3     
  31 C31           -2.2890     5.6554     0.0437 C.3     
  32 C32           -3.2723     3.7317    -1.2114 C.3     
  33 H33           -1.0118    -0.3840     0.1278 H       
  34 H34            0.4128    -0.3587    -0.9433 H       
  35 H35            0.4202    -0.2139     2.1069 H       
  36 H36            0.9816    -1.5757     1.1066 H       
  37 H37            2.7120    -0.1016     0.0934 H       
  38 H38            1.6530     1.9341     2.1067 H       
  39 H39            3.1119     2.1361     1.1062 H       
  40 H40            1.7740     2.0131    -0.9436 H       
  41 H41            1.0772     3.2560     0.1274 H       
  42 H42            3.9988    -0.8376     5.1479 H       
  43 H43            4.7895    -1.2911    -0.0884 H       
  44 H44            7.7302    -2.9779     2.5260 H       
  45 H45            8.6805    -3.5204     1.1057 H       
  46 H46            9.1594    -3.7953    -3.1260 H       
  47 H47            7.0448    -2.5825    -3.4538 H       
  48 H48            5.7319    -1.8420    -1.5098 H       
  49 H49            8.2380    -3.2723     4.2548 H       
  50 H50            8.0544    -3.1697     5.9216 H       
  51 H51           -2.7000     4.0076     2.1759 H       
  52 H52           -4.2329     4.2105     1.2943 H       
  53 H53           -3.4005     2.6372     1.2818 H       
  54 H54           -1.7370     5.9545    -0.8473 H       
  55 H55           -3.2615     6.1477     0.0510 H       
  56 H56           -1.7286     5.9448     0.9326 H       
  57 H57           -3.4124     2.6508    -1.2166 H       
  58 H58           -4.2448     4.2241    -1.2041 H       
  59 H59           -2.7203     4.0309    -2.1024 H       
@<TRIPOS>BOND
   1    1    2 1
   2    1    6 1
   3    1    7 am
   4    2    3 1
   5    2   33 1
   6    2   34 1
   7    3    4 1
   8    3   35 1
   9    3   36 1
  10    4    5 1
  11    4   12 1
  12    4   37 1
  13    5    6 1
  14    5   38 1
  15    5   39 1
  16    6   40 1
  17    6   41 1
  18    7    8 2
  19    7    9 1
  20    9   29 1
  21   10   11 1
  22   10   18 1
  23   10   42 1
  24   11   12 2
  25   12   13 1
  26   13   14 ar
  27   13   18 ar
  28   14   15 ar
  29   14   43 1
  30   15   16 ar
  31   15   19 1
  32   16   17 ar
  33   16   44 1
  34   17   18 ar
  35   17   26 1
  36   19   20 ar
  37   19   24 ar
  38   20   21 ar
  39   20   45 1
  40   21   22 ar
  41   21   25 1
  42   22   23 ar
  43   22   46 1
  44   23   24 ar
  45   23   47 1
  46   24   48 1
  47   26   27 2
  48   26   28 am
  49   28   49 1
  50   28   50 1
  51   29   30 1
  52   29   31 1
  53   29   32 1
  54   30   51 1
  55   30   52 1
  56   30   53 1
  57   31   54 1
  58   31   55 1
  59   31   56 1
  60   32   57 1
  61   32   58 1
  62   32   59 1

#	End of record

