#	Name: ASD01900598
#	Creating user name:	WinNT
#	Creation time:	15. 06. 2019 19:52

#	Modifying user name:	WinNT
#	Modification time:	15. 06. 2019 19:52

#	Program:	/corina/corina34_cracker 3.40 0067  02.08.2006

@<TRIPOS>MOLECULE
ASD01900598
  40   43    0    0    0
SMALL
NO_CHARGES


@<TRIPOS>ATOM
   1 C1            -0.0165     1.3646     0.0095 C.2     
   2 N2             0.0021    -0.0041     0.0020 N.pl3   
   3 C3             1.3258    -0.3942    -0.0127 C.ar    
   4 C4             2.0842     0.7909    -0.0136 C.ar    
   5 N5             1.2098     1.8250     0.0003 N.2     
   6 C6             3.4808     0.7128    -0.0267 C.ar    
   7 C7             4.0942    -0.5076    -0.0384 C.ar    
   8 C8             3.3460    -1.6763    -0.0375 C.ar    
   9 C9             1.9680    -1.6247    -0.0251 C.ar    
  10 C10           -1.2387     2.1991     0.0201 C.ar    
  11 C11           -1.1270     3.5886     0.0271 C.ar    
  12 C12           -2.2793     4.3565     0.0370 C.ar    
  13 C13           -3.5062     3.7099     0.0395 C.ar    
  14 C14           -3.5445     2.3251     0.0322 C.ar    
  15 N15           -2.4327     1.6181     0.0174 N.ar    
  16 Cl16          -5.0775     1.5106     0.0353 Cl      
  17 S17            5.8537    -0.5988    -0.0554 S.o2    
  18 O18            6.1339    -1.8493    -0.6694 O.2     
  19 O19            6.2621     0.6213    -0.6586 O.2     
  20 C20            6.3223    -0.6308     1.6967 C.3     
  21 C21            7.8226    -0.7092     1.8141 C.ar    
  22 C22            8.5737     0.4514     1.8733 C.ar    
  23 C23            9.9509     0.3787     1.9816 C.ar    
  24 C24           10.5759    -0.8533     2.0306 C.ar    
  25 C25            9.8252    -2.0123     1.9709 C.ar    
  26 C26            8.4482    -1.9402     1.8685 C.ar    
  27 Cl27           7.7881     1.9982     1.8112 Cl      
  28 H28           -0.7708    -0.5902     0.0065 H       
  29 H29            4.0731     1.6159    -0.0278 H       
  30 H30            3.8466    -2.6333    -0.0473 H       
  31 H31            1.3911    -2.5376    -0.0245 H       
  32 H32           -0.1552     4.0597     0.0252 H       
  33 H33           -2.2237     5.4351     0.0429 H       
  34 H34           -4.4231     4.2806     0.0475 H       
  35 H35            5.9666     0.2767     2.1846 H       
  36 H36            5.8743    -1.5009     2.1768 H       
  37 H37           10.5376     1.2842     2.0274 H       
  38 H38           11.6511    -0.9102     2.1151 H       
  39 H39           10.3140    -2.9746     2.0085 H       
  40 H40            7.8618    -2.8462     1.8264 H       
@<TRIPOS>BOND
   1    1    2 1
   2    1    5 2
   3    1   10 1
   4    2    3 1
   5    2   28 1
   6    3    4 ar
   7    3    9 ar
   8    4    5 1
   9    4    6 ar
  10    6    7 ar
  11    6   29 1
  12    7    8 ar
  13    7   17 1
  14    8    9 ar
  15    8   30 1
  16    9   31 1
  17   10   11 ar
  18   10   15 ar
  19   11   12 ar
  20   11   32 1
  21   12   13 ar
  22   12   33 1
  23   13   14 ar
  24   13   34 1
  25   14   15 ar
  26   14   16 1
  27   17   18 2
  28   17   19 2
  29   17   20 1
  30   20   21 1
  31   20   35 1
  32   20   36 1
  33   21   22 ar
  34   21   26 ar
  35   22   23 ar
  36   22   27 1
  37   23   24 ar
  38   23   37 1
  39   24   25 ar
  40   24   38 1
  41   25   26 ar
  42   25   39 1
  43   26   40 1

#	End of record

