#	Name: ASD01884192
#	Creating user name:	WinNT
#	Creation time:	15. 06. 2019 19:47

#	Modifying user name:	WinNT
#	Modification time:	15. 06. 2019 19:47

#	Program:	/corina/corina34_cracker 3.40 0067  02.08.2006

@<TRIPOS>MOLECULE
ASD01884192
  36   39    0    0    0
SMALL
NO_CHARGES


@<TRIPOS>ATOM
   1 S1            -0.0219     1.7672     0.0118 S.3     
   2 C2             0.0021    -0.0041     0.0020 C.2     
   3 N3             1.2907    -0.3578    -0.0122 N.am    
   4 C4             2.2519     0.6366    -0.0160 C.ar    
   5 C5             1.7391     1.9357    -0.0042 C.ar    
   6 C6             2.5665     3.0415    -0.0065 C.ar    
   7 C7             3.9490     2.8721    -0.0210 C.ar    
   8 C8             4.4761     1.5806    -0.0330 C.ar    
   9 C9             3.6480     0.4855    -0.0306 C.ar    
  10 O10           -0.9608    -0.7487     0.0076 O.2     
  11 C11            4.8500     4.0509    -0.0242 C.ar    
  12 C12            5.8964     4.1301     0.8876 C.ar    
  13 C13            6.7394     5.2412     0.8788 C.ar    
  14 C14            6.5279     6.2680    -0.0455 C.ar    
  15 C15            5.4878     6.1841    -0.9473 C.ar    
  16 C16            4.6518     5.0806    -0.9472 C.ar    
  17 C17            1.6774    -1.7707    -0.0230 C.3     
  18 C18            1.7987    -2.2553    -1.4692 C.3     
  19 C19            2.3095    -3.6794    -1.6966 C.3     
  20 C20            0.8340    -3.3493    -1.9309 C.3     
  21 F21            3.1073    -3.9074    -2.8230 F       
  22 F22            2.6299    -4.4390    -0.5662 F       
  23 F23            3.6389     5.0020    -1.8377 F       
  24 C24            7.8191     5.3300     1.8152 C.1     
  25 N25            8.6756     5.4005     2.5581 N.1     
  26 H26            2.1428     4.0348     0.0025 H       
  27 H27            5.5469     1.4406    -0.0447 H       
  28 H28            4.0762    -0.5059    -0.0400 H       
  29 H29            6.0558     3.3343     1.6002 H       
  30 H30            7.1799     7.1290    -0.0533 H       
  31 H31            5.3279     6.9801    -1.6595 H       
  32 H32            2.6364    -1.8888     0.4814 H       
  33 H33            0.9197    -2.3588     0.4949 H       
  34 H34            2.0846    -1.4959    -2.1970 H       
  35 H35            0.1129    -3.7240    -1.2044 H       
  36 H36            0.4849    -3.3098    -2.9627 H       
@<TRIPOS>BOND
   1    1    2 1
   2    1    5 1
   3    2    3 am
   4    2   10 2
   5    3    4 1
   6    3   17 1
   7    4    5 ar
   8    4    9 ar
   9    5    6 ar
  10    6    7 ar
  11    6   26 1
  12    7    8 ar
  13    7   11 1
  14    8    9 ar
  15    8   27 1
  16    9   28 1
  17   11   12 ar
  18   11   16 ar
  19   12   13 ar
  20   12   29 1
  21   13   14 ar
  22   13   24 1
  23   14   15 ar
  24   14   30 1
  25   15   16 ar
  26   15   31 1
  27   16   23 1
  28   17   18 1
  29   17   32 1
  30   17   33 1
  31   18   19 1
  32   18   20 1
  33   18   34 1
  34   19   20 1
  35   19   21 1
  36   19   22 1
  37   20   35 1
  38   20   36 1
  39   24   25 3

#	End of record

