#	Name: ASD04590294
#	Creating user name:	WinNT
#	Creation time:	15. 06. 2019 20:50

#	Modifying user name:	WinNT
#	Modification time:	15. 06. 2019 20:50

#	Program:	/corina/corina34_cracker 3.40 0067  02.08.2006

@<TRIPOS>MOLECULE
ASD04590294
  55   59    0    0    0
SMALL
NO_CHARGES


@<TRIPOS>ATOM
   1 C1            -0.0167     1.3834     0.0096 C.ar    
   2 C2             0.0021    -0.0041     0.0020 C.ar    
   3 C3             1.1863    -0.6848    -0.0125 C.ar    
   4 C4             2.3948     0.0191    -0.0203 C.ar    
   5 C5             2.3756     1.4250    -0.0131 C.ar    
   6 C6             1.1624     2.0987     0.0022 C.ar    
   7 N7             3.6952    -0.3636    -0.0352 N.2     
   8 C8             4.4665     0.6967    -0.0376 C.2     
   9 N9             3.6970     1.8290    -0.0242 N.pl3   
  10 C10            5.9437     0.6731    -0.0520 C.2     
  11 C11            6.7566    -0.4840    -0.0659 C.2     
  12 C12            8.0504    -0.0800    -0.0771 C.2     
  13 N13            8.0626     1.2789    -0.0706 N.pl3   
  14 N14            6.7358     1.7273    -0.0598 N.2     
  15 N15            6.3043    -1.8134    -0.0673 N.am    
  16 C16            7.1923    -2.8272    -0.0814 C.2     
  17 C17            6.7172    -4.2238    -0.0829 C.ar    
  18 O18            8.3851    -2.5907    -0.0928 O.2     
  19 C19            4.9106    -5.8069    -0.0657 C.ar    
  20 C20            5.8230    -6.8493    -0.0859 C.ar    
  21 C21            7.1790    -6.5904    -0.0989 C.ar    
  22 C22            7.6370    -5.2811    -0.0975 C.ar    
  23 C23            5.3478    -4.5002    -0.0641 C.ar    
  24 O24            8.9691    -5.0252    -0.1107 O.3     
  25 C25            9.8463    -6.1532    -0.1251 C.3     
  26 C26           11.2980    -5.6702    -0.1385 C.3     
  27 N27           11.5914    -4.9659     1.1168 N.3     
  28 C28           13.0349    -4.6944     1.2455 C.3     
  29 C29           13.1991    -3.1708     1.4269 C.3     
  30 C30           11.8101    -2.7304     1.9595 C.3     
  31 C31           10.8628    -3.6813     1.1862 C.3     
  32 H32           -0.9614     1.9069     0.0170 H       
  33 H33           -0.9290    -0.5513     0.0080 H       
  34 H34            1.1893    -1.7648    -0.0177 H       
  35 H35            1.1417     3.1785     0.0075 H       
  36 H36            4.0192     2.7439    -0.0228 H       
  37 H37            8.9175    -0.7237    -0.0890 H       
  38 H38            8.8531     1.8410    -0.0756 H       
  39 H39            5.3529    -2.0021    -0.0583 H       
  40 H40            3.8517    -6.0194    -0.0560 H       
  41 H41            5.4714    -7.8704    -0.0866 H       
  42 H42            7.8841    -7.4083    -0.1142 H       
  43 H43            4.6330    -3.6908    -0.0479 H       
  44 H44            9.6733    -6.7594     0.7641 H       
  45 H45            9.6542    -6.7515    -1.0157 H       
  46 H46           11.9649    -6.5265    -0.2391 H       
  47 H47           11.4477    -4.9925    -0.9790 H       
  48 H48           13.4343    -5.2166     2.1149 H       
  49 H49           13.5550    -5.0187     0.3441 H       
  50 H50           13.9788    -2.9514     2.1563 H       
  51 H51           13.4161    -2.6902     0.4729 H       
  52 H52           11.7346    -2.8934     3.0346 H       
  53 H53           11.6080    -1.6891     1.7088 H       
  54 H54           10.6748    -3.2969     0.1837 H       
  55 H55            9.9251    -3.8057     1.7279 H       
@<TRIPOS>BOND
   1    1    2 ar
   2    1    6 ar
   3    1   32 1
   4    2    3 ar
   5    2   33 1
   6    3    4 ar
   7    3   34 1
   8    4    5 ar
   9    4    7 1
  10    5    6 ar
  11    5    9 1
  12    6   35 1
  13    7    8 2
  14    8    9 1
  15    8   10 1
  16    9   36 1
  17   10   11 1
  18   10   14 2
  19   11   12 2
  20   11   15 1
  21   12   13 1
  22   12   37 1
  23   13   14 1
  24   13   38 1
  25   15   16 am
  26   15   39 1
  27   16   17 1
  28   16   18 2
  29   17   22 ar
  30   17   23 ar
  31   19   20 ar
  32   19   23 ar
  33   19   40 1
  34   20   21 ar
  35   20   41 1
  36   21   22 ar
  37   21   42 1
  38   22   24 1
  39   23   43 1
  40   24   25 1
  41   25   26 1
  42   25   44 1
  43   25   45 1
  44   26   27 1
  45   26   46 1
  46   26   47 1
  47   27   28 1
  48   27   31 1
  49   28   29 1
  50   28   48 1
  51   28   49 1
  52   29   30 1
  53   29   50 1
  54   29   51 1
  55   30   31 1
  56   30   52 1
  57   30   53 1
  58   31   54 1
  59   31   55 1

#	End of record

