#	Name: ASD00460019
#	Creating user name:	WinNT
#	Creation time:	15. 06. 2019 18:36

#	Modifying user name:	WinNT
#	Modification time:	15. 06. 2019 18:36

#	Program:	/corina/corina34_cracker 3.40 0067  02.08.2006

@<TRIPOS>MOLECULE
ASD00460019
  42   45    0    0    0
SMALL
NO_CHARGES


@<TRIPOS>ATOM
   1 C1             0.0864     1.2772     0.2575 C.ar    
   2 C2             0.0356    -0.0796     0.1646 C.ar    
   3 C3             1.2261    -0.8250     0.2135 C.ar    
   4 C4             2.4633    -0.1494     0.3591 C.ar    
   5 C5             2.4758     1.2529     0.4523 C.ar    
   6 C6             1.3032     1.9417     0.4007 C.ar    
   7 C7             1.2136    -2.2273     0.1213 C.ar    
   8 C8             2.3863    -2.9160     0.1729 C.ar    
   9 C9             3.6030    -2.2515     0.3164 C.ar    
  10 C10            3.6538    -0.8946     0.4079 C.ar    
  11 C11           -1.2903    -0.7792     0.0106 C.3     
  12 N12           -2.3471     0.0401     0.6093 N.am    
  13 C13           -3.4607    -0.5449     1.0930 C.2     
  14 C14           -4.5215     0.2774     1.6939 C.2     
  15 O15           -3.5885    -1.7531     1.0325 O.2     
  16 C16           -5.6850    -0.1944     2.2133 C.2     
  17 C17           -6.4262     0.9146     2.6881 C.ar    
  18 C18           -5.6555     2.0649     2.4294 C.ar    
  19 N19           -4.4914     1.6523     1.8256 N.pl3   
  20 C20           -7.6747     1.0421     3.3109 C.ar    
  21 C21           -8.1349     2.2775     3.6622 C.ar    
  22 C22           -7.3768     3.4137     3.4078 C.ar    
  23 C23           -6.1468     3.3146     2.7974 C.ar    
  24 C24           -1.5871    -0.9880    -1.4757 C.3     
  25 H25           -0.8295     1.8479     0.2152 H       
  26 H26            3.4112     1.7812     0.5638 H       
  27 H27            1.3156     3.0192     0.4722 H       
  28 H28            0.2783    -2.7557     0.0106 H       
  29 H29            2.3739    -3.9936     0.1018 H       
  30 H30            4.5193    -2.8219     0.3553 H       
  31 H31            4.6039    -0.3932     0.5185 H       
  32 H32           -1.2516    -1.7458     0.5128 H       
  33 H33           -2.2452     1.0035     0.6575 H       
  34 H34           -5.9898    -1.2296     2.2561 H       
  35 H35           -3.7701     2.2318     1.5342 H       
  36 H36           -8.2714     0.1646     3.5121 H       
  37 H37           -9.0976     2.3731     4.1423 H       
  38 H38           -7.7560     4.3842     3.6920 H       
  39 H39           -5.5649     4.2036     2.6042 H       
  40 H40           -1.6259    -0.0214    -1.9778 H       
  41 H41           -0.8009    -1.5976    -1.9211 H       
  42 H42           -2.5461    -1.4940    -1.5870 H       
@<TRIPOS>BOND
   1    1    2 ar
   2    1    6 ar
   3    1   25 1
   4    2    3 ar
   5    2   11 1
   6    3    4 ar
   7    3    7 ar
   8    4    5 ar
   9    4   10 ar
  10    5    6 ar
  11    5   26 1
  12    6   27 1
  13    7    8 ar
  14    7   28 1
  15    8    9 ar
  16    8   29 1
  17    9   10 ar
  18    9   30 1
  19   10   31 1
  20   11   12 1
  21   11   24 1
  22   11   32 1
  23   12   13 am
  24   12   33 1
  25   13   14 1
  26   13   15 2
  27   14   16 2
  28   14   19 1
  29   16   17 1
  30   16   34 1
  31   17   18 ar
  32   17   20 ar
  33   18   19 1
  34   18   23 ar
  35   19   35 1
  36   20   21 ar
  37   20   36 1
  38   21   22 ar
  39   21   37 1
  40   22   23 ar
  41   22   38 1
  42   23   39 1
  43   24   40 1
  44   24   41 1
  45   24   42 1

#	End of record

