#	Name: ASD03091883
#	Creating user name:	WinNT
#	Creation time:	15. 06. 2019 20:31

#	Modifying user name:	WinNT
#	Modification time:	15. 06. 2019 20:31

#	Program:	/corina/corina34_cracker 3.40 0067  02.08.2006

@<TRIPOS>MOLECULE
ASD03091883
  50   53    0    0    0
SMALL
NO_CHARGES


@<TRIPOS>ATOM
   1 C1            -0.0167     1.3785     0.0096 C.ar    
   2 C2             0.0021    -0.0041     0.0020 C.ar    
   3 C3             1.2085    -0.6738    -0.0199 C.ar    
   4 C4             2.4037     0.0399    -0.0338 C.ar    
   5 C5             2.3854     1.4231    -0.0132 C.ar    
   6 C6             1.1679     2.0878     0.0021 C.ar    
   7 N7             3.6060    -0.6570    -0.0829 N.pl3   
   8 C8             4.8931     0.0045    -0.1361 C.3     
   9 C9             4.8872     1.4227     0.3511 C.3     
  10 C10            3.6451     2.2424     0.0121 C.3     
  11 C11            4.9202     1.5127     1.8907 C.3     
  12 C12            4.2277     2.8258     2.1902 C.2     
  13 C13            3.5325     3.2329     1.1602 C.2     
  14 C14            5.8690    -0.7830     0.6996 C.ar    
  15 S15           -1.5554     2.2368     0.0216 S.o2    
  16 O16           -1.2996     3.5267    -0.5171 O.2     
  17 O17           -2.5172     1.3439    -0.5232 O.2     
  18 N18           -1.9760     2.4670     1.6067 N.am    
  19 C19            7.1677    -0.9618     0.2610 C.ar    
  20 C20            8.0629    -1.6842     1.0276 C.ar    
  21 C21            7.6595    -2.2274     2.2331 C.ar    
  22 C22            6.3611    -2.0478     2.6721 C.ar    
  23 C23            5.4671    -1.3218     1.9076 C.ar    
  24 C24           -1.1538     3.3227     2.4658 C.3     
  25 C25           -1.9335     3.6701     3.7355 C.3     
  26 C26           -1.0749     4.5637     4.6328 C.3     
  27 H27           -0.9248    -0.5583     0.0136 H       
  28 H28            1.2255    -1.7537    -0.0259 H       
  29 H29            1.1464     3.1676     0.0085 H       
  30 H30            3.5815    -1.6267    -0.0812 H       
  31 H31            5.2431    -0.0043    -1.1683 H       
  32 H32            5.7573     1.9409    -0.0520 H       
  33 H33            3.7798     2.7590    -0.9383 H       
  34 H34            4.3728     0.6812     2.3347 H       
  35 H35            5.9487     1.5313     2.2512 H       
  36 H36            4.2985     3.3552     3.1289 H       
  37 H37            2.9581     4.1470     1.1290 H       
  38 H38           -2.7667     2.0354     1.9662 H       
  39 H39            7.4828    -0.5374    -0.6808 H       
  40 H40            9.0773    -1.8245     0.6845 H       
  41 H41            8.3587    -2.7923     2.8317 H       
  42 H42            6.0459    -2.4725     3.6138 H       
  43 H43            4.4538    -1.1783     2.2524 H       
  44 H44           -0.2384     2.7954     2.7344 H       
  45 H45           -0.9020     4.2390     1.9319 H       
  46 H46           -2.8490     4.1974     3.4669 H       
  47 H47           -2.1853     2.7538     4.2695 H       
  48 H48           -0.1595     4.0365     4.9014 H       
  49 H49           -0.8231     5.4800     4.0989 H       
  50 H50           -1.6304     4.8113     5.5374 H       
@<TRIPOS>BOND
   1    1    2 ar
   2    1    6 ar
   3    1   15 1
   4    2    3 ar
   5    2   27 1
   6    3    4 ar
   7    3   28 1
   8    4    5 ar
   9    4    7 1
  10    5    6 ar
  11    5   10 1
  12    6   29 1
  13    7    8 1
  14    7   30 1
  15    8    9 1
  16    8   14 1
  17    8   31 1
  18    9   11 1
  19    9   10 1
  20    9   32 1
  21   10   13 1
  22   10   33 1
  23   11   12 1
  24   11   34 1
  25   11   35 1
  26   12   13 2
  27   12   36 1
  28   13   37 1
  29   14   19 ar
  30   14   23 ar
  31   15   16 2
  32   15   17 2
  33   15   18 am
  34   18   24 1
  35   18   38 1
  36   19   20 ar
  37   19   39 1
  38   20   21 ar
  39   20   40 1
  40   21   22 ar
  41   21   41 1
  42   22   23 ar
  43   22   42 1
  44   23   43 1
  45   24   25 1
  46   24   44 1
  47   24   45 1
  48   25   26 1
  49   25   46 1
  50   25   47 1
  51   26   48 1
  52   26   49 1
  53   26   50 1

#	End of record

