#	Name: ASD05740260
#	Creating user name:	WinNT
#	Creation time:	15. 06. 2019 21:03

#	Modifying user name:	WinNT
#	Modification time:	15. 06. 2019 21:03

#	Program:	/corina/corina34_cracker 3.40 0067  02.08.2006

@<TRIPOS>MOLECULE
ASD05740260
  58   62    0    0    0
SMALL
NO_CHARGES


@<TRIPOS>ATOM
   1 C1            -0.0132     1.3359    -0.6481 C.3     
   2 N2            -0.0111     0.0330     0.0317 N.3     
   3 C3            -1.3062    -0.4963     0.1066 C.ar    
   4 C4            -2.0200    -0.7518    -1.0561 C.ar    
   5 C5            -3.2965    -1.2741    -0.9826 C.ar    
   6 C6            -3.8672    -1.5435     0.2544 C.ar    
   7 C7            -3.1546    -1.2880     1.4186 C.ar    
   8 C8            -1.8746    -0.7711     1.3456 C.ar    
   9 N9            -5.1619    -2.0727     0.3278 N.pl3   
  10 C10           -5.4853    -2.9707     1.3260 C.ar    
  11 N11           -4.5235    -3.4025     2.1345 N.ar    
  12 N12           -6.7437    -3.3658     1.4455 N.ar    
  13 C13           -7.0931    -4.2283     2.3931 C.ar    
  14 C14           -6.0974    -4.7141     3.2683 C.ar    
  15 C15           -4.7798    -4.2607     3.1039 C.ar    
  16 N16           -8.3945    -4.6426     2.5245 N.am    
  17 C17           -8.7432    -5.5172     3.4876 C.2     
  18 C18           -7.7352    -6.0401     4.4121 C.2     
  19 C19           -6.4338    -5.6327     4.2885 C.2     
  20 C20           -9.4152    -4.1281     1.6081 C.3     
  21 O21           -9.9032    -5.8747     3.5904 O.2     
  22 C22           -9.5127    -5.0446     0.3869 C.3     
  23 C23            0.9032    -0.9044    -0.6354 C.3     
  24 C24            2.3197    -0.3249    -0.6261 C.3     
  25 N25            2.3176     0.9779    -1.3060 N.3     
  26 C26            1.4033     1.9154    -0.6389 C.3     
  27 F27           -1.1804    -0.5227     2.4776 F       
  28 C28           -8.1200    -7.0014     5.4720 C.ar    
  29 C29           -8.0133    -6.6422     6.8152 C.ar    
  30 C30           -8.3737    -7.5415     7.7977 C.ar    
  31 C31           -8.8401    -8.7974     7.4524 C.ar    
  32 C32           -8.9477    -9.1596     6.1216 C.ar    
  33 C33           -8.5958    -8.2669     5.1301 C.ar    
  34 H34           -0.3472     1.2082    -1.6778 H       
  35 H35           -0.6878     2.0162    -0.1284 H       
  36 H36           -1.5772    -0.5419    -2.0185 H       
  37 H37           -3.8513    -1.4727    -1.8877 H       
  38 H38           -3.5987    -1.4972     2.3806 H       
  39 H39           -5.8314    -1.8084    -0.3224 H       
  40 H40           -3.9913    -4.6099     3.7541 H       
  41 H41           -5.6759    -6.0073     4.9605 H       
  42 H42          -10.3784    -4.0976     2.1173 H       
  43 H43           -9.1418    -3.1230     1.2871 H       
  44 H44           -9.7861    -6.0498     0.7079 H       
  45 H45          -10.2722    -4.6619    -0.2949 H       
  46 H46           -8.5495    -5.0752    -0.1223 H       
  47 H47            0.8966    -1.8573    -0.1063 H       
  48 H48            0.5796    -1.0575    -1.6649 H       
  49 H49            2.6537    -0.1973     0.4036 H       
  50 H50            2.9943    -1.0052    -1.1459 H       
  51 H51            3.2503     1.3591    -1.3599 H       
  52 H52            1.4099     2.8683    -1.1680 H       
  53 H53            1.7269     2.0684     0.3906 H       
  54 H54           -7.6490    -5.6622     7.0860 H       
  55 H55           -8.2911    -7.2646     8.8383 H       
  56 H56           -9.1209    -9.4979     8.2249 H       
  57 H57           -9.3118   -10.1417     5.8582 H       
  58 H58           -8.6803    -8.5508     4.0915 H       
@<TRIPOS>BOND
   1    1    2 1
   2    1   26 1
   3    1   34 1
   4    1   35 1
   5    2    3 1
   6    2   23 1
   7    3    4 ar
   8    3    8 ar
   9    4    5 ar
  10    4   36 1
  11    5    6 ar
  12    5   37 1
  13    6    7 ar
  14    6    9 1
  15    7    8 ar
  16    7   38 1
  17    8   27 1
  18    9   10 1
  19    9   39 1
  20   10   11 ar
  21   10   12 ar
  22   11   15 ar
  23   12   13 ar
  24   13   14 ar
  25   13   16 1
  26   14   15 ar
  27   14   19 1
  28   15   40 1
  29   16   17 am
  30   16   20 1
  31   17   18 1
  32   17   21 2
  33   18   19 2
  34   18   28 1
  35   19   41 1
  36   20   22 1
  37   20   42 1
  38   20   43 1
  39   22   44 1
  40   22   45 1
  41   22   46 1
  42   23   24 1
  43   23   47 1
  44   23   48 1
  45   24   25 1
  46   24   49 1
  47   24   50 1
  48   25   26 1
  49   25   51 1
  50   26   52 1
  51   26   53 1
  52   28   29 ar
  53   28   33 ar
  54   29   30 ar
  55   29   54 1
  56   30   31 ar
  57   30   55 1
  58   31   32 ar
  59   31   56 1
  60   32   33 ar
  61   32   57 1
  62   33   58 1

#	End of record

