#	Name: ASD02198157
#	Creating user name:	WinNT
#	Creation time:	15. 06. 2019 20:18

#	Modifying user name:	WinNT
#	Modification time:	15. 06. 2019 20:18

#	Program:	/corina/corina34_cracker 3.40 0067  02.08.2006

@<TRIPOS>MOLECULE
ASD02198157
  41   43    0    0    0
SMALL
NO_CHARGES


@<TRIPOS>ATOM
   1 C1            -0.0184     1.3863    -0.1248 C.2     
   2 C2             0.0125     0.0072    -0.1360 C.2     
   3 C3            -1.1609    -0.8008     0.0092 C.1     
   4 S4             1.5474     2.0318    -0.3209 S.3     
   5 C5             2.2658     0.4322    -0.4209 C.2     
   6 C6             1.2870    -0.5285    -0.3012 C.2     
   7 C7             3.6362     0.1717    -0.5976 C.2     
   8 C8             4.5952     1.2957    -0.7142 C.ar    
   9 O9             4.0356    -0.9788    -0.6550 O.2     
  10 N10            1.5439    -1.8892    -0.3404 N.pl3   
  11 N11           -1.1600     2.1397     0.0194 N.pl3   
  12 N12           -2.0917    -1.4418     0.1245 N.1     
  13 C13            5.9518     1.0311    -0.8891 C.ar    
  14 C14            6.8362     2.0923    -0.9965 C.ar    
  15 C15            6.3332     3.3824    -0.9251 C.ar    
  16 C16            4.9723     3.5720    -0.7500 C.ar    
  17 N17            4.1537     2.5463    -0.6564 N.ar    
  18 C18           -1.0703     3.5297     0.1320 C.ar    
  19 C19           -1.9810     4.3422    -0.5320 C.ar    
  20 C20           -1.8894     5.7153    -0.4186 C.ar    
  21 C21           -0.8923     6.2820     0.3545 C.ar    
  22 C22            0.0156     5.4763     1.0166 C.ar    
  23 C23           -0.0739     4.1019     0.9125 C.ar    
  24 C24           -3.0671     3.7257    -1.3754 C.3     
  25 C25           -4.2597     3.3652    -0.4873 C.3     
  26 H26            2.4526    -2.2080    -0.4573 H       
  27 H27            0.8153    -2.5232    -0.2510 H       
  28 H28           -2.0274     1.7061     0.0429 H       
  29 H29            6.3091     0.0132    -0.9400 H       
  30 H30            7.8934     1.9185    -1.1323 H       
  31 H31            6.9962     4.2312    -1.0049 H       
  32 H32            4.5773     4.5756    -0.6940 H       
  33 H33           -2.5970     6.3475    -0.9345 H       
  34 H34           -0.8225     7.3563     0.4409 H       
  35 H35            0.7932     5.9221     1.6191 H       
  36 H36            0.6356     3.4732     1.4299 H       
  37 H37           -3.3837     4.4378    -2.1375 H       
  38 H38           -2.6865     2.8245    -1.8560 H       
  39 H39           -5.0453     2.9193    -1.0973 H       
  40 H40           -3.9431     2.6531     0.2748 H       
  41 H41           -4.6403     4.2665    -0.0067 H       
@<TRIPOS>BOND
   1    1    2 2
   2    1    4 1
   3    1   11 1
   4    2    3 1
   5    2    6 1
   6    3   12 3
   7    4    5 1
   8    5    6 2
   9    5    7 1
  10    6   10 1
  11    7    8 1
  12    7    9 2
  13    8   13 ar
  14    8   17 ar
  15   10   26 1
  16   10   27 1
  17   11   18 1
  18   11   28 1
  19   13   14 ar
  20   13   29 1
  21   14   15 ar
  22   14   30 1
  23   15   16 ar
  24   15   31 1
  25   16   17 ar
  26   16   32 1
  27   18   19 ar
  28   18   23 ar
  29   19   20 ar
  30   19   24 1
  31   20   21 ar
  32   20   33 1
  33   21   22 ar
  34   21   34 1
  35   22   23 ar
  36   22   35 1
  37   23   36 1
  38   24   25 1
  39   24   37 1
  40   24   38 1
  41   25   39 1
  42   25   40 1
  43   25   41 1

#	End of record

