#	Name: ASD08150401
#	Creating user name:	WinNT
#	Creation time:	15. 06. 2019 21:15

#	Modifying user name:	WinNT
#	Modification time:	15. 06. 2019 21:15

#	Program:	/corina/corina34_cracker 3.40 0067  02.08.2006

@<TRIPOS>MOLECULE
ASD08150401
  75   79    0    0    0
SMALL
NO_CHARGES


@<TRIPOS>ATOM
   1 C1             0.6076    -4.6843     5.1950 C.2     
   2 C2             1.5282    -5.2336     4.1766 C.ar    
   3 C3             1.9352    -4.4428     3.1019 C.ar    
   4 C4             2.7981    -4.9646     2.1513 C.ar    
   5 C5             3.2551    -6.2718     2.2705 C.ar    
   6 C6             2.8516    -7.0556     3.3350 C.ar    
   7 C7             1.9973    -6.5433     4.2904 C.ar    
   8 O8             0.2042    -3.5419     5.0965 O.2     
   9 N9             0.2114    -5.4521     6.2293 N.am    
  10 N10            2.7511    -3.3997    -1.0904 N.2     
  11 C11            2.4381    -4.1088    -0.0488 C.2     
  12 N12            3.2094    -4.1747     1.0700 N.am    
  13 C13            4.3704    -3.4834     1.1477 C.2     
  14 C14            4.7532    -2.6703    -0.0157 C.ar    
  15 C15            5.9283    -1.9216    -0.0368 C.ar    
  16 C16            6.2388    -1.1770    -1.1534 C.ar    
  17 C17            5.3919    -1.1677    -2.2542 C.ar    
  18 C18            4.2261    -1.9000    -2.2534 C.ar    
  19 C19            3.8894    -2.6632    -1.1335 C.ar    
  20 C20            1.1552    -4.8987    -0.0806 C.3     
  21 C21            0.2826    -4.4079    -1.2376 C.3     
  22 N22            1.4607    -6.3192    -0.2678 N.pl3   
  23 N23            1.8686    -9.3539    -0.5418 N.2     
  24 C24            1.6190   -10.6271    -0.4402 C.2     
  25 N25            0.4173   -10.8186     0.1743 N.pl3   
  26 C26           -0.0976    -9.5807     0.4654 C.ar    
  27 N27           -1.2082    -9.1393     1.0467 N.ar    
  28 C28           -1.4250    -7.8484     1.1860 C.ar    
  29 N29           -0.5688    -6.9362     0.7637 N.ar    
  30 C30            0.5692    -7.2825     0.1707 C.ar    
  31 C31            0.8459    -8.6494    -0.0005 C.ar    
  32 C32           -0.2095   -12.1095     0.4692 C.3     
  33 O33            0.6370   -13.1658     0.0113 O.3     
  34 C34            0.1155   -14.4743     0.2517 C.3     
  35 C35            1.0992   -15.5204    -0.2764 C.3     
  36 Si36           0.4192   -17.2263     0.0370 Si      
  37 C37           -1.2152   -17.4136    -0.8373 C.3     
  38 C38            1.6171   -18.5000    -0.6061 C.3     
  39 C39            0.1759   -17.4712     1.8677 C.3     
  40 O40            5.0702    -3.5326     2.1425 O.2     
  41 C41            6.8525    -1.9259     1.1536 C.3     
  42 H42            1.5787    -3.4274     3.0108 H       
  43 H43            3.9276    -6.6765     1.5286 H       
  44 H44            3.2095    -8.0708     3.4219 H       
  45 H45            1.6880    -7.1573     5.1233 H       
  46 H46            0.5301    -6.3651     6.3057 H       
  47 H47           -0.3925    -5.0918     6.8974 H       
  48 H48            7.1486    -0.5953    -1.1730 H       
  49 H49            5.6508    -0.5784    -3.1213 H       
  50 H50            3.5752    -1.8846    -3.1151 H       
  51 H51            0.6214    -4.7629     0.8601 H       
  52 H52            0.7723    -4.6363    -2.1842 H       
  53 H53           -0.6856    -4.9072    -1.1996 H       
  54 H54            0.1394    -3.3307    -1.1531 H       
  55 H55            2.2880    -6.5846    -0.6992 H       
  56 H56            2.2680   -11.4157    -0.7915 H       
  57 H57           -2.3378    -7.5231     1.6630 H       
  58 H58           -0.3586   -12.2037     1.5448 H       
  59 H59           -1.1725   -12.1700    -0.0378 H       
  60 H60           -0.0269   -14.6175     1.3229 H       
  61 H61           -0.8408   -14.5839    -0.2598 H       
  62 H62            1.2416   -15.3771    -1.3475 H       
  63 H63            2.0555   -15.4108     0.2351 H       
  64 H64           -1.0728   -17.2704    -1.9084 H       
  65 H65           -1.6130   -18.4117    -0.6539 H       
  66 H66           -1.9160   -16.6684    -0.4610 H       
  67 H67            2.5733   -18.3904    -0.0946 H       
  68 H68            1.2192   -19.4981    -0.4228 H       
  69 H69            1.7594   -18.3568    -1.6772 H       
  70 H70           -0.5249   -16.7259     2.2440 H       
  71 H71           -0.2219   -18.4693     2.0511 H       
  72 H72            1.1322   -17.3616     2.3792 H       
  73 H73            7.5404    -2.7678     1.0765 H       
  74 H74            7.4188    -0.9949     1.1773 H       
  75 H75            6.2665    -2.0181     2.0681 H       
@<TRIPOS>BOND
   1    1    2 1
   2    1    8 2
   3    1    9 am
   4    2    3 ar
   5    2    7 ar
   6    3    4 ar
   7    3   42 1
   8    4    5 ar
   9    4   12 1
  10    5    6 ar
  11    5   43 1
  12    6    7 ar
  13    6   44 1
  14    7   45 1
  15    9   46 1
  16    9   47 1
  17   10   11 2
  18   10   19 1
  19   11   12 1
  20   11   20 1
  21   12   13 am
  22   13   14 1
  23   13   40 2
  24   14   15 ar
  25   14   19 ar
  26   15   16 ar
  27   15   41 1
  28   16   17 ar
  29   16   48 1
  30   17   18 ar
  31   17   49 1
  32   18   19 ar
  33   18   50 1
  34   20   21 1
  35   20   22 1
  36   20   51 1
  37   21   52 1
  38   21   53 1
  39   21   54 1
  40   22   30 1
  41   22   55 1
  42   23   24 2
  43   23   31 1
  44   24   25 1
  45   24   56 1
  46   25   26 1
  47   25   32 1
  48   26   27 ar
  49   26   31 ar
  50   27   28 ar
  51   28   29 ar
  52   28   57 1
  53   29   30 ar
  54   30   31 ar
  55   32   33 1
  56   32   58 1
  57   32   59 1
  58   33   34 1
  59   34   35 1
  60   34   60 1
  61   34   61 1
  62   35   36 1
  63   35   62 1
  64   35   63 1
  65   36   37 1
  66   36   38 1
  67   36   39 1
  68   37   64 1
  69   37   65 1
  70   37   66 1
  71   38   67 1
  72   38   68 1
  73   38   69 1
  74   39   70 1
  75   39   71 1
  76   39   72 1
  77   41   73 1
  78   41   74 1
  79   41   75 1

#	End of record

