#	Name: ASD06660181
#	Creating user name:	WinNT
#	Creation time:	15. 06. 2019 21:08

#	Modifying user name:	WinNT
#	Modification time:	15. 06. 2019 21:08

#	Program:	/corina/corina34_cracker 3.40 0067  02.08.2006

@<TRIPOS>MOLECULE
ASD06660181
  66   69    0    0    0
SMALL
NO_CHARGES


@<TRIPOS>ATOM
   1 C1            -0.0184     1.5028     0.0103 C.2     
   2 C2             0.0021    -0.0041     0.0020 C.3     
   3 C3            -0.7241    -0.5171    -1.2431 C.3     
   4 O4             1.0197     2.1211     0.0037 O.2     
   5 O5            -1.1898     2.1580     0.0194 O.3     
   6 C6            -0.8113    -2.0207    -1.1900 C.ar    
   7 C7            -1.8994    -2.6267    -0.5878 C.ar    
   8 C8            -1.9848    -4.0029    -0.5356 C.ar    
   9 C9            -0.9712    -4.7833    -1.0920 C.ar    
  10 C10            0.1231    -4.1662    -1.6982 C.ar    
  11 C11            0.1944    -2.7891    -1.7486 C.ar    
  12 O12           -2.0866    -6.9182    -0.4681 O.3     
  13 C13           -1.0564    -6.2598    -1.0390 C.2     
  14 N14           -0.1483    -7.0393    -1.5371 N.2     
  15 C15           -0.5612    -8.4388    -1.3151 C.3     
  16 C16           -2.0562    -8.2787    -0.9462 C.3     
  17 C17           -0.3991    -9.2655    -2.5923 C.3     
  18 N18            0.9879    -9.1804    -3.0564 N.pl3   
  19 C19            1.3782    -9.8546    -4.2075 C.ar    
  20 C20            0.4467   -10.6086    -4.9144 C.ar    
  21 C21            0.8487   -11.2743    -6.0580 C.ar    
  22 C22            2.1740   -11.1634    -6.4582 C.ar    
  23 C23            3.0447   -10.3981    -5.7090 C.ar    
  24 N24            2.6319    -9.7693    -4.6246 N.ar    
  25 C25            2.0717    -0.5994     1.1419 C.2     
  26 O26            1.5367    -0.3240     2.1949 O.2     
  27 N27            1.3897    -0.4735    -0.0138 N.am    
  28 C28            3.4992    -1.0823     1.1257 C.3     
  29 C29            4.0362    -1.1344     2.5573 C.3     
  30 C30            3.1824    -2.0947     3.3878 C.3     
  31 C31            3.2406    -3.4932     2.7700 C.3     
  32 C32            2.7035    -3.4412     1.3384 C.3     
  33 C33            3.5574    -2.4809     0.5079 C.3     
  34 C34            4.3530    -0.1220     0.2952 C.3     
  35 H35           -0.4983    -0.3791     0.8948 H       
  36 H36           -1.7288    -0.0959    -1.2772 H       
  37 H37           -0.1736    -0.2164    -2.1345 H       
  38 H38           -1.1523     3.1243     0.0245 H       
  39 H39           -2.6835    -2.0214    -0.1574 H       
  40 H40           -2.8344    -4.4748    -0.0646 H       
  41 H41            0.9111    -4.7650    -2.1304 H       
  42 H42            1.0392    -2.3102    -2.2212 H       
  43 H43           -0.0025    -8.8836    -0.4917 H       
  44 H44           -2.3421    -8.9767    -0.1593 H       
  45 H45           -2.6911    -8.3995    -1.8239 H       
  46 H46           -0.6499   -10.3060    -2.3859 H       
  47 H47           -1.0646    -8.8773    -3.3633 H       
  48 H48            1.6338    -8.6535    -2.5603 H       
  49 H49           -0.5764   -10.6734    -4.5744 H       
  50 H50            0.1479   -11.8673    -6.6268 H       
  51 H51            2.5199   -11.6711    -7.3464 H       
  52 H52            4.0761   -10.3092    -6.0166 H       
  53 H53            1.8177    -0.6938    -0.8559 H       
  54 H54            5.0687    -1.4837     2.5456 H       
  55 H55            3.9948    -0.1380     2.9974 H       
  56 H56            3.5650    -2.1318     4.4077 H       
  57 H57            2.1499    -1.7454     3.3995 H       
  58 H58            4.2731    -3.8425     2.7583 H       
  59 H59            2.6323    -4.1774     3.3617 H       
  60 H60            2.7450    -4.4375     0.8983 H       
  61 H61            1.6711    -3.0919     1.3501 H       
  62 H62            3.1748    -2.4438    -0.5120 H       
  63 H63            4.5899    -2.8302     0.4962 H       
  64 H64            4.3116     0.8743     0.7353 H       
  65 H65            5.3855    -0.4713     0.2835 H       
  66 H66            3.9704    -0.0849    -0.7247 H       
@<TRIPOS>BOND
   1    1    2 1
   2    1    4 2
   3    1    5 1
   4    2    3 1
   5    2   27 1
   6    2   35 1
   7    3    6 1
   8    3   36 1
   9    3   37 1
  10    5   38 1
  11    6    7 ar
  12    6   11 ar
  13    7    8 ar
  14    7   39 1
  15    8    9 ar
  16    8   40 1
  17    9   10 ar
  18    9   13 1
  19   10   11 ar
  20   10   41 1
  21   11   42 1
  22   12   13 1
  23   12   16 1
  24   13   14 2
  25   14   15 1
  26   15   16 1
  27   15   17 1
  28   15   43 1
  29   16   44 1
  30   16   45 1
  31   17   18 1
  32   17   46 1
  33   17   47 1
  34   18   19 1
  35   18   48 1
  36   19   20 ar
  37   19   24 ar
  38   20   21 ar
  39   20   49 1
  40   21   22 ar
  41   21   50 1
  42   22   23 ar
  43   22   51 1
  44   23   24 ar
  45   23   52 1
  46   25   26 2
  47   25   27 am
  48   25   28 1
  49   27   53 1
  50   28   29 1
  51   28   33 1
  52   28   34 1
  53   29   30 1
  54   29   54 1
  55   29   55 1
  56   30   31 1
  57   30   56 1
  58   30   57 1
  59   31   32 1
  60   31   58 1
  61   31   59 1
  62   32   33 1
  63   32   60 1
  64   32   61 1
  65   33   62 1
  66   33   63 1
  67   34   64 1
  68   34   65 1
  69   34   66 1

#	End of record

