#	Name: ASD01410900
#	Creating user name:	WinNT
#	Creation time:	15. 06. 2019 19:18

#	Modifying user name:	WinNT
#	Modification time:	15. 06. 2019 19:18

#	Program:	/corina/corina34_cracker 3.40 0067  02.08.2006

@<TRIPOS>MOLECULE
ASD01410900
  62   63    0    0    0
SMALL
NO_CHARGES


@<TRIPOS>ATOM
   1 S1             1.4882     1.8839    -1.0528 S.3     
   2 C2             2.4220     0.3944    -1.0393 C.2     
   3 C3             1.7059    -0.5945    -0.4059 C.2     
   4 C4             0.4721    -0.1985     0.0510 C.2     
   5 C5             0.1625     1.1072    -0.1987 C.2     
   6 C6            -1.0604     1.7491     0.1793 C.1     
   7 C7            -2.0630     2.2754     0.4893 C.1     
   8 C8            -3.3201     2.9353     0.8779 C.3     
   9 C9            -4.2203     1.9318     1.6015 C.3     
  10 C10           -3.0130     4.1093     1.8097 C.3     
  11 C11            3.7125     0.2369    -1.5952 C.2     
  12 N12            2.1917    -1.8924    -0.2418 N.am    
  13 O13            4.2870     1.2569    -2.2674 O.3     
  14 O14            4.3054    -0.8185    -1.4677 O.2     
  15 C15            3.0615    -2.2109     0.8933 C.3     
  16 C16            1.8608    -2.8529    -1.1274 C.2     
  17 C17            2.3082    -4.2739    -0.9002 C.3     
  18 O18            1.2029    -2.5736    -2.1073 O.2     
  19 C19            2.2164    -2.5353     2.0981 C.2     
  20 C20            2.3542    -5.0143    -2.2384 C.3     
  21 C21            2.8084    -6.4570    -2.0077 C.3     
  22 C22            1.8231    -7.1582    -1.0705 C.3     
  23 C23            1.7771    -6.4178     0.2677 C.3     
  24 C24            1.3229    -4.9752     0.0370 C.3     
  25 C25            2.2773    -8.6009    -0.8398 C.3     
  26 N26            2.7991    -2.9738     3.2316 N.am    
  27 O27            1.0121    -2.4018     2.0478 O.2     
  28 C28            1.9776    -3.2892     4.4029 C.3     
  29 C29            4.2539    -3.1351     3.2923 C.3     
  30 C30           -4.0337     3.4506    -0.3736 C.3     
  31 H31           -0.2002    -0.8680     0.5670 H       
  32 H32           -3.7120     1.5647     2.4930 H       
  33 H33           -5.1512     2.4204     1.8892 H       
  34 H34           -4.4392     1.0954     0.9376 H       
  35 H35           -2.3717     4.8242     1.2942 H       
  36 H36           -3.9439     4.5979     2.0975 H       
  37 H37           -2.5046     3.7421     2.7013 H       
  38 H38            5.1683     1.0551    -2.6104 H       
  39 H39            3.6840    -3.0702     0.6441 H       
  40 H40            3.6973    -1.3539     1.1155 H       
  41 H41            3.3010    -4.2747    -0.4503 H       
  42 H42            1.3614    -5.0135    -2.6884 H       
  43 H43            3.0561    -4.5147    -2.9061 H       
  44 H44            2.8411    -6.9844    -2.9610 H       
  45 H45            3.8012    -6.4578    -1.5577 H       
  46 H46            0.8303    -7.1574    -1.5204 H       
  47 H47            1.0752    -6.9174     0.9354 H       
  48 H48            2.7699    -6.4186     0.7177 H       
  49 H49            1.2901    -4.4477     0.9903 H       
  50 H50            0.3301    -4.9744    -0.4130 H       
  51 H51            3.2701    -8.6017    -0.3898 H       
  52 H52            1.5754    -9.1005    -0.1721 H       
  53 H53            2.3101    -9.1283    -1.7931 H       
  54 H54            1.6800    -4.3372     4.3664 H       
  55 H55            2.5532    -3.1063     5.3103 H       
  56 H56            1.0884    -2.6588     4.4034 H       
  57 H57            4.7086    -2.2054     3.6343 H       
  58 H58            4.5018    -3.9378     3.9869 H       
  59 H59            4.6338    -3.3822     2.3010 H       
  60 H60           -4.2525     2.6142    -1.0374 H       
  61 H61           -4.9646     3.9392    -0.0858 H       
  62 H62           -3.3924     4.1655    -0.8891 H       
@<TRIPOS>BOND
   1    1    2 1
   2    1    5 1
   3    2    3 2
   4    2   11 1
   5    3    4 1
   6    3   12 1
   7    4    5 2
   8    4   31 1
   9    5    6 1
  10    6    7 3
  11    7    8 1
  12    8    9 1
  13    8   10 1
  14    8   30 1
  15    9   32 1
  16    9   33 1
  17    9   34 1
  18   10   35 1
  19   10   36 1
  20   10   37 1
  21   11   13 1
  22   11   14 2
  23   12   15 1
  24   12   16 am
  25   13   38 1
  26   15   19 1
  27   15   39 1
  28   15   40 1
  29   16   18 2
  30   16   17 1
  31   17   20 1
  32   17   24 1
  33   17   41 1
  34   19   26 am
  35   19   27 2
  36   20   21 1
  37   20   42 1
  38   20   43 1
  39   21   22 1
  40   21   44 1
  41   21   45 1
  42   22   23 1
  43   22   25 1
  44   22   46 1
  45   23   24 1
  46   23   47 1
  47   23   48 1
  48   24   49 1
  49   24   50 1
  50   25   51 1
  51   25   52 1
  52   25   53 1
  53   26   28 1
  54   26   29 1
  55   28   54 1
  56   28   55 1
  57   28   56 1
  58   29   57 1
  59   29   58 1
  60   29   59 1
  61   30   60 1
  62   30   61 1
  63   30   62 1

#	End of record

