#	Name: ASD04882588
#	Creating user name:	WinNT
#	Creation time:	15. 06. 2019 20:55

#	Modifying user name:	WinNT
#	Modification time:	15. 06. 2019 20:55

#	Program:	/corina/corina34_cracker 3.40 0067  02.08.2006

@<TRIPOS>MOLECULE
ASD04882588
  74   78    0    0    0
SMALL
NO_CHARGES


@<TRIPOS>ATOM
   1 C1            -0.0215     1.4013    -0.0093 C.ar    
   2 C2            -0.0116     0.0037    -0.0052 C.ar    
   3 C3            -1.2095    -0.7018    -0.0165 C.ar    
   4 C4            -2.4097    -0.0267    -0.0324 C.ar    
   5 C5            -2.4268     1.3709    -0.0366 C.ar    
   6 C6            -1.2240     2.0827    -0.0190 C.ar    
   7 N7             1.1997    -0.6831     0.0099 N.3     
   8 C8             1.3066    -1.5361     1.2018 C.3     
   9 C9             1.3724    -1.4733    -1.2170 C.3     
  10 C10            2.7462    -2.1476    -1.1972 C.3     
  11 N11            2.8531    -3.0006    -0.0053 N.3     
  12 C12            2.6805    -2.2104     1.2216 C.3     
  13 C13           -3.7127     2.0939    -0.0536 C.2     
  14 O14           -3.7266     3.3098    -0.0573 O.2     
  15 N15           -4.8720     1.4067    -0.0650 N.am    
  16 N16            1.1863     2.1109     0.0021 N.am    
  17 C17            4.0681    -3.6895     0.0098 C.ar    
  18 C18            4.0808    -5.0783     0.0140 C.ar    
  19 C19            5.2841    -5.7563     0.0285 C.ar    
  20 C20            6.4751    -5.0541     0.0393 C.ar    
  21 C21            6.4660    -3.6710     0.0352 C.ar    
  22 C22            5.2667    -2.9869     0.0149 C.ar    
  23 C23            1.2294     3.3599     0.5068 C.2     
  24 C24            2.5092     4.0695     0.5995 C.2     
  25 C25            2.6935     5.3315     1.0876 C.2     
  26 C26            4.0664     5.6062     0.9879 C.2     
  27 C27            4.6525     4.5138     0.4501 C.2     
  28 O28            3.7118     3.5879     0.2228 O.3     
  29 O29            0.2059     3.8988     0.8856 O.2     
  30 C30            2.7832    -5.8446     0.0032 C.3     
  31 C31           -6.1490     2.1246    -0.0818 C.3     
  32 C32           -7.3004     1.1171    -0.0922 C.3     
  33 C33           -8.6139     1.8556    -0.1095 C.ar    
  34 C34           -9.2813     2.1068     1.0747 C.ar    
  35 O35           -7.2018     0.2931    -1.2555 O.3     
  36 C36           -9.1486     2.2867    -1.3092 C.ar    
  37 C37          -10.3535     2.9641    -1.3251 C.ar    
  38 C38          -11.0239     3.2100    -0.1414 C.ar    
  39 C39          -10.4862     2.7842     1.0588 C.ar    
  40 C40            6.1233     4.3603     0.1599 C.3     
  41 H41           -1.1987    -1.7817    -0.0133 H       
  42 H42           -3.3386    -0.5776    -0.0419 H       
  43 H43           -1.2341     3.1626    -0.0222 H       
  44 H44            1.1879    -0.9262     2.0973 H       
  45 H45            0.5278    -2.2982     1.1746 H       
  46 H46            0.5943    -2.2347    -1.2716 H       
  47 H47            1.3016    -0.8176    -2.0848 H       
  48 H48            2.8649    -2.7575    -2.0927 H       
  49 H49            3.5250    -1.3855    -1.1700 H       
  50 H50            3.4585    -1.4490     1.2763 H       
  51 H51            2.7512    -2.8660     2.0895 H       
  52 H52           -4.8609     0.4367    -0.0621 H       
  53 H53            1.9917     1.7034    -0.3533 H       
  54 H54            5.2947    -6.8363     0.0318 H       
  55 H55            7.4145    -5.5867     0.0514 H       
  56 H56            7.3981    -3.1255     0.0440 H       
  57 H57            5.2604    -1.9070     0.0114 H       
  58 H58            1.9307     5.9906     1.4750 H       
  59 H59            4.5612     6.5191     1.2848 H       
  60 H60            2.4807    -6.0323    -1.0270 H       
  61 H61            2.9177    -6.7942     0.5212 H       
  62 H62            2.0127    -5.2615     0.5077 H       
  63 H63           -6.2241     2.7531     0.8055 H       
  64 H64           -6.2036     2.7480    -0.9743 H       
  65 H65           -7.2458     0.4937     0.8003 H       
  66 H66           -8.8615     1.7735     2.0123 H       
  67 H67           -7.2432     0.7822    -2.0887 H       
  68 H68           -8.6249     2.0947    -2.2339 H       
  69 H69          -10.7710     3.3016    -2.2622 H       
  70 H70          -11.9651     3.7396    -0.1538 H       
  71 H71          -11.0099     2.9763     1.9836 H       
  72 H72            6.6234     3.9378     1.0314 H       
  73 H73            6.2578     3.6960    -0.6937 H       
  74 H74            6.5526     5.3360    -0.0678 H       
@<TRIPOS>BOND
   1    1    2 ar
   2    1   16 1
   3    1    6 ar
   4    2    3 ar
   5    2    7 1
   6    3    4 ar
   7    3   41 1
   8    4    5 ar
   9    4   42 1
  10    5    6 ar
  11    5   13 1
  12    6   43 1
  13    7    8 1
  14    7    9 1
  15    8   12 1
  16    8   44 1
  17    8   45 1
  18    9   10 1
  19    9   46 1
  20    9   47 1
  21   10   11 1
  22   10   48 1
  23   10   49 1
  24   11   12 1
  25   11   17 1
  26   12   50 1
  27   12   51 1
  28   13   14 2
  29   13   15 am
  30   15   31 1
  31   15   52 1
  32   16   23 am
  33   16   53 1
  34   17   18 ar
  35   17   22 ar
  36   18   19 ar
  37   18   30 1
  38   19   20 ar
  39   19   54 1
  40   20   21 ar
  41   20   55 1
  42   21   22 ar
  43   21   56 1
  44   22   57 1
  45   23   24 1
  46   23   29 2
  47   24   25 2
  48   24   28 1
  49   25   26 1
  50   25   58 1
  51   26   27 2
  52   26   59 1
  53   27   28 1
  54   27   40 1
  55   30   60 1
  56   30   61 1
  57   30   62 1
  58   31   32 1
  59   31   63 1
  60   31   64 1
  61   32   33 1
  62   32   35 1
  63   32   65 1
  64   33   34 ar
  65   33   36 ar
  66   34   39 ar
  67   34   66 1
  68   35   67 1
  69   36   37 ar
  70   36   68 1
  71   37   38 ar
  72   37   69 1
  73   38   39 ar
  74   38   70 1
  75   39   71 1
  76   40   72 1
  77   40   73 1
  78   40   74 1

#	End of record

