#	Name: ASD01814701
#	Creating user name:	WinNT
#	Creation time:	15. 06. 2019 19:32

#	Modifying user name:	WinNT
#	Modification time:	15. 06. 2019 19:32

#	Program:	/corina/corina34_cracker 3.40 0067  02.08.2006

@<TRIPOS>MOLECULE
ASD01814701
  56   60    0    0    0
SMALL
NO_CHARGES


@<TRIPOS>ATOM
   1 O1            -0.3306     1.1076     0.4232 O.3     
   2 C2            -0.3135    -0.3164     0.3049 C.3     
   3 H3             0.2698    -0.6013    -0.5707 H       
   4 C4             0.3181    -0.9248     1.5586 C.3     
   5 C5             0.3364    -2.4494     1.4320 C.3     
   6 C6            -1.0959    -2.9658     1.2806 C.3     
   7 C7            -1.7275    -2.3574     0.0269 C.3     
   8 C8            -1.7458    -0.8328     0.1535 C.3     
   9 H9            -2.3292    -0.5479     1.0291 H       
  10 N10           -2.3506    -0.2503    -1.0469 N.am    
  11 C11           -1.7894    -0.4803    -2.2626 C.2     
  12 N12           -2.2644    -0.0001    -3.3716 N.2     
  13 C13           -3.3757     0.7787    -3.3894 C.ar    
  14 C14           -3.8795     1.2941    -4.5926 C.ar    
  15 C15           -3.1379     0.9655    -5.8616 C.3     
  16 C16           -4.0197     1.2196    -7.0824 C.3     
  17 C17           -4.5993     2.6349    -6.9711 C.3     
  18 C18           -5.6117     2.6514    -5.8283 C.3     
  19 C19           -5.0080     2.0739    -4.5735 C.ar    
  20 C20           -5.6457     2.3594    -3.3645 C.ar    
  21 C21           -6.8812     3.2224    -3.3664 C.3     
  22 C22           -8.0958     2.3602    -3.5954 C.ar    
  23 C23           -8.6268     2.2198    -4.8687 C.ar    
  24 C24           -9.7444     1.4165    -5.0328 C.ar    
  25 C25          -10.2892     0.7859    -3.9285 C.ar    
  26 Cl26         -11.6886    -0.2235    -4.1199 Cl      
  27 N27           -9.7566     0.9429    -2.7312 N.ar    
  28 C28           -8.6906     1.6954    -2.5400 C.ar    
  29 C29           -5.1684     1.8679    -2.1728 C.ar    
  30 C30           -4.0265     1.0707    -2.1730 C.ar    
  31 C31           -3.4667     0.5077    -0.9353 C.2     
  32 O32           -3.9835     0.7183     0.1465 O.2     
  33 H33            0.5455     1.5045     0.5226 H       
  34 H34            1.3385    -0.5569     1.6665 H       
  35 H35           -0.2653    -0.6399     2.4342 H       
  36 H36            0.9197    -2.7343     0.5564 H       
  37 H37            0.7864    -2.8828     2.3252 H       
  38 H38           -1.0829    -4.0520     1.1904 H       
  39 H39           -1.6793    -2.6809     2.1562 H       
  40 H40           -1.1441    -2.6423    -0.8487 H       
  41 H41           -2.7479    -2.7253    -0.0810 H       
  42 H42           -0.9020    -1.0941    -2.3090 H       
  43 H43           -2.2454     1.5878    -5.9275 H       
  44 H44           -2.8429    -0.0837    -5.8438 H       
  45 H45           -3.4225     1.1374    -7.9905 H       
  46 H46           -4.8304     0.4915    -7.1080 H       
  47 H47           -3.7985     3.3443    -6.7626 H       
  48 H48           -5.0945     2.9033    -7.9043 H       
  49 H49           -5.9214     3.6789    -5.6377 H       
  50 H50           -6.4831     2.0612    -6.1120 H       
  51 H51           -6.9715     3.7296    -2.4058 H       
  52 H52           -6.8059     3.9629    -4.1626 H       
  53 H53           -8.1802     2.7247    -5.7125 H       
  54 H54          -10.1844     1.2848    -6.0103 H       
  55 H55           -8.2802     1.7967    -1.5462 H       
  56 H56           -5.6730     2.0983    -1.2461 H       
@<TRIPOS>BOND
   1    1    2 1
   2    1   33 1
   3    2    3 1
   4    2    8 1
   5    2    4 1
   6    4    5 1
   7    4   34 1
   8    4   35 1
   9    5    6 1
  10    5   36 1
  11    5   37 1
  12    6    7 1
  13    6   38 1
  14    6   39 1
  15    7    8 1
  16    7   40 1
  17    7   41 1
  18    8    9 1
  19    8   10 1
  20   10   31 am
  21   10   11 1
  22   11   12 2
  23   11   42 1
  24   12   13 1
  25   13   30 ar
  26   13   14 ar
  27   14   19 ar
  28   14   15 1
  29   15   16 1
  30   15   43 1
  31   15   44 1
  32   16   17 1
  33   16   45 1
  34   16   46 1
  35   17   18 1
  36   17   47 1
  37   17   48 1
  38   18   19 1
  39   18   49 1
  40   18   50 1
  41   19   20 ar
  42   20   21 1
  43   20   29 ar
  44   21   22 1
  45   21   51 1
  46   21   52 1
  47   22   28 ar
  48   22   23 ar
  49   23   24 ar
  50   23   53 1
  51   24   25 ar
  52   24   54 1
  53   25   26 1
  54   25   27 ar
  55   27   28 ar
  56   28   55 1
  57   29   30 ar
  58   29   56 1
  59   30   31 1
  60   31   32 2

#	End of record

