#	Name: ASD02560241
#	Creating user name:	WinNT
#	Creation time:	15. 06. 2019 20:24

#	Modifying user name:	WinNT
#	Modification time:	15. 06. 2019 20:24

#	Program:	/corina/corina34_cracker 3.40 0067  02.08.2006

@<TRIPOS>MOLECULE
ASD02560241
  33   35    0    0    0
SMALL
NO_CHARGES


@<TRIPOS>ATOM
   1 C1             0.0126     1.3159     0.2682 C.2     
   2 N2             0.0195    -0.0016     0.1759 N.2     
   3 C3             1.1783    -0.5767     0.0831 C.2     
   4 S4             2.4208     0.5974     0.1087 S.3     
   5 C5             1.2212     1.8795     0.2527 C.2     
   6 C6             1.5103     3.3558     0.3422 C.3     
   7 N7             1.3802    -1.9448    -0.0209 N.pl3   
   8 C8             0.2970    -2.8217     0.0906 C.ar    
   9 C9             0.3075    -4.0311    -0.5928 C.ar    
  10 C10           -0.7636    -4.8955    -0.4805 C.ar    
  11 C11           -1.8470    -4.5577     0.3116 C.ar    
  12 C12           -1.8604    -3.3534     0.9931 C.ar    
  13 C13           -0.7893    -2.4878     0.8894 C.ar    
  14 C14            1.6707     3.7495     1.7880 C.ar    
  15 C15            2.9187     3.7044     2.3831 C.ar    
  16 C16            3.0653     4.0659     3.7105 C.ar    
  17 C17            1.9651     4.4721     4.4421 C.ar    
  18 C18            0.7178     4.5168     3.8482 C.ar    
  19 C19            0.5710     4.1614     2.5191 C.ar    
  20 Cl20          -0.9957     4.2177     1.7733 Cl      
  21 Cl21           4.3005     3.1938     1.4646 Cl      
  22 Cl22          -3.1920    -5.6465     0.4500 Cl      
  23 H23           -0.8984     1.8908     0.3454 H       
  24 H24            2.4294     3.5795    -0.1994 H       
  25 H25            0.6843     3.9151    -0.0971 H       
  26 H26            2.2729    -2.2934    -0.1709 H       
  27 H27            1.1524    -4.2949    -1.2116 H       
  28 H28           -0.7560    -5.8358    -1.0116 H       
  29 H29           -2.7073    -3.0921     1.6103 H       
  30 H30           -0.8001    -1.5482     1.4219 H       
  31 H31            4.0396     4.0305     4.1753 H       
  32 H32            2.0801     4.7542     5.4782 H       
  33 H33           -0.1416     4.8336     4.4205 H       
@<TRIPOS>BOND
   1    1    2 1
   2    1    5 2
   3    1   23 1
   4    2    3 2
   5    3    4 1
   6    3    7 1
   7    4    5 1
   8    5    6 1
   9    6   14 1
  10    6   24 1
  11    6   25 1
  12    7    8 1
  13    7   26 1
  14    8    9 ar
  15    8   13 ar
  16    9   10 ar
  17    9   27 1
  18   10   11 ar
  19   10   28 1
  20   11   12 ar
  21   11   22 1
  22   12   13 ar
  23   12   29 1
  24   13   30 1
  25   14   15 ar
  26   14   19 ar
  27   15   16 ar
  28   15   21 1
  29   16   17 ar
  30   16   31 1
  31   17   18 ar
  32   17   32 1
  33   18   19 ar
  34   18   33 1
  35   19   20 1

#	End of record

