#	Name: ASD01410119
#	Creating user name:	WinNT
#	Creation time:	15. 06. 2019 19:16

#	Modifying user name:	WinNT
#	Modification time:	15. 06. 2019 19:16

#	Program:	/corina/corina34_cracker 3.40 0067  02.08.2006

@<TRIPOS>MOLECULE
ASD01410119
  34   37    0    0    0
SMALL
NO_CHARGES


@<TRIPOS>ATOM
   1 C1            -0.0168     1.3850     0.0097 C.ar    
   2 C2             0.0021    -0.0041     0.0020 C.ar    
   3 C3            -1.1876    -0.7108     0.0100 C.ar    
   4 C4            -2.4050    -0.0172     0.0258 C.ar    
   5 C5            -2.4238     1.3877     0.0336 C.ar    
   6 C6            -1.2198     2.0768     0.0306 C.ar    
   7 C7            -3.8100    -0.4527     0.0374 C.2     
   8 C8            -4.5860     0.8036     0.0519 C.2     
   9 O9            -3.7019     1.8273     0.0486 O.3     
  10 O10           -4.2374    -1.5934     0.0349 O.2     
  11 C11           -5.9357     0.9112     0.0652 C.2     
  12 C12           -6.5676     2.2395     0.0787 C.ar    
  13 O13            1.1533     2.0725     0.0022 O.3     
  14 O14           -1.1754    -2.0672     0.0022 O.3     
  15 N15           -5.8040     3.3194     0.0777 N.ar    
  16 C16           -6.3355     4.5425     0.0897 C.ar    
  17 C17           -7.7450     4.7033     0.1038 C.ar    
  18 C18           -8.5681     3.5591     0.1046 C.ar    
  19 C19           -7.9721     2.3340     0.0867 C.ar    
  20 C20           -5.5167     5.6877     0.0891 C.ar    
  21 C21           -6.0850     6.9238     0.1019 C.ar    
  22 C22           -7.4701     7.0783     0.1156 C.ar    
  23 C23           -8.2948     5.9944     0.1171 C.ar    
  24 H24            0.9442    -0.5318    -0.0105 H       
  25 H25           -1.2186     3.1568     0.0365 H       
  26 H26           -6.5483     0.0217     0.0659 H       
  27 H27            1.4840     2.2765    -0.8833 H       
  28 H28           -1.1629    -2.4655     0.8832 H       
  29 H29           -9.6441     3.6512     0.1155 H       
  30 H30           -8.5753     1.4381     0.0868 H       
  31 H31           -4.4416     5.5854     0.0789 H       
  32 H32           -5.4526     7.7993     0.1017 H       
  33 H33           -7.8952     8.0711     0.1256 H       
  34 H34           -9.3665     6.1278     0.1278 H       
@<TRIPOS>BOND
   1    1    2 ar
   2    1   13 1
   3    1    6 ar
   4    2    3 ar
   5    2   24 1
   6    3    4 ar
   7    3   14 1
   8    4    5 ar
   9    4    7 1
  10    5    6 ar
  11    5    9 1
  12    6   25 1
  13    7    8 1
  14    7   10 2
  15    8    9 1
  16    8   11 2
  17   11   12 1
  18   11   26 1
  19   12   15 ar
  20   12   19 ar
  21   13   27 1
  22   14   28 1
  23   15   16 ar
  24   16   17 ar
  25   16   20 ar
  26   17   18 ar
  27   17   23 ar
  28   18   19 ar
  29   18   29 1
  30   19   30 1
  31   20   21 ar
  32   20   31 1
  33   21   22 ar
  34   21   32 1
  35   22   23 ar
  36   22   33 1
  37   23   34 1

#	End of record

