#	Name: ASD05740100
#	Creating user name:	WinNT
#	Creation time:	15. 06. 2019 21:02

#	Modifying user name:	WinNT
#	Modification time:	15. 06. 2019 21:02

#	Program:	/corina/corina34_cracker 3.40 0067  02.08.2006

@<TRIPOS>MOLECULE
ASD05740100
  50   51    0    0    0
SMALL
NO_CHARGES


@<TRIPOS>ATOM
   1 C1            -0.0184     1.5028     0.0103 C.3     
   2 C2             1.2666    -0.7400    -0.0140 C.2     
   3 C3             1.2195    -2.2142    -0.0210 C.2     
   4 C4             0.0021    -0.0041     0.0020 C.2     
   5 C5            -1.1521    -0.7185     0.0097 C.2     
   6 C6            -1.1280    -2.1274     0.0023 C.2     
   7 O7             0.0148    -2.8328    -0.0128 O.3     
   8 C8            -2.4747     0.0036     0.0267 C.3     
   9 C9            -2.9890     0.1432    -1.3830 C.ar    
  10 C10           -2.7491     1.2987    -2.1155 C.ar    
  11 O11           -2.1861    -2.7298     0.0096 O.2     
  12 C12           -4.1647    -0.7130    -3.2847 C.ar    
  13 N13           -3.9192     0.4065    -3.9464 N.ar    
  14 C14           -3.2332     1.3953    -3.4040 C.ar    
  15 N15           -4.8918    -1.7300    -3.8956 N.am    
  16 S16           -5.4459    -1.5366    -5.4441 S.o2    
  17 O17           -6.1097    -2.7454    -5.7867 O.2     
  18 O18           -6.0766    -0.2640    -5.4886 O.2     
  19 C19            2.5040    -2.6211    -0.0351 C.2     
  20 O20            3.3046    -1.5403    -0.0372 O.3     
  21 C21            2.5845    -0.4077    -0.0199 C.2     
  22 O22            2.9228    -3.9144    -0.0452 O.3     
  23 C23            4.3339    -4.1392    -0.0597 C.3     
  24 C24           -3.7064    -0.8797    -1.9794 C.ar    
  25 F25           -3.9580    -2.0234    -1.3057 F       
  26 N26           -4.1195    -1.4358    -6.4304 N.am    
  27 C27           -3.2270    -2.5882    -6.5778 C.3     
  28 H28            1.0042     1.8801     0.0026 H       
  29 H29           -0.5455     1.8639    -0.8728 H       
  30 H30           -0.5286     1.8543     0.9071 H       
  31 H31           -3.1911    -0.5644     0.6202 H       
  32 H32           -2.3430     0.9928     0.4650 H       
  33 H33           -2.1895     2.1137    -1.6806 H       
  34 H34           -3.0486     2.2923    -3.9765 H       
  35 H35           -5.0742    -2.5523    -3.4144 H       
  36 H36            2.9838     0.5958    -0.0175 H       
  37 H37            4.5309    -5.2112    -0.0666 H       
  38 H38            4.7651    -3.6848    -0.9516 H       
  39 H39            4.7820    -3.6932     0.8282 H       
  40 H40           -3.9334    -0.6137    -6.9104 H       
  41 H41           -2.8125    -2.8535    -5.6053 H       
  42 H42           -3.7880    -3.4335    -6.9765 H       
  43 H43           -2.4166    -2.3350    -7.2614 H       
  44 C44           10.3092     9.9616     7.7754 C.3     
  45 N45           10.3290     8.4968     7.7673 N.2     
  46 C46           10.8698     7.8843     6.8213 C.1     
  47 O47           11.3923     7.2923     5.9071 O.2     
  48 H48           11.3318    10.3389     7.7676 H       
  49 H49            9.7820    10.3227     6.8923 H       
  50 H50            9.7990    10.3131     8.6722 H       
@<TRIPOS>BOND
   1    1    4 1
   2    1   28 1
   3    1   29 1
   4    1   30 1
   5    2    3 1
   6    2    4 1
   7    2   21 2
   8    3   19 2
   9    3    7 1
  10    4    5 2
  11    5    6 1
  12    5    8 1
  13    6    7 1
  14    6   11 2
  15    8    9 1
  16    8   31 1
  17    8   32 1
  18    9   10 ar
  19    9   24 ar
  20   10   14 ar
  21   10   33 1
  22   12   13 ar
  23   12   15 1
  24   12   24 ar
  25   13   14 ar
  26   14   34 1
  27   15   16 am
  28   15   35 1
  29   16   17 2
  30   16   18 2
  31   16   26 am
  32   19   20 1
  33   19   22 1
  34   20   21 1
  35   21   36 1
  36   22   23 1
  37   23   37 1
  38   23   38 1
  39   23   39 1
  40   24   25 1
  41   26   27 1
  42   26   40 1
  43   27   41 1
  44   27   42 1
  45   27   43 1
  46   44   45 1
  47   44   48 1
  48   44   49 1
  49   44   50 1
  50   45   46 2
  51   46   47 2

#	End of record

