#	Name: ASD03091788
#	Creating user name:	WinNT
#	Creation time:	15. 06. 2019 20:31

#	Modifying user name:	WinNT
#	Modification time:	15. 06. 2019 20:31

#	Program:	/corina/corina34_cracker 3.40 0067  02.08.2006

@<TRIPOS>MOLECULE
ASD03091788
  34   36    0    0    0
SMALL
NO_CHARGES


@<TRIPOS>ATOM
   1 C1            -0.0109     1.4649    -0.0355 C.3     
   2 C2             0.0635    -0.0617    -0.1073 C.3     
   3 N3             0.7612    -0.5755     1.0782 N.3     
   4 C4             0.0361    -0.2354     2.3091 C.3     
   5 C5            -0.0396     1.2858     2.4549 C.3     
   6 C6             1.3795     1.8593     2.5289 C.3     
   7 N7             2.0582     1.6060     1.2507 N.am    
   8 C8             1.4089     2.0402     0.0063 C.3     
   9 C9             3.2546     0.9861     1.2201 C.2     
  10 O10            3.7525     0.6763     0.1534 O.2     
  11 C11            3.9558     0.6853     2.4706 C.2     
  12 C12            5.1058    -0.0644     2.5903 C.2     
  13 C13           -0.7568     1.8766     1.2373 C.3     
  14 O14            3.5890     1.0998     3.7014 O.3     
  15 C15            4.4650     0.6346     4.6090 C.2     
  16 C16            5.4280    -0.0985     3.9498 C.2     
  17 C17            4.4090     0.8650     6.0212 C.1     
  18 C18            4.3630     1.0538     7.1790 C.1     
  19 H19           -0.5341     1.8468    -0.9121 H       
  20 H20           -0.9452    -0.4732    -0.1419 H       
  21 H21            0.6069    -0.3569    -1.0049 H       
  22 H22            0.9077    -1.5714     1.0083 H       
  23 H23           -0.9723    -0.6463     2.2617 H       
  24 H24            0.5597    -0.6568     3.1672 H       
  25 H25           -0.5837     1.5388     3.3649 H       
  26 H26            1.3309     2.9329     2.7104 H       
  27 H27            1.9281     1.3743     3.3364 H       
  28 H28            1.9767     1.6745    -0.8492 H       
  29 H29            1.3630     3.1289    -0.0213 H       
  30 H30            5.6530    -0.5359     1.7874 H       
  31 H31           -0.7714     2.9637     1.3153 H       
  32 H32           -1.7789     1.4997     1.1984 H       
  33 H33            6.2709    -0.6032     4.3984 H       
  34 H34            4.3219     1.2228     8.2145 H       
@<TRIPOS>BOND
   1    1    2 1
   2    1    8 1
   3    1   13 1
   4    1   19 1
   5    2    3 1
   6    2   20 1
   7    2   21 1
   8    3    4 1
   9    3   22 1
  10    4    5 1
  11    4   23 1
  12    4   24 1
  13    5    6 1
  14    5   13 1
  15    5   25 1
  16    6    7 1
  17    6   26 1
  18    6   27 1
  19    7    8 1
  20    7    9 am
  21    8   28 1
  22    8   29 1
  23    9   10 2
  24    9   11 1
  25   11   12 2
  26   11   14 1
  27   12   16 1
  28   12   30 1
  29   13   31 1
  30   13   32 1
  31   14   15 1
  32   15   16 2
  33   15   17 1
  34   16   33 1
  35   17   18 3
  36   18   34 1

#	End of record

