#	Name: ASD01940217
#	Creating user name:	WinNT
#	Creation time:	15. 06. 2019 20:12

#	Modifying user name:	WinNT
#	Modification time:	15. 06. 2019 20:12

#	Program:	/corina/corina34_cracker 3.40 0067  02.08.2006

@<TRIPOS>MOLECULE
ASD01940217
  42   44    0    0    0
SMALL
NO_CHARGES


@<TRIPOS>ATOM
   1 C1            -0.5456    -3.0373     1.7593 C.3     
   2 C2             6.0872     0.2519     7.7845 C.ar    
   3 F3             1.7708     2.4931     3.0010 F       
   4 C4             0.8513     1.5549     3.3161 C.ar    
   5 C5             1.2407     0.2350     3.5020 C.ar    
   6 C6             0.2883    -0.7294     3.8275 C.ar    
   7 C7            -1.0433    -0.3667     3.9642 C.ar    
   8 C8            -1.4253     0.9491     3.7776 C.ar    
   9 C9            -0.4806     1.9098     3.4593 C.ar    
  10 N10            2.5875    -0.1266     3.3621 N.pl3   
  11 N11            0.6755    -2.0629     4.0157 N.am    
  12 C12            3.4528    -0.0330     4.4547 C.ar    
  13 C13            2.9639     0.3556     5.6958 C.ar    
  14 C14            3.8163     0.4483     6.7761 C.ar    
  15 C15            5.1695     0.1520     6.6233 C.ar    
  16 C16            5.6600    -0.2380     5.3775 C.ar    
  17 C17            4.8036    -0.3348     4.3000 C.ar    
  18 F18            5.2772    -0.7129     3.0925 F       
  19 F19           -0.8584     3.1949     3.2840 F       
  20 S20           -0.3289    -3.2914     3.5423 S.o2    
  21 O21           -1.5441    -3.0367     4.2335 O.2     
  22 O22            0.4212    -4.4726     3.7901 O.2     
  23 C23            7.4407    -0.0439     7.6337 C.ar    
  24 C24            8.2899     0.0506     8.7175 C.ar    
  25 C25            7.7999     0.4382     9.9517 C.ar    
  26 C26            6.4573     0.7326    10.1072 C.ar    
  27 C27            5.6001     0.6474     9.0290 C.ar    
  28 H28            0.4240    -3.0908     1.2642 H       
  29 H29           -1.2010    -3.8109     1.3590 H       
  30 H30           -0.9899    -2.0577     1.5832 H       
  31 H31           -1.7825    -1.1125     4.2164 H       
  32 H32           -2.4630     1.2289     3.8843 H       
  33 H33            2.9188    -0.4418     2.5067 H       
  34 H34            1.5318    -2.2663     4.4233 H       
  35 H35            1.9154     0.5856     5.8146 H       
  36 H36            3.4352     0.7508     7.7403 H       
  37 H37            6.7083    -0.4680     5.2571 H       
  38 H38            7.8243    -0.3470     6.6707 H       
  39 H39            9.3389    -0.1787     8.6020 H       
  40 H40            8.4680     0.5109    10.7971 H       
  41 H41            6.0800     1.0344    11.0732 H       
  42 H42            4.5521     0.8779     9.1514 H       
@<TRIPOS>BOND
   1    1   20 1
   2    1   28 1
   3    1   29 1
   4    1   30 1
   5    2   23 ar
   6    2   15 1
   7    2   27 ar
   8    3    4 1
   9    4    5 ar
  10    4    9 ar
  11    5    6 ar
  12    5   10 1
  13    6    7 ar
  14    6   11 1
  15    7    8 ar
  16    7   31 1
  17    8    9 ar
  18    8   32 1
  19    9   19 1
  20   10   12 1
  21   10   33 1
  22   11   20 am
  23   11   34 1
  24   12   13 ar
  25   12   17 ar
  26   13   14 ar
  27   13   35 1
  28   14   15 ar
  29   14   36 1
  30   15   16 ar
  31   16   17 ar
  32   16   37 1
  33   17   18 1
  34   20   21 2
  35   20   22 2
  36   23   24 ar
  37   23   38 1
  38   24   25 ar
  39   24   39 1
  40   25   26 ar
  41   25   40 1
  42   26   27 ar
  43   26   41 1
  44   27   42 1

#	End of record

