#	Name: ASD02039281
#	Creating user name:	WinNT
#	Creation time:	15. 06. 2019 20:18

#	Modifying user name:	WinNT
#	Modification time:	15. 06. 2019 20:18

#	Program:	/corina/corina34_cracker 3.40 0067  02.08.2006

@<TRIPOS>MOLECULE
ASD02039281
  51   54    0    0    0
SMALL
NO_CHARGES


@<TRIPOS>ATOM
   1 C1             0.1356     1.1847    -0.3169 C.ar    
   2 C2             0.5173    -0.0933     0.0493 C.ar    
   3 C3            -0.3871    -1.1375    -0.0189 C.ar    
   4 C4            -1.6787    -0.9085    -0.4545 C.ar    
   5 C5            -2.0683     0.3797    -0.8251 C.ar    
   6 C6            -1.1533     1.4272    -0.7478 C.ar    
   7 C7            -3.4527     0.6331    -1.2941 C.ar    
   8 C8            -4.0106    -0.1684    -2.2881 C.ar    
   9 C9            -5.3018     0.0700    -2.7232 C.ar    
  10 C10           -6.0425     1.1113    -2.1667 C.ar    
  11 C11           -5.4853     1.9080    -1.1777 C.ar    
  12 C12           -4.1995     1.6696    -0.7373 C.ar    
  13 C13            1.1276     2.3165    -0.2395 C.3     
  14 N14            1.9438     2.3345    -1.4559 N.am    
  15 C15            1.4504     3.0089    -2.6592 C.3     
  16 C16            3.1487     1.7307    -1.4680 C.2     
  17 C17            3.6002     0.9640    -0.2938 C.2     
  18 C18            4.7330     0.2084    -0.2109 C.2     
  19 C19            2.4334     4.1080    -3.0673 C.3     
  20 N20            2.9678     0.8855     0.9049 N.2     
  21 C21            3.6604     0.1190     1.6969 C.2     
  22 N22            4.7634    -0.3188     1.0356 N.pl3   
  23 O23            3.8633     1.8187    -2.4482 O.2     
  24 C24            5.7993    -1.2035     1.5744 C.3     
  25 F25           -2.5617    -1.9287    -0.5218 F       
  26 C26            1.3204     1.9932    -3.7961 C.3     
  27 O27           -6.0679    -0.5557    -3.6643 O.3     
  28 C28           -7.4216    -0.1491    -3.3901 C.3     
  29 O29           -7.2718     1.1368    -2.7600 O.3     
  30 H30            1.5258    -0.2766     0.3895 H       
  31 H31           -0.0835    -2.1333     0.2684 H       
  32 H32           -1.4492     2.4259    -1.0332 H       
  33 H33           -3.4353    -0.9747    -2.7187 H       
  34 H34           -6.0610     2.7143    -0.7478 H       
  35 H35           -3.7689     2.2918     0.0333 H       
  36 H36            0.5934     3.2621    -0.1464 H       
  37 H37            1.7719     2.1762     0.6284 H       
  38 H38            0.4756     3.4512    -2.4539 H       
  39 H39            5.4652     0.0591    -0.9907 H       
  40 H40            3.4241     3.6756    -3.2078 H       
  41 H41            2.1010     4.5651    -3.9993 H       
  42 H42            2.4756     4.8664    -2.2855 H       
  43 H43            3.4017    -0.1267     2.7162 H       
  44 H44            5.5312    -2.2409     1.3746 H       
  45 H45            6.7538    -0.9769     1.0992 H       
  46 H46            5.8839    -1.0508     2.6504 H       
  47 H47            0.5860     1.2351    -3.5237 H       
  48 H48            0.9969     2.5030    -4.7035 H       
  49 H49            2.2856     1.5179    -3.9708 H       
  50 H50           -7.9892    -0.0580    -4.3162 H       
  51 H51           -7.9033    -0.8538    -2.7123 H       
@<TRIPOS>BOND
   1    1    2 ar
   2    1   13 1
   3    1    6 ar
   4    2    3 ar
   5    2   30 1
   6    3    4 ar
   7    3   31 1
   8    4    5 ar
   9    4   25 1
  10    5    6 ar
  11    5    7 1
  12    6   32 1
  13    7    8 ar
  14    7   12 ar
  15    8    9 ar
  16    8   33 1
  17    9   10 ar
  18    9   27 1
  19   10   11 ar
  20   10   29 1
  21   11   12 ar
  22   11   34 1
  23   12   35 1
  24   13   14 1
  25   13   36 1
  26   13   37 1
  27   14   15 1
  28   14   16 am
  29   15   26 1
  30   15   19 1
  31   15   38 1
  32   16   17 1
  33   16   23 2
  34   17   18 2
  35   17   20 1
  36   18   22 1
  37   18   39 1
  38   19   40 1
  39   19   41 1
  40   19   42 1
  41   20   21 2
  42   21   22 1
  43   21   43 1
  44   22   24 1
  45   24   44 1
  46   24   45 1
  47   24   46 1
  48   26   47 1
  49   26   48 1
  50   26   49 1
  51   27   28 1
  52   28   29 1
  53   28   50 1
  54   28   51 1

#	End of record

