#	Name: ASD01150819
#	Creating user name:	WinNT
#	Creation time:	15. 06. 2019 19:05

#	Modifying user name:	WinNT
#	Modification time:	15. 06. 2019 19:05

#	Program:	/corina/corina34_cracker 3.40 0067  02.08.2006

@<TRIPOS>MOLECULE
ASD01150819
  65   67    0    0    0
SMALL
NO_CHARGES


@<TRIPOS>ATOM
   1 N1            -0.2421     1.8931     0.4354 N.3     
   2 C2            -0.3355     0.5004     0.3255 C.3     
   3 C3             0.4205    -0.2224     1.4586 C.3     
   4 N4             1.8333    -0.2223     1.1517 N.3     
   5 C5             2.5788     0.9013     1.7632 C.3     
   6 C6             1.8109     2.2302     1.6798 C.3     
   7 C7             1.1390     2.4142     0.3424 C.3     
   8 C8             2.4472    -1.5114     1.4973 C.3     
   9 C9             5.5087    -0.8788    -0.4435 C.ar    
  10 N10            4.2514    -0.8786    -0.0477 N.ar    
  11 C11            3.8869    -1.5176     1.0522 C.ar    
  12 C12            4.8473    -2.1924     1.7896 C.ar    
  13 C13            6.1584    -2.1698     1.3415 C.ar    
  14 N14            6.4483    -1.5092     0.2320 N.ar    
  15 C15            7.2397    -2.8874     2.1077 C.3     
  16 S16            2.3684    -1.7565     3.2930 S.3     
  17 C17            1.5671    -4.3421     2.9004 C.3     
  18 C18            1.0736    -3.0135     3.4769 C.3     
  19 C19            0.7434    -3.1924     4.9601 C.3     
  20 C20            0.1333    -1.9000     5.5062 C.3     
  21 C21           -0.1969    -2.0789     6.9894 C.3     
  22 C22           -0.8070    -0.7864     7.5355 C.3     
  23 C23           -1.1221     2.5579    -0.5351 C.3     
  24 C24           -1.1843     4.0322    -0.2291 C.ar    
  25 C25           -0.2755     4.8975    -0.8091 C.ar    
  26 C26           -0.3326     6.2498    -0.5284 C.ar    
  27 C27           -1.2987     6.7370     0.3319 C.ar    
  28 C28           -2.2080     5.8719     0.9113 C.ar    
  29 C29           -2.1536     4.5201     0.6272 C.ar    
  30 H30           -1.3861     0.2121     0.3606 H       
  31 H31            0.0830     0.1919    -0.6325 H       
  32 H32            0.2514     0.2987     2.4009 H       
  33 H33            0.0641    -1.2495     1.5381 H       
  34 H34            2.7696     0.6694     2.8109 H       
  35 H35            3.5334     1.0127     1.2489 H       
  36 H36            1.0529     2.2508     2.4627 H       
  37 H37            2.5077     3.0525     1.8421 H       
  38 H38            1.6875     1.8636    -0.4219 H       
  39 H39            1.1143     3.4738     0.0877 H       
  40 H40            1.9086    -2.3161     0.9968 H       
  41 H41            5.7751    -0.3521    -1.3479 H       
  42 H42            4.5802    -2.7226     2.6917 H       
  43 H43            7.3268    -3.9103     1.7415 H       
  44 H44            8.1886    -2.3695     1.9682 H       
  45 H45            6.9858    -2.9013     3.1676 H       
  46 H46            1.8801    -4.1957     1.8666 H       
  47 H47            2.4115    -4.7019     3.4882 H       
  48 H48            0.7612    -5.0752     2.9357 H       
  49 H49            0.1792    -2.6950     2.9414 H       
  50 H50            0.0307    -4.0087     5.0778 H       
  51 H51            1.6555    -3.4243     5.5100 H       
  52 H52            0.8460    -1.0837     5.3885 H       
  53 H53           -0.7788    -1.6681     4.9563 H       
  54 H54           -0.9096    -2.8952     7.1071 H       
  55 H55            0.7152    -2.3108     7.5393 H       
  56 H56           -0.0944     0.0299     7.4179 H       
  57 H57           -1.7192    -0.5545     6.9857 H       
  58 H58           -1.0423    -0.9139     8.5922 H       
  59 H59           -0.7292     2.4119    -1.5413 H       
  60 H60           -2.1228     2.1308    -0.4702 H       
  61 H61            0.4792     4.5169    -1.4813 H       
  62 H62            0.3778     6.9257    -0.9811 H       
  63 H63           -1.3428     7.7934     0.5518 H       
  64 H64           -2.9625     6.2524     1.5837 H       
  65 H65           -2.8664     3.8447     1.0769 H       
@<TRIPOS>BOND
   1    1    2 1
   2    1    7 1
   3    1   23 1
   4    2    3 1
   5    2   30 1
   6    2   31 1
   7    3    4 1
   8    3   32 1
   9    3   33 1
  10    4    5 1
  11    4    8 1
  12    5    6 1
  13    5   34 1
  14    5   35 1
  15    6    7 1
  16    6   36 1
  17    6   37 1
  18    7   38 1
  19    7   39 1
  20    8   11 1
  21    8   16 1
  22    8   40 1
  23    9   10 ar
  24    9   14 ar
  25    9   41 1
  26   10   11 ar
  27   11   12 ar
  28   12   13 ar
  29   12   42 1
  30   13   14 ar
  31   13   15 1
  32   15   43 1
  33   15   44 1
  34   15   45 1
  35   16   18 1
  36   17   18 1
  37   17   46 1
  38   17   47 1
  39   17   48 1
  40   18   19 1
  41   18   49 1
  42   19   20 1
  43   19   50 1
  44   19   51 1
  45   20   21 1
  46   20   52 1
  47   20   53 1
  48   21   22 1
  49   21   54 1
  50   21   55 1
  51   22   56 1
  52   22   57 1
  53   22   58 1
  54   23   24 1
  55   23   59 1
  56   23   60 1
  57   24   25 ar
  58   24   29 ar
  59   25   26 ar
  60   25   61 1
  61   26   27 ar
  62   26   62 1
  63   27   28 ar
  64   27   63 1
  65   28   29 ar
  66   28   64 1
  67   29   65 1

#	End of record

