#	Name: ASD07030037
#	Creating user name:	WinNT
#	Creation time:	15. 06. 2019 21:08

#	Modifying user name:	WinNT
#	Modification time:	15. 06. 2019 21:08

#	Program:	/corina/corina34_cracker 3.40 0067  02.08.2006

@<TRIPOS>MOLECULE
ASD07030037
  50   52    0    0    0
SMALL
NO_CHARGES


@<TRIPOS>ATOM
   1 C1            -0.0167     1.3831     0.0096 C.ar    
   2 C2             0.0021    -0.0041     0.0020 C.ar    
   3 C3             1.2141    -0.6789    -0.0132 C.ar    
   4 C4             2.3989     0.0314    -0.0207 C.ar    
   5 C5             2.3774     1.4139    -0.0126 C.ar    
   6 C6             1.1708     2.0889     0.0021 C.ar    
   7 C7             3.6714     2.1863    -0.0198 C.3     
   8 C8             3.9196     3.1378    -1.1920 C.3     
   9 C9             3.5921     3.6994     0.1930 C.3     
  10 N10            2.8812     3.2282    -2.2214 N.am    
  11 C11            3.2041     3.6120    -3.4724 C.2     
  12 O12            2.2498     3.6951    -4.4185 O.3     
  13 O13            4.3565     3.8831    -3.7464 O.2     
  14 C14            2.6699     4.1151    -5.7434 C.3     
  15 C15            3.7036     3.1272    -6.2878 C.3     
  16 C16            1.4573     4.1499    -6.6758 C.3     
  17 C17            3.2915     5.5109    -5.6628 C.3     
  18 O18           -1.1648    -0.7006     0.0099 O.3     
  19 C19           -2.4533    -2.7227     0.0118 C.ar    
  20 C20           -3.0999    -2.9897    -1.1804 C.ar    
  21 C21           -4.3671    -3.5419    -1.1708 C.ar    
  22 C22           -4.9875    -3.8275     0.0310 C.ar    
  23 C23           -4.3405    -3.5613     1.2233 C.ar    
  24 C24           -3.0739    -3.0078     1.2137 C.ar    
  25 C25           -1.0693    -2.1264     0.0013 C.3     
  26 H26           -0.9590     1.9108     0.0170 H       
  27 H27            1.2314    -1.7588    -0.0188 H       
  28 H28            3.3426    -0.4935    -0.0325 H       
  29 H29            1.1567     3.1688     0.0084 H       
  30 H30            4.5331     1.6638     0.3955 H       
  31 H31            4.9448     3.2415    -1.5476 H       
  32 H32            2.6040     4.1361     0.3382 H       
  33 H33            4.4017     4.1726     0.7486 H       
  34 H34            1.9613     3.0118    -2.0027 H       
  35 H35            3.2608     2.1328    -6.3452 H       
  36 H36            4.0190     3.4425    -7.2824 H       
  37 H37            4.5675     3.1024    -5.6236 H       
  38 H38            0.7209     4.8538    -6.2880 H       
  39 H39            1.7727     4.4653    -7.6704 H       
  40 H40            1.0145     3.1556    -6.7332 H       
  41 H41            4.1553     5.4861    -4.9986 H       
  42 H42            3.6068     5.8262    -6.6574 H       
  43 H43            2.5550     6.2147    -5.2750 H       
  44 H44           -2.6152    -2.7666    -2.1194 H       
  45 H45           -4.8726    -3.7499    -2.1023 H       
  46 H46           -5.9779    -4.2583     0.0385 H       
  47 H47           -4.8255    -3.7838     2.1622 H       
  48 H48           -2.5687    -2.7991     2.1451 H       
  49 H49           -0.5412    -2.4498    -0.8957 H       
  50 H50           -0.5235    -2.4593     0.8841 H       
@<TRIPOS>BOND
   1    1    2 ar
   2    1    6 ar
   3    1   26 1
   4    2    3 ar
   5    2   18 1
   6    3    4 ar
   7    3   27 1
   8    4    5 ar
   9    4   28 1
  10    5    6 ar
  11    5    7 1
  12    6   29 1
  13    7    8 1
  14    7    9 1
  15    7   30 1
  16    8    9 1
  17    8   10 1
  18    8   31 1
  19    9   32 1
  20    9   33 1
  21   10   11 am
  22   10   34 1
  23   11   12 1
  24   11   13 2
  25   12   14 1
  26   14   15 1
  27   14   16 1
  28   14   17 1
  29   15   35 1
  30   15   36 1
  31   15   37 1
  32   16   38 1
  33   16   39 1
  34   16   40 1
  35   17   41 1
  36   17   42 1
  37   17   43 1
  38   18   25 1
  39   19   20 ar
  40   19   24 ar
  41   19   25 1
  42   20   21 ar
  43   20   44 1
  44   21   22 ar
  45   21   45 1
  46   22   23 ar
  47   22   46 1
  48   23   24 ar
  49   23   47 1
  50   24   48 1
  51   25   49 1
  52   25   50 1

#	End of record

