#	Name: ASD01901445
#	Creating user name:	WinNT
#	Creation time:	15. 06. 2019 19:53

#	Modifying user name:	WinNT
#	Modification time:	15. 06. 2019 19:53

#	Program:	/corina/corina34_cracker 3.40 0067  02.08.2006

@<TRIPOS>MOLECULE
ASD01901445
  38   41    0    0    0
SMALL
NO_CHARGES


@<TRIPOS>ATOM
   1 C1            -0.0168     1.3910     0.0097 C.ar    
   2 C2             1.1652     2.0960     0.0022 C.ar    
   3 C3             2.3850     1.4136    -0.0131 C.ar    
   4 C4             2.4025     0.0159    -0.0207 C.ar    
   5 C5             1.2189    -0.6865    -0.0132 C.ar    
   6 C6             0.0021    -0.0041     0.0020 C.ar    
   7 C7            -1.2721    -0.7621     0.0106 C.2     
   8 N8            -3.2674    -1.3595     1.1229 N.2     
   9 C9            -2.1426    -0.6875     1.1205 C.2     
  10 C10           -1.6242    -1.5392    -1.0587 C.2     
  11 N11           -2.8023    -2.2229    -1.0181 N.pl3   
  12 C12           -3.6176    -2.1287     0.0807 C.2     
  13 C13           -3.4177    -3.0624    -1.9075 C.2     
  14 C14           -4.5780    -3.4573    -1.3421 C.2     
  15 N15           -4.6835    -2.8848    -0.1391 N.2     
  16 C16           -5.5862    -4.3893    -1.9635 C.3     
  17 O17           -5.1262    -4.7969    -3.2536 O.3     
  18 C18           -5.9233    -5.6436    -3.9526 C.ar    
  19 C19           -5.5277    -6.0798    -5.2103 C.ar    
  20 N20           -7.0673    -6.0500    -3.4273 N.ar    
  21 C21           -7.8718    -6.8728    -4.0726 C.ar    
  22 C22           -7.5444    -7.3420    -5.3293 C.ar    
  23 C23           -6.3500    -6.9436    -5.9130 C.ar    
  24 C24            3.6157     2.1457    -0.0214 C.1     
  25 N25            4.5920     2.7265    -0.0279 N.1     
  26 H26           -0.9594     1.9179     0.0260 H       
  27 H27            1.1502     3.1758     0.0077 H       
  28 H28            3.3443    -0.5126    -0.0329 H       
  29 H29            1.2321    -1.7664    -0.0194 H       
  30 H30           -1.8799    -0.0748     1.9702 H       
  31 H31           -0.9787    -1.6096    -1.9217 H       
  32 H32           -3.0451    -3.3537    -2.8784 H       
  33 H33           -5.7102    -5.2663    -1.3282 H       
  34 H34           -6.5422    -3.8755    -2.0642 H       
  35 H35           -4.5911    -5.7493    -5.6345 H       
  36 H36           -8.7979    -7.1835    -3.6119 H       
  37 H37           -8.2087    -8.0153    -5.8507 H       
  38 H38           -6.0683    -7.2995    -6.8930 H       
@<TRIPOS>BOND
   1    1    6 ar
   2    1    2 ar
   3    1   26 1
   4    2    3 ar
   5    2   27 1
   6    3    4 ar
   7    3   24 1
   8    4    5 ar
   9    4   28 1
  10    5    6 ar
  11    5   29 1
  12    6    7 1
  13    7   10 2
  14    7    9 1
  15    8    9 2
  16    8   12 1
  17    9   30 1
  18   10   11 1
  19   10   31 1
  20   11   13 1
  21   11   12 1
  22   12   15 2
  23   13   14 2
  24   13   32 1
  25   14   15 1
  26   14   16 1
  27   16   17 1
  28   16   33 1
  29   16   34 1
  30   17   18 1
  31   18   20 ar
  32   18   19 ar
  33   19   23 ar
  34   19   35 1
  35   20   21 ar
  36   21   22 ar
  37   21   36 1
  38   22   23 ar
  39   22   37 1
  40   23   38 1
  41   24   25 3

#	End of record

