#	Name: ASD01814880
#	Creating user name:	WinNT
#	Creation time:	15. 06. 2019 19:33

#	Modifying user name:	WinNT
#	Modification time:	15. 06. 2019 19:33

#	Program:	/corina/corina34_cracker 3.40 0067  02.08.2006

@<TRIPOS>MOLECULE
ASD01814880
  55   58    0    0    0
SMALL
NO_CHARGES


@<TRIPOS>ATOM
   1 C1             0.0627     1.3499     0.2037 C.2     
   2 C2             0.0606    -0.0499     0.1370 C.2     
   3 C3             1.2471    -0.7221     0.0989 C.2     
   4 C4             2.4514     0.0007     0.1271 C.2     
   5 N5             2.4239     1.3673     0.1927 N.am    
   6 C6             1.2320     2.0283     0.2299 C.2     
   7 C7             3.6721    -0.6877     0.0881 C.2     
   8 C8             4.8477     0.0048     0.1155 C.2     
   9 C9             4.8157     1.4101     0.1824 C.2     
  10 C10            3.5722     2.0734     0.2207 C.2     
  11 O11            3.5351     3.2910     0.2783 O.2     
  12 C12            6.0631     2.1768     0.2133 C.2     
  13 O13            6.0256     3.5237     0.2775 O.3     
  14 O14            7.1331     1.5990     0.1812 O.2     
  15 C15            3.6860    -2.1929     0.0165 C.3     
  16 N16            3.8042    -2.6154    -1.3854 N.3     
  17 C17            4.0588    -4.0596    -1.4806 C.3     
  18 C18            4.0960    -4.4723    -2.9539 C.3     
  19 N19            5.1429    -3.7091    -3.6475 N.3     
  20 C20            4.8883    -2.2649    -3.5524 C.3     
  21 C21            4.8511    -1.8521    -2.0790 C.3     
  22 H22            5.0160    -4.2917    -1.0137 H       
  23 C23            5.2554    -4.1115    -4.9831 C.ar    
  24 C24            6.4859    -4.5125    -5.4864 C.ar    
  25 C25            4.1356    -4.1156    -5.8041 C.ar    
  26 C26            4.2475    -4.5134    -7.1220 C.ar    
  27 C27            5.4779    -4.9092    -7.6252 C.ar    
  28 C28            6.5960    -4.9100    -6.8045 C.ar    
  29 C29            4.4013    -5.9680    -3.0575 C.3     
  30 H30            3.1298    -4.2654    -3.4141 H       
  31 O31            5.5870    -5.3016    -8.9228 O.3     
  32 C32            6.8841    -5.6963    -9.3744 C.3     
  33 H33           -0.8729     1.8889     0.2296 H       
  34 H34           -0.8731    -0.5923     0.1164 H       
  35 H35            1.2605    -1.8008     0.0478 H       
  36 H36            1.2218     3.1071     0.2816 H       
  37 H37            5.7915    -0.5195     0.0864 H       
  38 H38            6.8747     3.9861     0.2958 H       
  39 H39            4.5342    -2.5758     0.5841 H       
  40 H40            2.7603    -2.5853     0.4375 H       
  41 H41            3.2637    -4.6034    -0.9706 H       
  42 H42            5.6834    -1.7211    -4.0624 H       
  43 H43            3.9311    -2.0328    -4.0193 H       
  44 H44            4.6336    -0.7866    -2.0052 H       
  45 H45            5.8173    -2.0591    -1.6189 H       
  46 H46            7.3566    -4.5132    -4.8475 H       
  47 H47            3.1773    -3.8081    -5.4122 H       
  48 H48            3.3766    -4.5166    -7.7607 H       
  49 H49            7.5537    -5.2184    -7.1972 H       
  50 H50            3.6818    -6.5279    -2.4600 H       
  51 H51            4.3311    -6.2819    -4.0990 H       
  52 H52            5.4084    -6.1597    -2.6873 H       
  53 H53            6.8311    -5.9848   -10.4241 H       
  54 H54            7.5774    -4.8629    -9.2611 H       
  55 H55            7.2330    -6.5423    -8.7822 H       
@<TRIPOS>BOND
   1    1    2 1
   2    1    6 2
   3    1   33 1
   4    2    3 2
   5    2   34 1
   6    3    4 1
   7    3   35 1
   8    4    5 1
   9    4    7 2
  10    5    6 1
  11    5   10 am
  12    6   36 1
  13    7   15 1
  14    7    8 1
  15    8    9 2
  16    8   37 1
  17    9   10 1
  18    9   12 1
  19   10   11 2
  20   12   13 1
  21   12   14 2
  22   13   38 1
  23   15   16 1
  24   15   39 1
  25   15   40 1
  26   16   17 1
  27   16   21 1
  28   17   18 1
  29   17   22 1
  30   17   41 1
  31   18   19 1
  32   18   29 1
  33   18   30 1
  34   19   20 1
  35   19   23 1
  36   20   21 1
  37   20   42 1
  38   20   43 1
  39   21   44 1
  40   21   45 1
  41   23   24 ar
  42   23   25 ar
  43   24   28 ar
  44   24   46 1
  45   25   26 ar
  46   25   47 1
  47   26   27 ar
  48   26   48 1
  49   27   28 ar
  50   27   31 1
  51   28   49 1
  52   29   50 1
  53   29   51 1
  54   29   52 1
  55   31   32 1
  56   32   53 1
  57   32   54 1
  58   32   55 1

#	End of record

