#	Name: ASD03730960
#	Creating user name:	WinNT
#	Creation time:	15. 06. 2019 20:45

#	Modifying user name:	WinNT
#	Modification time:	15. 06. 2019 20:45

#	Program:	/corina/corina34_cracker 3.40 0067  02.08.2006

@<TRIPOS>MOLECULE
ASD03730960
  65   71    0    0    0
SMALL
NO_CHARGES


@<TRIPOS>ATOM
   1 C1            -0.0180     1.4742     0.0101 C.2     
   2 C2             0.0021    -0.0041     0.0020 C.ar    
   3 C3             1.2186    -0.6886    -0.0133 C.ar    
   4 C4             1.2303    -2.0679    -0.0203 C.ar    
   5 C5             0.0396    -2.7730    -0.0127 C.ar    
   6 C6            -1.1694    -2.1008     0.0024 C.ar    
   7 C7            -1.1950    -0.7213     0.0154 C.ar    
   8 O8             1.0263     2.0963     0.0035 O.2     
   9 N9            -1.1942     2.1322     0.0193 N.am    
  10 C10            2.5426    -2.8085    -0.0368 C.3     
  11 O11           -0.8950    -3.3222     6.2568 O.3     
  12 C12           -0.9357    -3.5767     7.6734 C.3     
  13 O13           -0.0305    -4.6825     7.8486 O.3     
  14 C14            0.8672    -4.5864     6.8240 C.ar    
  15 C15            0.3345    -3.7506     5.8451 C.ar    
  16 C16            2.1164    -5.1528     6.6449 C.ar    
  17 C17            2.8483    -4.8954     5.4896 C.ar    
  18 C18            2.3022    -4.0656     4.5151 C.ar    
  19 C19            1.0594    -3.4944     4.6934 C.ar    
  20 O20            4.0884    -5.3328     5.1276 O.3     
  21 C21            3.3036    -4.0052     3.3929 C.3     
  22 C22            4.2536    -5.1693     3.7058 C.3     
  23 N23            2.9813    -3.0555     1.3390 N.am    
  24 C24            2.6574    -4.1565     2.0459 C.2     
  25 C25            4.0258    -2.6916     3.3422 C.ar    
  26 C26            4.7978    -1.9949     4.2449 C.ar    
  27 C27            5.3433    -0.7733     3.8926 C.ar    
  28 C28            5.1110    -0.2535     2.6322 C.ar    
  29 C29            4.3376    -0.9471     1.7248 C.ar    
  30 C30            3.7848    -2.1777     2.0707 C.ar    
  31 O31            1.9775    -5.0871     1.6680 O.2     
  32 C32           -1.2141     3.5970     0.0274 C.3     
  33 C33           -2.6415     4.0800     0.0368 C.ar    
  34 C34           -3.2906     4.2950     1.2382 C.ar    
  35 C35           -4.6000     4.7380     1.2468 C.ar    
  36 C36           -5.2602     4.9664     0.0540 C.ar    
  37 C37           -4.6109     4.7522    -1.1474 C.ar    
  38 C38           -3.3001     4.3134    -1.1560 C.ar    
  39 C39           -6.6881     5.4483     0.0634 C.3     
  40 H40            2.1485    -0.1394    -0.0199 H       
  41 H41            0.0543    -3.8529    -0.0190 H       
  42 H42           -2.0951    -2.6570     0.0083 H       
  43 H43           -2.1395    -0.1977     0.0314 H       
  44 H44           -2.0276     1.6358     0.0206 H       
  45 H45            2.4166    -3.7596    -0.5542 H       
  46 H46            3.2914    -2.2095    -0.5550 H       
  47 H47           -0.5884    -2.7057     8.2291 H       
  48 H48           -1.9432    -3.8536     7.9839 H       
  49 H49            2.5266    -5.7991     7.4068 H       
  50 H50            0.6506    -2.8459     3.9327 H       
  51 H51            5.2829    -4.9048     3.4636 H       
  52 H52            3.9491    -6.0710     3.1745 H       
  53 H53            4.9778    -2.4026     5.2287 H       
  54 H54            5.9496    -0.2270     4.6001 H       
  55 H55            5.5367     0.7002     2.3573 H       
  56 H56            4.1602    -0.5344     0.7427 H       
  57 H57           -0.7010     3.9625     0.9169 H       
  58 H58           -0.7094     3.9721    -0.8630 H       
  59 H59           -2.7747     4.1165     2.1701 H       
  60 H60           -5.1073     4.9053     2.1854 H       
  61 H61           -5.1269     4.9304    -2.0794 H       
  62 H62           -2.7916     4.1496    -2.0946 H       
  63 H63           -6.7036     6.5382     0.0701 H       
  64 H64           -7.2007     5.0832    -0.8266 H       
  65 H65           -7.1926     5.0723     0.9534 H       
@<TRIPOS>BOND
   1    1    2 1
   2    1    8 2
   3    1    9 am
   4    2    3 ar
   5    2    7 ar
   6    3    4 ar
   7    3   40 1
   8    4    5 ar
   9    4   10 1
  10    5    6 ar
  11    5   41 1
  12    6    7 ar
  13    6   42 1
  14    7   43 1
  15    9   32 1
  16    9   44 1
  17   10   23 1
  18   10   45 1
  19   10   46 1
  20   11   12 1
  21   11   15 1
  22   12   13 1
  23   12   47 1
  24   12   48 1
  25   13   14 1
  26   14   15 ar
  27   14   16 ar
  28   15   19 ar
  29   16   17 ar
  30   16   49 1
  31   17   18 ar
  32   17   20 1
  33   18   19 ar
  34   18   21 1
  35   19   50 1
  36   20   22 1
  37   21   22 1
  38   21   24 1
  39   21   25 1
  40   22   51 1
  41   22   52 1
  42   23   24 am
  43   23   30 1
  44   24   31 2
  45   25   26 ar
  46   25   30 ar
  47   26   27 ar
  48   26   53 1
  49   27   28 ar
  50   27   54 1
  51   28   29 ar
  52   28   55 1
  53   29   30 ar
  54   29   56 1
  55   32   33 1
  56   32   57 1
  57   32   58 1
  58   33   34 ar
  59   33   38 ar
  60   34   35 ar
  61   34   59 1
  62   35   36 ar
  63   35   60 1
  64   36   37 ar
  65   36   39 1
  66   37   38 ar
  67   37   61 1
  68   38   62 1
  69   39   63 1
  70   39   64 1
  71   39   65 1

#	End of record

