#	Name: ASD02230009
#	Creating user name:	WinNT
#	Creation time:	15. 06. 2019 20:20

#	Modifying user name:	WinNT
#	Modification time:	15. 06. 2019 20:20

#	Program:	/corina/corina34_cracker 3.40 0067  02.08.2006

@<TRIPOS>MOLECULE
ASD02230009
  40   40    0    0    0
SMALL
NO_CHARGES


@<TRIPOS>ATOM
   1 C1            -0.0961     1.2656     0.2377 C.2     
   2 C2             0.1394    -0.1836     0.0924 C.2     
   3 C3             1.3968    -0.6487    -0.1305 C.2     
   4 C4             2.5262     0.2955    -0.2276 C.2     
   5 C5             2.2906     1.7448    -0.0833 C.2     
   6 C6             1.0334     2.2098     0.1410 C.2     
   7 S7            -1.2094    -1.3114     0.2084 S.3     
   8 S8             1.6783    -2.3796    -0.3028 S.3     
   9 S9             0.7521     3.9406     0.3140 S.3     
  10 S10            3.6396     2.8724    -0.1982 S.3     
  11 C11            0.2113     4.0957     2.0386 C.3     
  12 C12           -0.1885     5.5225     2.3132 C.2     
  13 O13           -0.7229     5.8534     3.4993 O.3     
  14 O14           -0.0279     6.3687     1.4658 O.2     
  15 C15            4.1694     2.7004    -1.9246 C.3     
  16 C16            5.4085     3.5267    -2.1545 C.2     
  17 O17            6.0424     3.4713    -3.3364 O.3     
  18 O18            5.8314     4.2391    -1.2749 O.2     
  19 C19           -1.7452    -1.1308     1.9320 C.3     
  20 C20           -2.8296    -2.1343     2.2288 C.2     
  21 O21           -3.4536    -2.1165     3.4171 O.3     
  22 O22           -3.1373    -2.9550     1.3971 O.2     
  23 C23            2.2207    -2.5351    -2.0268 C.3     
  24 C24            2.6206    -3.9620    -2.3008 C.2     
  25 O25            3.1561    -4.2931    -3.4863 O.3     
  26 O26            2.4592    -4.8080    -1.4534 O.2     
  27 O27           -1.2217     1.6820     0.4320 O.2     
  28 O28            3.6512    -0.1206    -0.4262 O.2     
  29 H29           -0.6416     3.4396     2.2123 H       
  30 H30            1.0283     3.8131     2.7024 H       
  31 H31           -1.0322     6.7637     3.6028 H       
  32 H32            4.3867     1.6533    -2.1353 H       
  33 H33            3.3742     3.0464    -2.5849 H       
  34 H34            6.7880     4.0738    -3.4633 H       
  35 H35           -0.8982    -1.3041     2.5959 H       
  36 H36           -2.1298    -0.1231     2.0893 H       
  37 H37           -4.0889    -2.8247     3.5900 H       
  38 H38            1.4043    -2.2526    -2.6915 H       
  39 H39            3.0737    -1.8791    -2.2000 H       
  40 H40            3.3276    -5.2317    -3.6438 H       
@<TRIPOS>BOND
   1    1    2 1
   2    1    6 1
   3    1   27 2
   4    2    3 2
   5    2    7 1
   6    3    4 1
   7    3    8 1
   8    4    5 1
   9    4   28 2
  10    5    6 2
  11    5   10 1
  12    6    9 1
  13    7   19 1
  14    8   23 1
  15    9   11 1
  16   10   15 1
  17   11   12 1
  18   11   29 1
  19   11   30 1
  20   12   13 1
  21   12   14 2
  22   13   31 1
  23   15   16 1
  24   15   32 1
  25   15   33 1
  26   16   17 1
  27   16   18 2
  28   17   34 1
  29   19   20 1
  30   19   35 1
  31   19   36 1
  32   20   21 1
  33   20   22 2
  34   21   37 1
  35   23   24 1
  36   23   38 1
  37   23   39 1
  38   24   25 1
  39   24   26 2
  40   25   40 1

#	End of record

