#	Name: ASD03731134
#	Creating user name:	WinNT
#	Creation time:	15. 06. 2019 20:45

#	Modifying user name:	WinNT
#	Modification time:	15. 06. 2019 20:45

#	Program:	/corina/corina34_cracker 3.40 0067  02.08.2006

@<TRIPOS>MOLECULE
ASD03731134
  53   59    0    0    0
SMALL
NO_CHARGES


@<TRIPOS>ATOM
   1 O1            -0.0174     1.4356     0.0099 O.3     
   2 C2             0.0021    -0.0041     0.0020 C.3     
   3 O3             1.2461    -0.3262    -0.6470 O.3     
   4 C4             2.0710     0.7345    -0.4034 C.ar    
   5 C5             1.2935     1.8178    -0.0005 C.ar    
   6 C6             3.4452     0.8649    -0.4936 C.ar    
   7 C7             4.0602     2.0747    -0.1856 C.ar    
   8 C8             3.2723     3.1522     0.2076 C.ar    
   9 C9             1.9024     3.0234     0.3045 C.ar    
  10 O10            5.3831     2.4065    -0.1922 O.3     
  11 C11            4.2098     4.3069     0.4393 C.3     
  12 C12            5.5129     3.8410    -0.2242 C.3     
  13 N13            3.6127     6.4762     0.8417 N.am    
  14 C14            3.6993     5.5834    -0.1645 C.2     
  15 C15            4.3992     4.6044     1.8972 C.ar    
  16 C16            4.8378     3.8614     2.9705 C.ar    
  17 C17            4.9039     4.4334     4.2285 C.ar    
  18 C18            4.5284     5.7527     4.4051 C.ar    
  19 C19            4.0877     6.5009     3.3334 C.ar    
  20 C20            4.0181     5.9334     2.0634 C.ar    
  21 O21            3.4201     5.7739    -1.3293 O.2     
  22 C22            3.1483     7.8554     0.6736 C.3     
  23 O23           -0.1634     8.1013     1.8323 O.3     
  24 N24            1.0379     8.1122     1.9989 N.2     
  25 C25            1.6555     7.9105     0.8725 C.2     
  26 N26            0.7229     7.7611    -0.0811 N.2     
  27 C27           -0.4383     7.8838     0.5369 C.2     
  28 C28           -1.7794     7.7987    -0.0788 C.ar    
  29 C29           -2.9226     7.9509     0.7075 C.ar    
  30 C30           -4.1713     7.8707     0.1265 C.ar    
  31 C31           -4.2919     7.6396    -1.2323 C.ar    
  32 C32           -3.1628     7.4873    -2.0173 C.ar    
  33 C33           -1.9081     7.5714    -1.4499 C.ar    
  34 C34           -5.6592     7.5527    -1.8600 C.3     
  35 F35           -6.0625     8.8258    -2.2771 F       
  36 F36           -5.6122     6.6937    -2.9632 F       
  37 F37           -6.5722     7.0582    -0.9225 F       
  38 H38           -0.0105    -0.3928     1.0203 H       
  39 H39           -0.8401    -0.3953    -0.5687 H       
  40 H40            4.0448     0.0222    -0.8046 H       
  41 H41            1.3032     3.8652     0.6186 H       
  42 H42            6.3787     4.1643     0.3536 H       
  43 H43            5.5749     4.2013    -1.2510 H       
  44 H44            5.1300     2.8312     2.8302 H       
  45 H45            5.2475     3.8510     5.0706 H       
  46 H46            4.5803     6.1993     5.3870 H       
  47 H47            3.7954     7.5303     3.4796 H       
  48 H48            3.6366     8.4954     1.4085 H       
  49 H49            3.3941     8.2017    -0.3303 H       
  50 H50           -2.8298     8.1306     1.7684 H       
  51 H51           -5.0567     7.9883     0.7337 H       
  52 H52           -3.2638     7.3064    -3.0772 H       
  53 H53           -1.0274     7.4572    -2.0645 H       
@<TRIPOS>BOND
   1    1    2 1
   2    1    5 1
   3    2    3 1
   4    2   38 1
   5    2   39 1
   6    3    4 1
   7    4    5 ar
   8    4    6 ar
   9    5    9 ar
  10    6    7 ar
  11    6   40 1
  12    7    8 ar
  13    7   10 1
  14    8    9 ar
  15    8   11 1
  16    9   41 1
  17   10   12 1
  18   11   12 1
  19   11   14 1
  20   11   15 1
  21   12   42 1
  22   12   43 1
  23   13   14 am
  24   13   20 1
  25   13   22 1
  26   14   21 2
  27   15   16 ar
  28   15   20 ar
  29   16   17 ar
  30   16   44 1
  31   17   18 ar
  32   17   45 1
  33   18   19 ar
  34   18   46 1
  35   19   20 ar
  36   19   47 1
  37   22   25 1
  38   22   48 1
  39   22   49 1
  40   23   24 1
  41   23   27 1
  42   24   25 2
  43   25   26 1
  44   26   27 2
  45   27   28 1
  46   28   29 ar
  47   28   33 ar
  48   29   30 ar
  49   29   50 1
  50   30   31 ar
  51   30   51 1
  52   31   32 ar
  53   31   34 1
  54   32   33 ar
  55   32   52 1
  56   33   53 1
  57   34   35 1
  58   34   36 1
  59   34   37 1

#	End of record

