#	Name: ASD00431180
#	Creating user name:	WinNT
#	Creation time:	15. 06. 2019 18:35

#	Modifying user name:	WinNT
#	Modification time:	15. 06. 2019 18:35

#	Program:	/corina/corina34_cracker 3.40 0067  02.08.2006

@<TRIPOS>MOLECULE
ASD00431180
  49   51    0    0    0
SMALL
NO_CHARGES


@<TRIPOS>ATOM
   1 N1            -1.0292     0.9602     1.6506 N.am    
   2 C2            -1.2611    -0.3318     1.9562 C.2     
   3 O3            -0.3316    -1.0716     2.2153 O.2     
   4 N4            -2.5234    -0.8039     1.9747 N.am    
   5 C5             0.3428     1.4732     1.6306 C.3     
   6 C6             0.9735     1.1897     0.2658 C.3     
   7 O7            -0.5553     3.8430     1.3885 O.3     
   8 N8            -0.3166     4.9691     1.7582 N.2     
   9 C9             0.7392     5.0044     2.5333 C.2     
  10 C10            1.1996     3.6617     2.6352 C.2     
  11 C11            0.3269     2.9598     1.8775 C.2     
  12 C12            2.5241     6.1015     3.8920 C.ar    
  13 C13            1.3350     6.2024     3.1746 C.ar    
  14 C14            0.7102     7.4494     3.0668 C.ar    
  15 C15            1.3028     8.5361     3.6805 C.ar    
  16 C16            2.4910     8.3566     4.3795 C.ar    
  17 N17            3.0567     7.1629     4.4626 N.ar    
  18 O18            3.0785     9.4189     4.9840 O.3     
  19 C19            4.4001     9.1289     6.9452 C.ar    
  20 C20            4.2922     9.2305     5.5674 C.ar    
  21 C21            5.4419     9.1370     4.7880 C.ar    
  22 C22            6.6557     8.9448     5.4244 C.ar    
  23 C23            6.6866     8.8523     6.8095 C.ar    
  24 N24            5.5743     8.9457     7.5183 N.ar    
  25 O25            7.8722     8.6633     7.4431 O.3     
  26 C26            7.8391     8.5762     8.8690 C.3     
  27 C27            7.6484     7.1166     9.2865 C.3     
  28 C28            9.1559     9.1030     9.4429 C.3     
  29 H29           -1.7705     1.5493     1.4401 H       
  30 H30           -3.2650    -0.2137     1.7680 H       
  31 H31           -2.6903    -1.7337     2.1946 H       
  32 H32            0.9259     0.9818     2.4095 H       
  33 H33            1.9944     1.5714     0.2509 H       
  34 H34            0.9850     0.1144     0.0872 H       
  35 H35            0.3904     1.6811    -0.5131 H       
  36 H36            2.0490     3.2897     3.1888 H       
  37 H37            3.0124     5.1428     3.9853 H       
  38 H38           -0.2127     7.5600     2.5169 H       
  39 H39            0.8485     9.5139     3.6176 H       
  40 H40            3.5134     9.2049     7.5571 H       
  41 H41            5.3878     9.2123     3.7120 H       
  42 H42            7.5675     8.8674     4.8508 H       
  43 H43            7.0115     9.1742     9.2505 H       
  44 H44            6.7103     6.7413     8.8777 H       
  45 H45            8.4760     6.5186     8.9051 H       
  46 H46            7.6232     7.0502    10.3742 H       
  47 H47            9.2917    10.1428     9.1455 H       
  48 H48            9.1306     9.0365    10.5306 H       
  49 H49            9.9835     8.5049     9.0615 H       
@<TRIPOS>BOND
   1    1    2 am
   2    1    5 1
   3    1   29 1
   4    2    3 2
   5    2    4 am
   6    4   30 1
   7    4   31 1
   8    5    6 1
   9    5   11 1
  10    5   32 1
  11    6   33 1
  12    6   34 1
  13    6   35 1
  14    7    8 1
  15    7   11 1
  16    8    9 2
  17    9   10 1
  18    9   13 1
  19   10   11 2
  20   10   36 1
  21   12   13 ar
  22   12   17 ar
  23   12   37 1
  24   13   14 ar
  25   14   15 ar
  26   14   38 1
  27   15   16 ar
  28   15   39 1
  29   16   17 ar
  30   16   18 1
  31   18   20 1
  32   19   20 ar
  33   19   24 ar
  34   19   40 1
  35   20   21 ar
  36   21   22 ar
  37   21   41 1
  38   22   23 ar
  39   22   42 1
  40   23   24 ar
  41   23   25 1
  42   25   26 1
  43   26   27 1
  44   26   28 1
  45   26   43 1
  46   27   44 1
  47   27   45 1
  48   27   46 1
  49   28   47 1
  50   28   48 1
  51   28   49 1

#	End of record

