#	Name: ASD00431053
#	Creating user name:	WinNT
#	Creation time:	15. 06. 2019 18:35

#	Modifying user name:	WinNT
#	Modification time:	15. 06. 2019 18:35

#	Program:	/corina/corina34_cracker 3.40 0067  02.08.2006

@<TRIPOS>MOLECULE
ASD00431053
  33   34    0    0    0
SMALL
NO_CHARGES


@<TRIPOS>ATOM
   1 C1             0.1926     1.7015     0.4902 C.ar    
   2 C2             0.3340     0.3267     0.6624 C.ar    
   3 C3            -0.7911    -0.4794     0.7238 C.ar    
   4 C4            -2.0502     0.0805     0.6139 C.ar    
   5 C5            -2.1905     1.4452     0.4425 C.ar    
   6 C6            -1.0723     2.2552     0.3768 C.ar    
   7 O7             1.4344     2.2675     0.4612 O.3     
   8 C8             2.3195     1.2818     1.0252 C.3     
   9 O9             1.6644     0.0314     0.7412 O.3     
  10 C10           -5.2906     2.9832     1.7939 C.2     
  11 N11           -4.0572     2.4138     1.6535 N.pl3   
  12 C12           -3.5654     2.0504     0.3222 C.3     
  13 C13           -5.7977     3.2003     3.0264 C.2     
  14 C14           -5.1401     2.6795     4.1621 C.2     
  15 O15           -4.1853     1.9373     4.0254 O.2     
  16 C16           -6.0857     3.3693     0.5733 C.3     
  17 O17           -5.5704     3.0047     5.3993 O.3     
  18 C18           -4.8581     2.4416     6.5028 C.3     
  19 H19           -0.6844    -1.5458     0.8573 H       
  20 H20           -2.9261    -0.5495     0.6616 H       
  21 H21           -1.1849     3.3210     0.2433 H       
  22 H22            3.2953     1.3215     0.5412 H       
  23 H23            2.4183     1.4266     2.1010 H       
  24 H24           -3.5068     2.2499     2.4353 H       
  25 H25           -3.5165     2.9419    -0.3029 H       
  26 H26           -4.2429     1.3261    -0.1301 H       
  27 H27           -6.7062     3.7724     3.1435 H       
  28 H28           -6.7094     2.5300     0.2656 H       
  29 H29           -6.7184     4.2254     0.8076 H       
  30 H30           -5.4044     3.6317    -0.2360 H       
  31 H31           -4.9094     1.3540     6.4513 H       
  32 H32           -3.8160     2.7585     6.4623 H       
  33 H33           -5.3057     2.7827     7.4363 H       
@<TRIPOS>BOND
   1    1    2 ar
   2    1    7 1
   3    1    6 ar
   4    2    3 ar
   5    2    9 1
   6    3    4 ar
   7    3   19 1
   8    4    5 ar
   9    4   20 1
  10    5    6 ar
  11    5   12 1
  12    6   21 1
  13    7    8 1
  14    8    9 1
  15    8   22 1
  16    8   23 1
  17   10   11 1
  18   10   13 2
  19   10   16 1
  20   11   12 1
  21   11   24 1
  22   12   25 1
  23   12   26 1
  24   13   14 1
  25   13   27 1
  26   14   15 2
  27   14   17 1
  28   16   28 1
  29   16   29 1
  30   16   30 1
  31   17   18 1
  32   18   31 1
  33   18   32 1
  34   18   33 1

#	End of record

