#	Name: ASD01870568
#	Creating user name:	WinNT
#	Creation time:	15. 06. 2019 19:39

#	Modifying user name:	WinNT
#	Modification time:	15. 06. 2019 19:39

#	Program:	/corina/corina34_cracker 3.40 0067  02.08.2006

@<TRIPOS>MOLECULE
ASD01870568
  41   44    0    0    0
SMALL
NO_CHARGES


@<TRIPOS>ATOM
   1 C1            -0.0107     1.3944     0.0268 C.ar    
   2 C2             0.0041     0.0062     0.0172 C.ar    
   3 C3             1.2070    -0.6715    -0.0036 C.ar    
   4 C4             2.4025     0.0350    -0.0149 C.ar    
   5 C5             2.3887     1.4241    -0.0049 C.ar    
   6 C6             1.1858     2.1023     0.0155 C.ar    
   7 N7             3.6216    -0.6526    -0.0360 N.am    
   8 C8             4.6704    -0.1442    -0.7128 C.2     
   9 C9             5.9787    -0.8021    -0.6396 C.2     
  10 O10            6.2661    -1.9194     0.0598 O.3     
  11 C11            7.1184    -0.3946    -1.2721 C.2     
  12 C12            8.1228    -1.3111    -0.9237 C.2     
  13 C13            7.5587    -2.2283    -0.1074 C.2     
  14 C14            7.2684     0.8060    -2.1704 C.3     
  15 O15            4.5315     0.8611    -1.3848 O.2     
  16 Cl16           1.1678     3.8381     0.0269 Cl      
  17 N17           -1.2309     2.0817     0.0421 N.am    
  18 C18           -1.9033     2.4588     1.1433 C.2     
  19 C19           -3.1463     3.1595     0.7690 C.ar    
  20 C20           -3.2213     3.2038    -0.6255 C.ar    
  21 C21           -1.9829     2.5143    -1.1413 C.3     
  22 C22           -4.1672     3.7339     1.5283 C.ar    
  23 C23           -5.2356     4.3371     0.8970 C.ar    
  24 C24           -5.3001     4.3748    -0.4844 C.ar    
  25 C25           -4.2898     3.8090    -1.2446 C.ar    
  26 O26           -1.5392     2.2517     2.2846 O.2     
  27 H27           -0.9253    -0.5437     0.0264 H       
  28 H28            1.2181    -1.7514    -0.0107 H       
  29 H29            3.3184     1.9735    -0.0130 H       
  30 H30            3.7116    -1.4949     0.4365 H       
  31 H31            9.1523    -1.2890    -1.2494 H       
  32 H32            8.0659    -3.0727     0.3355 H       
  33 H33            7.5494     1.6736    -1.5734 H       
  34 H34            8.0419     0.6099    -2.9129 H       
  35 H35            6.3223     1.0029    -2.6747 H       
  36 H36           -1.3845     3.2073    -1.7327 H       
  37 H37           -2.2617     1.6503    -1.7444 H       
  38 H38           -4.1210     3.7060     2.6069 H       
  39 H39           -6.0256     4.7815     1.4842 H       
  40 H40           -6.1397     4.8484    -0.9715 H       
  41 H41           -4.3431     3.8399    -2.3229 H       
@<TRIPOS>BOND
   1    1    2 ar
   2    1    6 ar
   3    1   17 1
   4    2    3 ar
   5    2   27 1
   6    3    4 ar
   7    3   28 1
   8    4    5 ar
   9    4    7 1
  10    5    6 ar
  11    5   29 1
  12    6   16 1
  13    7    8 am
  14    7   30 1
  15    8    9 1
  16    8   15 2
  17    9   11 2
  18    9   10 1
  19   10   13 1
  20   11   12 1
  21   11   14 1
  22   12   13 2
  23   12   31 1
  24   13   32 1
  25   14   33 1
  26   14   34 1
  27   14   35 1
  28   17   18 am
  29   17   21 1
  30   18   19 1
  31   18   26 2
  32   19   20 ar
  33   19   22 ar
  34   20   21 1
  35   20   25 ar
  36   21   36 1
  37   21   37 1
  38   22   23 ar
  39   22   38 1
  40   23   24 ar
  41   23   39 1
  42   24   25 ar
  43   24   40 1
  44   25   41 1

#	End of record

