#	Name: ASD05430297
#	Creating user name:	WinNT
#	Creation time:	15. 06. 2019 21:00

#	Modifying user name:	WinNT
#	Modification time:	15. 06. 2019 21:00

#	Program:	/corina/corina34_cracker 3.40 0067  02.08.2006

@<TRIPOS>MOLECULE
ASD05430297
  73   78    0    0    0
SMALL
NO_CHARGES


@<TRIPOS>ATOM
   1 C1             0.0760     1.1351     0.5599 C.ar    
   2 C2             0.0471    -0.0875    -0.1103 C.ar    
   3 C3             1.2002    -0.5860    -0.7028 C.ar    
   4 C4             2.3782     0.1251    -0.6312 C.ar    
   5 C5             2.4147     1.3523     0.0389 C.ar    
   6 C6             1.2539     1.8540     0.6353 C.ar    
   7 C7             4.9375    -0.0476     0.2993 C.3     
   8 C8             4.8504     1.4638     0.1580 C.2     
   9 C9             3.6724     2.1133     0.1169 C.2     
  10 C10            6.0827    -0.3674     1.2691 C.3     
  11 C11            7.4625     0.1639     0.8599 C.3     
  12 N12            7.3329     1.5715     0.4895 N.pl3   
  13 C13            6.1455     2.1739     0.0693 C.2     
  14 C14            8.3507     2.6249     0.4892 C.3     
  15 O15            7.7686     3.6440    -0.3501 O.3     
  16 N16            6.3772     3.3590    -0.3910 N.2     
  17 C17            8.5751     3.1485     1.8844 C.ar    
  18 C18            9.6597     2.1111    -0.1137 C.3     
  19 N19           -1.1483    -0.8152    -0.1857 N.pl3   
  20 C20           -1.7096    -1.3450    -1.3187 C.2     
  21 C21           -2.8461    -1.9602    -0.9398 C.2     
  22 N22           -2.9798    -1.8131     0.3866 N.2     
  23 C23           -1.9664    -1.1337     0.8507 C.2     
  24 C24           -3.8028    -2.6875    -1.8492 C.3     
  25 C25            8.2732     2.3564     2.9761 C.ar    
  26 C26            8.4790     2.8354     4.2562 C.ar    
  27 C27            8.9877     4.1091     4.4446 C.ar    
  28 C28            9.2898     4.9018     3.3500 C.ar    
  29 C29            9.0881     4.4188     2.0712 C.ar    
  30 F30            9.1888     4.5786     5.6954 F       
  31 C31           -0.9533     2.8804     1.8043 C.3     
  32 O32           -1.0558     1.6224     1.1343 O.3     
  33 Si33           9.9757     6.6209     3.6022 Si      
  34 C34           11.8360     6.5439     3.6668 C.3     
  35 C35            9.4482     7.7135     2.1885 C.3     
  36 C36            9.3271     7.3197     5.2027 C.3     
  37 C37            5.7548    -0.4090     2.7611 C.3     
  38 C38            6.0323    -1.7082     2.0017 C.3     
  39 H39            1.1735    -1.5334    -1.2205 H       
  40 H40            3.2735    -0.2652    -1.0922 H       
  41 H41            1.2777     2.8013     1.1534 H       
  42 H42            3.9994    -0.4353     0.6963 H       
  43 H43            5.1411    -0.4974    -0.6724 H       
  44 H44            3.6498     3.1928     0.1410 H       
  45 H45            8.1539     0.0685     1.6972 H       
  46 H46            7.8356    -0.4052     0.0085 H       
  47 H47            9.4852     1.7893    -1.1404 H       
  48 H48           10.4020     2.9093    -0.1043 H       
  49 H49           10.0245     1.2688     0.4741 H       
  50 H50           -1.3163    -1.2809    -2.3224 H       
  51 H51           -1.8084    -0.8644     1.8845 H       
  52 H52           -3.5114    -3.7354    -1.9197 H       
  53 H53           -4.8126    -2.6175    -1.4450 H       
  54 H54           -3.7762    -2.2355    -2.8407 H       
  55 H55            7.8760     1.3629     2.8289 H       
  56 H56            8.2427     2.2165     5.1092 H       
  57 H57            9.3236     5.0368     1.2174 H       
  58 H58           -0.2249     2.8039     2.6115 H       
  59 H59           -0.6320     3.6442     1.0961 H       
  60 H60           -1.9250     3.1527     2.2164 H       
  61 H61           12.2155     6.1350     2.7304 H       
  62 H62           12.2363     7.5470     3.8140 H       
  63 H63           12.1447     5.9046     4.4940 H       
  64 H64            8.3598     7.7586     2.1507 H       
  65 H65            9.8485     8.7167     2.3356 H       
  66 H66            9.8277     7.3047     1.2520 H       
  67 H67            9.6358     6.6805     6.0299 H       
  68 H68            9.7274     8.3229     5.3498 H       
  69 H69            8.2387     7.3648     5.1649 H       
  70 H70            6.5192    -0.0582     3.4544 H       
  71 H71            4.7248    -0.2084     3.0558 H       
  72 H72            5.1847    -2.3623     1.7967 H       
  73 H73            6.9793    -2.2120     2.1953 H       
@<TRIPOS>BOND
   1    1    2 ar
   2    1    6 ar
   3    1   32 1
   4    2    3 ar
   5    2   19 1
   6    3    4 ar
   7    3   39 1
   8    4    5 ar
   9    4   40 1
  10    5    6 ar
  11    5    9 1
  12    6   41 1
  13    7    8 1
  14    7   10 1
  15    7   42 1
  16    7   43 1
  17    8    9 2
  18    8   13 1
  19    9   44 1
  20   10   11 1
  21   10   37 1
  22   10   38 1
  23   11   12 1
  24   11   45 1
  25   11   46 1
  26   12   13 1
  27   12   14 1
  28   13   16 2
  29   14   15 1
  30   14   17 1
  31   14   18 1
  32   15   16 1
  33   17   25 ar
  34   17   29 ar
  35   18   47 1
  36   18   48 1
  37   18   49 1
  38   19   20 1
  39   19   23 1
  40   20   21 2
  41   20   50 1
  42   21   22 1
  43   21   24 1
  44   22   23 2
  45   23   51 1
  46   24   52 1
  47   24   53 1
  48   24   54 1
  49   25   26 ar
  50   25   55 1
  51   26   27 ar
  52   26   56 1
  53   27   28 ar
  54   27   30 1
  55   28   29 ar
  56   28   33 1
  57   29   57 1
  58   31   32 1
  59   31   58 1
  60   31   59 1
  61   31   60 1
  62   33   34 1
  63   33   35 1
  64   33   36 1
  65   34   61 1
  66   34   62 1
  67   34   63 1
  68   35   64 1
  69   35   65 1
  70   35   66 1
  71   36   67 1
  72   36   68 1
  73   36   69 1
  74   37   38 1
  75   37   70 1
  76   37   71 1
  77   38   72 1
  78   38   73 1

#	End of record

