#	Name: ASD00069147
#	Creating user name:	WinNT
#	Creation time:	15. 06. 2019 18:29

#	Modifying user name:	WinNT
#	Modification time:	15. 06. 2019 18:29

#	Program:	/corina/corina34_cracker 3.40 0067  02.08.2006

@<TRIPOS>MOLECULE
ASD00069147
  56   60    0    0    0
SMALL
NO_CHARGES


@<TRIPOS>ATOM
   1 C1            -0.0972     1.1981    -0.5382 C.2     
   2 N2             0.0007    -0.0058    -0.0196 N.2     
   3 C3             1.2451    -0.4623    -0.2084 C.2     
   4 C4             1.9523     0.5003    -0.8739 C.2     
   5 N5             1.1116     1.5384    -1.0795 N.pl3   
   6 C6            -1.3087     2.0381    -0.5412 C.2     
   7 O7            -1.2827     3.1411    -1.0531 O.2     
   8 N8            -2.4452     1.5838     0.0232 N.am    
   9 C9             1.4696    -3.9038     1.2930 C.ar    
  10 C10            0.9453    -2.6881     0.9050 C.ar    
  11 C11            1.7656    -1.7808     0.2284 C.ar    
  12 C12            3.0899    -2.1502    -0.0258 C.ar    
  13 C13            3.5329    -3.3858     0.3973 C.ar    
  14 N14            2.7255    -4.2135     1.0334 N.ar    
  15 C15            0.5978    -4.8886     2.0287 C.3     
  16 C16           -3.5605     2.4244     0.1262 C.ar    
  17 C17           -4.8463     1.8956     0.0209 C.ar    
  18 C18           -5.9478     2.7347     0.1244 C.ar    
  19 C19           -5.7665     4.0913     0.3316 C.ar    
  20 C20           -4.4906     4.6140     0.4353 C.ar    
  21 C21           -3.3890     3.7844     0.3391 C.ar    
  22 C22           -5.8018    -0.0844     0.9120 C.3     
  23 C23           -5.8519    -1.5744     0.6550 C.3     
  24 C24           -6.6377    -1.7929    -0.6682 C.3     
  25 C25           -5.7616    -1.2408    -1.7802 C.3     
  26 C26           -5.5927     0.2644    -1.5137 C.3     
  27 N27           -5.0263     0.5225    -0.1892 N.3     
  28 N28           -6.5424    -2.4206     1.6185 N.3     
  29 C29           -6.7932    -3.3203    -0.6405 C.3     
  30 C30           -7.0831    -3.5822     0.8637 C.3     
  31 F31           -7.1958     2.2274     0.0226 F       
  32 H32            2.9871     0.4422    -1.1774 H       
  33 H33            1.3260     2.3711    -1.5286 H       
  34 H34           -2.4905     0.6745     0.3581 H       
  35 H35           -0.0838    -2.4413     1.1205 H       
  36 H36            3.7560    -1.4780    -0.5462 H       
  37 H37            4.5541    -3.6802     0.2052 H       
  38 H38            0.0966    -5.5374     1.3105 H       
  39 H39            1.2140    -5.4920     2.6953 H       
  40 H40           -0.1476    -4.3486     2.6125 H       
  41 H41           -6.6238     4.7431     0.4120 H       
  42 H42           -4.3543     5.6732     0.5966 H       
  43 H43           -2.3943     4.1960     0.4255 H       
  44 H44           -6.8122     0.3245     0.9238 H       
  45 H45           -5.3098     0.1117     1.8646 H       
  46 H46           -4.8362    -1.9499     0.5309 H       
  47 H47           -7.6036    -1.2885    -0.6438 H       
  48 H48           -4.7889    -1.7324    -1.7662 H       
  49 H49           -6.2439    -1.3958    -2.7453 H       
  50 H50           -4.9321     0.6870    -2.2708 H       
  51 H51           -6.5665     0.7489    -1.5840 H       
  52 H52           -5.9151    -2.7239     2.3483 H       
  53 H53           -7.6315    -3.6383    -1.2604 H       
  54 H54           -5.8715    -3.8119    -0.9515 H       
  55 H55           -6.5865    -4.4980     1.1843 H       
  56 H56           -8.1577    -3.6645     1.0267 H       
@<TRIPOS>BOND
   1    1    2 2
   2    1    5 1
   3    1    6 1
   4    2    3 1
   5    3    4 2
   6    3   11 1
   7    4    5 1
   8    4   32 1
   9    5   33 1
  10    6    7 2
  11    6    8 am
  12    8   16 1
  13    8   34 1
  14    9   10 ar
  15    9   14 ar
  16    9   15 1
  17   10   11 ar
  18   10   35 1
  19   11   12 ar
  20   12   13 ar
  21   12   36 1
  22   13   14 ar
  23   13   37 1
  24   15   38 1
  25   15   39 1
  26   15   40 1
  27   16   17 ar
  28   16   21 ar
  29   17   18 ar
  30   17   27 1
  31   18   19 ar
  32   18   31 1
  33   19   20 ar
  34   19   41 1
  35   20   21 ar
  36   20   42 1
  37   21   43 1
  38   22   23 1
  39   22   27 1
  40   22   44 1
  41   22   45 1
  42   23   24 1
  43   23   28 1
  44   23   46 1
  45   24   25 1
  46   24   29 1
  47   24   47 1
  48   25   26 1
  49   25   48 1
  50   25   49 1
  51   26   27 1
  52   26   50 1
  53   26   51 1
  54   28   30 1
  55   28   52 1
  56   29   30 1
  57   29   53 1
  58   29   54 1
  59   30   55 1
  60   30   56 1

#	End of record

