#	Name: ASD01881310
#	Creating user name:	WinNT
#	Creation time:	15. 06. 2019 19:42

#	Modifying user name:	WinNT
#	Modification time:	15. 06. 2019 19:42

#	Program:	/corina/corina34_cracker 3.40 0067  02.08.2006

@<TRIPOS>MOLECULE
ASD01881310
  63   65    0    0    0
SMALL
NO_CHARGES


@<TRIPOS>ATOM
   1 C1            -0.2726     1.2840     0.4439 C.2     
   2 C2            -0.1738    -0.1741     0.6602 C.ar    
   3 C3             1.0237    -0.8416     0.3981 C.ar    
   4 C4             1.1086    -2.2081     0.6031 C.ar    
   5 C5             0.0050    -2.9110     1.0681 C.ar    
   6 C6            -1.1819    -2.2514     1.3282 C.ar    
   7 C7            -1.2762    -0.8886     1.1329 C.ar    
   8 O8             0.6894     1.9043     0.0373 O.2     
   9 O9            -1.4312     1.9248     0.6924 O.3     
  10 O10            2.2725    -2.8621     0.3487 O.3     
  11 C11            2.2891    -4.2717     0.5825 C.3     
  12 C12            3.6730    -4.8288     0.2427 C.3     
  13 C13            3.6908    -6.3381     0.4930 C.3     
  14 C14            5.0747    -6.8951     0.1531 C.3     
  15 O15            5.0913    -8.3048     0.3869 O.3     
  16 C16            6.2531    -8.9575     0.1330 C.ar    
  17 C17            6.3361   -10.3304     0.3397 C.ar    
  18 C18            7.5022   -10.9949     0.0864 C.ar    
  19 C19            8.6200   -10.2941    -0.3831 C.ar    
  20 C20            8.5369    -8.9118    -0.5914 C.ar    
  21 C21            7.3553    -8.2525    -0.3385 C.ar    
  22 C22            7.5861   -12.4825     0.3128 C.3     
  23 C23            5.1352   -11.0874     0.8454 C.3     
  24 C24            9.8751   -11.0062    -0.6557 C.2     
  25 O25            9.9150   -12.2161    -0.5784 O.2     
  26 C26           11.1133   -10.2339    -1.0315 C.3     
  27 C27           12.2716   -11.2071    -1.2602 C.3     
  28 C28           13.5089   -10.4444    -1.7655 C.3     
  29 C29           14.6222   -10.6700    -0.7218 C.3     
  30 C30           14.2182   -11.9873    -0.0141 C.3     
  31 C31           12.6763   -11.8695     0.0729 C.3     
  32 H32            1.8812    -0.2938     0.0361 H       
  33 H33            0.0740    -3.9771     1.2268 H       
  34 H34           -2.0366    -2.8038     1.6897 H       
  35 H35           -2.2034    -0.3757     1.3417 H       
  36 H36           -1.4475     2.8789     0.5360 H       
  37 H37            2.0656    -4.4688     1.6310 H       
  38 H38            1.5395    -4.7530    -0.0456 H       
  39 H39            3.8966    -4.6317    -0.8058 H       
  40 H40            4.4227    -4.3475     0.8707 H       
  41 H41            3.4672    -6.5351     1.5414 H       
  42 H42            2.9411    -6.8194    -0.1351 H       
  43 H43            5.2982    -6.6980    -0.8953 H       
  44 H44            5.8243    -6.4138     0.7812 H       
  45 H45            9.3955    -8.3657    -0.9535 H       
  46 H46            7.2854    -7.1873    -0.5023 H       
  47 H47            7.4161   -13.0035    -0.6293 H       
  48 H48            8.5746   -12.7366     0.6953 H       
  49 H49            6.8282   -12.7832     1.0362 H       
  50 H50            4.5415   -11.4340    -0.0005 H       
  51 H51            5.4664   -11.9442     1.4322 H       
  52 H52            4.5290   -10.4316     1.4703 H       
  53 H53           10.9265    -9.6702    -1.9456 H       
  54 H54           11.3706    -9.5457    -0.2264 H       
  55 H55           11.9815   -11.9690    -1.9837 H       
  56 H56           13.8197   -10.8368    -2.7338 H       
  57 H57           13.2841    -9.3810    -1.8478 H       
  58 H58           15.5888   -10.7819    -1.2132 H       
  59 H59           14.6489    -9.8464    -0.0084 H       
  60 H60           14.5065   -12.8514    -0.6127 H       
  61 H61           14.6583   -12.0415     0.9816 H       
  62 H62           12.3887   -11.2395     0.9147 H       
  63 H63           12.2227   -12.8567     0.1615 H       
@<TRIPOS>BOND
   1    1    2 1
   2    1    8 2
   3    1    9 1
   4    2    3 ar
   5    2    7 ar
   6    3    4 ar
   7    3   32 1
   8    4    5 ar
   9    4   10 1
  10    5    6 ar
  11    5   33 1
  12    6    7 ar
  13    6   34 1
  14    7   35 1
  15    9   36 1
  16   10   11 1
  17   11   12 1
  18   11   37 1
  19   11   38 1
  20   12   13 1
  21   12   39 1
  22   12   40 1
  23   13   14 1
  24   13   41 1
  25   13   42 1
  26   14   15 1
  27   14   43 1
  28   14   44 1
  29   15   16 1
  30   16   17 ar
  31   16   21 ar
  32   17   18 ar
  33   17   23 1
  34   18   19 ar
  35   18   22 1
  36   19   20 ar
  37   19   24 1
  38   20   21 ar
  39   20   45 1
  40   21   46 1
  41   22   47 1
  42   22   48 1
  43   22   49 1
  44   23   50 1
  45   23   51 1
  46   23   52 1
  47   24   25 2
  48   24   26 1
  49   26   27 1
  50   26   53 1
  51   26   54 1
  52   27   28 1
  53   27   31 1
  54   27   55 1
  55   28   29 1
  56   28   56 1
  57   28   57 1
  58   29   30 1
  59   29   58 1
  60   29   59 1
  61   30   31 1
  62   30   60 1
  63   30   61 1
  64   31   62 1
  65   31   63 1

#	End of record

