#	Name: ASD08178341
#	Creating user name:	WinNT
#	Creation time:	15. 06. 2019 21:18

#	Modifying user name:	WinNT
#	Modification time:	15. 06. 2019 21:18

#	Program:	/corina/corina34_cracker 3.40 0067  02.08.2006

@<TRIPOS>MOLECULE
ASD08178341
  69   72    0    0    0
SMALL
NO_CHARGES


@<TRIPOS>ATOM
   1 N1            -0.0168     1.3902     0.0097 N.am    
   2 C2            -0.2173     0.0103     0.0231 C.ar    
   3 C3             0.8683    -0.8557    -0.0926 C.ar    
   4 N4            -1.4399    -0.4832     0.1513 N.ar    
   5 N5            -1.6667    -1.7463     0.1686 N.ar    
   6 C6            -0.7002    -2.6368     0.0602 C.ar    
   7 C7             0.6159    -2.2190    -0.0733 C.ar    
   8 C8            -1.0247    -4.1082     0.0874 C.3     
   9 C9            -1.8115    -4.4335     1.3586 C.3     
  10 C10           -2.1410    -5.9273     1.3862 C.3     
  11 C11           -2.9278    -6.2527     2.6574 C.3     
  12 C12           -3.2523    -7.7241     2.6845 C.2     
  13 N13           -2.5213    -8.6581     3.2049 N.2     
  14 N14           -2.9690    -9.8359     3.1257 N.2     
  15 C15           -4.1130   -10.0077     2.5350 C.2     
  16 S16           -4.6995    -8.4828     2.0200 S.3     
  17 N17           -4.7575   -11.2270     2.3553 N.am    
  18 C18           -4.1929   -12.3617     2.8139 C.2     
  19 C19           -4.8913   -13.6828     2.6192 C.3     
  20 O20           -3.1229   -12.3195     3.3832 O.2     
  21 C21           -4.0568   -14.7853     3.2184 C.ar    
  22 C22           -4.2375   -15.1469     4.5402 C.ar    
  23 C23           -3.4739   -16.1585     5.0937 C.ar    
  24 C24           -2.5269   -16.8103     4.3251 C.ar    
  25 C25           -2.3442   -16.4478     2.9962 C.ar    
  26 C26           -3.1157   -15.4372     2.4439 C.ar    
  27 C27           -1.0750     2.2250     0.0167 C.2     
  28 C28           -0.8601     3.7130     0.1198 C.3     
  29 O29           -2.2000     1.7786    -0.0599 O.2     
  30 C30           -2.1935     4.4152     0.1067 C.ar    
  31 C31           -2.8565     4.6619     1.2943 C.ar    
  32 C32           -2.7509     4.8175    -1.0926 C.ar    
  33 C33           -3.9740     5.4616    -1.1047 C.ar    
  34 C34           -4.6398     5.7029     0.0824 C.ar    
  35 C35           -4.0796     5.3059     1.2822 C.ar    
  36 O36           -1.4141   -17.0865     2.2377 O.3     
  37 C37           -1.2810   -16.6612     0.8800 C.3     
  38 C38           -0.1944   -17.4888     0.1905 C.3     
  39 O39           -0.6087   -18.8546     0.1200 O.3     
  40 F40           -1.7801   -17.7979     4.8657 F       
  41 H41            0.8842     1.7494    -0.0006 H       
  42 H42            1.8745    -0.4770    -0.1944 H       
  43 H43            1.4199    -2.9345    -0.1636 H       
  44 H44           -1.6240    -4.3643    -0.7864 H       
  45 H45           -0.0997    -4.6845     0.0751 H       
  46 H46           -1.2123    -4.1774     2.2323 H       
  47 H47           -2.7366    -3.8571     1.3708 H       
  48 H48           -2.7402    -6.1835     0.5124 H       
  49 H49           -1.2159    -6.5037     1.3739 H       
  50 H50           -2.3286    -5.9966     3.5311 H       
  51 H51           -3.8529    -5.6763     2.6696 H       
  52 H52           -5.6133   -11.2607     1.9000 H       
  53 H53           -5.8640   -13.6554     3.1104 H       
  54 H54           -5.0274   -13.8683     1.5537 H       
  55 H55           -4.9761   -14.6383     5.1420 H       
  56 H56           -3.6170   -16.4392     6.1267 H       
  57 H57           -2.9758   -15.1538     1.4112 H       
  58 H58           -0.3385     3.9413     1.0493 H       
  59 H59           -0.2620     4.0532    -0.7255 H       
  60 H60           -2.4191     4.3512     2.2316 H       
  61 H61           -2.2307     4.6290    -2.0201 H       
  62 H62           -4.4092     5.7766    -2.0416 H       
  63 H63           -5.5952     6.2064     0.0730 H       
  64 H64           -4.5998     5.4945     2.2097 H       
  65 H65           -2.2290   -16.8016     0.3607 H       
  66 H66           -1.0056   -15.6069     0.8548 H       
  67 H67           -0.0307   -17.1063    -0.8170 H       
  68 H68            0.7320   -17.4191     0.7606 H       
  69 H69            0.0333   -19.4388    -0.3063 H       
@<TRIPOS>BOND
   1    1    2 1
   2    1   27 am
   3    1   41 1
   4    2    3 ar
   5    2    4 ar
   6    3    7 ar
   7    3   42 1
   8    4    5 ar
   9    5    6 ar
  10    6    7 ar
  11    6    8 1
  12    7   43 1
  13    8    9 1
  14    8   44 1
  15    8   45 1
  16    9   10 1
  17    9   46 1
  18    9   47 1
  19   10   11 1
  20   10   48 1
  21   10   49 1
  22   11   12 1
  23   11   50 1
  24   11   51 1
  25   12   13 2
  26   12   16 1
  27   13   14 1
  28   14   15 2
  29   15   16 1
  30   15   17 1
  31   17   18 am
  32   17   52 1
  33   18   19 1
  34   18   20 2
  35   19   21 1
  36   19   53 1
  37   19   54 1
  38   21   22 ar
  39   21   26 ar
  40   22   23 ar
  41   22   55 1
  42   23   24 ar
  43   23   56 1
  44   24   25 ar
  45   24   40 1
  46   25   26 ar
  47   25   36 1
  48   26   57 1
  49   27   28 1
  50   27   29 2
  51   28   30 1
  52   28   58 1
  53   28   59 1
  54   30   31 ar
  55   30   32 ar
  56   31   35 ar
  57   31   60 1
  58   32   33 ar
  59   32   61 1
  60   33   34 ar
  61   33   62 1
  62   34   35 ar
  63   34   63 1
  64   35   64 1
  65   36   37 1
  66   37   38 1
  67   37   65 1
  68   37   66 1
  69   38   39 1
  70   38   67 1
  71   38   68 1
  72   39   69 1

#	End of record

