#	Name: ASD08170383
#	Creating user name:	WinNT
#	Creation time:	15. 06. 2019 21:17

#	Modifying user name:	WinNT
#	Modification time:	15. 06. 2019 21:17

#	Program:	/corina/corina34_cracker 3.40 0067  02.08.2006

@<TRIPOS>MOLECULE
ASD08170383
  65   68    0    0    0
SMALL
NO_CHARGES


@<TRIPOS>ATOM
   1 C1            -0.0184     1.5028     0.0103 C.3     
   2 C2             0.0021    -0.0041     0.0020 C.2     
   3 N3            -1.1558    -0.6938     0.0094 N.am    
   4 C4            -1.1370    -2.0844     0.0017 C.2     
   5 S5            -2.5152    -3.1017     0.0094 S.3     
   6 C6            -1.4518    -4.5090    -0.0094 C.2     
   7 C7            -1.8869    -5.9518    -0.0140 C.3     
   8 C8            -2.0202    -6.4489     1.4268 C.3     
   9 C9            -2.6447    -8.5871     3.1874 C.3     
  10 C10           -3.0819   -10.0437     3.3552 C.3     
  11 C11           -3.1656   -10.3772     4.8224 C.2     
  12 S12           -1.8597   -11.0187     5.8197 S.3     
  13 C13           -2.9181   -11.0262     7.1667 C.2     
  14 N14           -2.5899   -11.4401     8.4532 N.am    
  15 N15           -0.0715    -2.8270    -0.0181 N.2     
  16 N16           -0.2299    -4.0795    -0.0190 N.2     
  17 N17           -4.2078   -10.2392     5.5790 N.2     
  18 N18           -4.0777   -10.5805     6.7875 N.2     
  19 O19            1.0605    -0.5961    -0.0113 O.2     
  20 S20           -2.5439    -8.1857     1.4212 S.3     
  21 C21           -3.5160   -11.3978     9.4316 C.2     
  22 C22           -3.1604   -11.8463    10.8256 C.3     
  23 O23           -4.6355   -10.9987     9.1900 O.2     
  24 C24           -4.3627   -11.7001    11.7224 C.ar    
  25 C25            1.3954     2.0244    -0.0004 C.ar    
  26 C26            1.8466     2.8196     1.0364 C.ar    
  27 C27            3.1435     3.2981     1.0266 C.ar    
  28 C28           -2.7231   -13.3121    10.7938 C.3     
  29 C29            2.2429     1.7030    -1.0442 C.ar    
  30 C30            3.5397     2.1815    -1.0540 C.ar    
  31 C31            3.9893     2.9810    -0.0198 C.ar    
  32 C32           -0.7584     2.0096    -1.2292 C.3     
  33 C33           -4.3021   -10.8766    12.8310 C.ar    
  34 C34           -5.4049   -10.7426    13.6536 C.ar    
  35 C35           -6.5685   -11.4317    13.3673 C.ar    
  36 C36           -6.6295   -12.2545    12.2582 C.ar    
  37 C37           -5.5280   -12.3852    11.4332 C.ar    
  38 H38           -0.5286     1.8543     0.9071 H       
  39 H39           -2.0023    -0.2203     0.0200 H       
  40 H40           -2.8488    -6.0397    -0.5192 H       
  41 H41           -1.1447    -6.5534    -0.5387 H       
  42 H42           -1.0584    -6.3611     1.9319 H       
  43 H43           -2.7624    -5.8473     1.9515 H       
  44 H44           -3.3713    -7.9320     3.6680 H       
  45 H45           -1.6672    -8.4458     3.6485 H       
  46 H46           -4.0594   -10.1851     2.8941 H       
  47 H47           -2.3553   -10.6988     2.8745 H       
  48 H48           -1.6946   -11.7592     8.6464 H       
  49 H49           -2.3451   -11.2321    11.2080 H       
  50 H50            1.1858     3.0674     1.8539 H       
  51 H51            3.4958     3.9200     1.8362 H       
  52 H52           -3.5384   -13.9263    10.4114 H       
  53 H53           -1.8535   -13.4178    10.1452 H       
  54 H54           -2.4659   -13.6365    11.8021 H       
  55 H55            1.8918     1.0778    -1.8518 H       
  56 H56            4.2020     1.9298    -1.8691 H       
  57 H57            5.0025     3.3549    -0.0275 H       
  58 H58           -1.7809     1.6323    -1.2215 H       
  59 H59           -0.7731     3.0995    -1.2232 H       
  60 H60           -0.2482     1.6581    -2.1260 H       
  61 H61           -3.3930   -10.3382    13.0546 H       
  62 H62           -5.3573   -10.0997    14.5201 H       
  63 H63           -7.4299   -11.3275    14.0104 H       
  64 H64           -7.5385   -12.7932    12.0347 H       
  65 H65           -5.5756   -13.0281    10.5666 H       
@<TRIPOS>BOND
   1    1    2 1
   2    1   25 1
   3    1   32 1
   4    1   38 1
   5    2    3 am
   6    2   19 2
   7    3    4 1
   8    3   39 1
   9    4    5 1
  10    4   15 2
  11    5    6 1
  12    6    7 1
  13    6   16 2
  14    7    8 1
  15    7   40 1
  16    7   41 1
  17    8   20 1
  18    8   42 1
  19    8   43 1
  20    9   10 1
  21    9   20 1
  22    9   44 1
  23    9   45 1
  24   10   11 1
  25   10   46 1
  26   10   47 1
  27   11   12 1
  28   11   17 2
  29   12   13 1
  30   13   14 1
  31   13   18 2
  32   14   21 am
  33   14   48 1
  34   15   16 1
  35   17   18 1
  36   21   22 1
  37   21   23 2
  38   22   24 1
  39   22   28 1
  40   22   49 1
  41   24   33 ar
  42   24   37 ar
  43   25   26 ar
  44   25   29 ar
  45   26   27 ar
  46   26   50 1
  47   27   31 ar
  48   27   51 1
  49   28   52 1
  50   28   53 1
  51   28   54 1
  52   29   30 ar
  53   29   55 1
  54   30   31 ar
  55   30   56 1
  56   31   57 1
  57   32   58 1
  58   32   59 1
  59   32   60 1
  60   33   34 ar
  61   33   61 1
  62   34   35 ar
  63   34   62 1
  64   35   36 ar
  65   35   63 1
  66   36   37 ar
  67   36   64 1
  68   37   65 1

#	End of record

