#	Name: ASD01940483
#	Creating user name:	WinNT
#	Creation time:	15. 06. 2019 20:12

#	Modifying user name:	WinNT
#	Modification time:	15. 06. 2019 20:12

#	Program:	/corina/corina34_cracker 3.40 0067  02.08.2006

@<TRIPOS>MOLECULE
ASD01940483
  29   31    0    0    0
SMALL
NO_CHARGES


@<TRIPOS>ATOM
   1 S1             2.0591     2.3945     2.8778 S.3     
   2 N2             2.5608     0.8660     3.4144 N.2     
   3 C3             3.0925     0.2409     2.4200 C.2     
   4 C4             3.1576     0.8812     1.1717 C.ar    
   5 C5             2.6010     2.1726     1.2115 C.ar    
   6 C6             2.5656     2.9789     0.0763 C.ar    
   7 C7             3.0947     2.4930    -1.1273 C.ar    
   8 C8             3.6508     1.2024    -1.1667 C.ar    
   9 C9             3.6837     0.4205    -0.0623 C.ar    
  10 C10            3.0679     3.3258    -2.3385 C.2     
  11 O11            2.5035     4.4024    -2.3235 O.2     
  12 O12            3.6692     2.8956    -3.4658 O.3     
  13 N13            2.0119     4.2494     0.1362 N.pl3   
  14 C14            0.6749     4.4473    -0.2238 C.ar    
  15 C15            0.0838     5.6951    -0.0516 C.ar    
  16 C16           -1.2378     5.8866    -0.4091 C.ar    
  17 C17           -1.9714     4.8389    -0.9374 C.ar    
  18 C18           -1.3858     3.5979    -1.1089 C.ar    
  19 C19           -0.0637     3.4009    -0.7590 C.ar    
  20 I20           -3.9739     5.1333    -1.4780 I       
  21 F21            0.8001     6.7177     0.4646 F       
  22 H22            3.4817    -0.7587     2.5450 H       
  23 H23            4.0580     0.8281    -2.0942 H       
  24 H24            4.1170    -0.5670    -0.1213 H       
  25 H25            3.6250     3.4778    -4.2366 H       
  26 H26            2.5520     5.0006     0.4277 H       
  27 H27           -1.6981     6.8544    -0.2758 H       
  28 H28           -1.9617     2.7823    -1.5209 H       
  29 H29            0.3935     2.4323    -0.8977 H       
@<TRIPOS>BOND
   1    1    2 1
   2    1    5 1
   3    2    3 2
   4    3    4 1
   5    3   22 1
   6    4    5 ar
   7    4    9 ar
   8    5    6 ar
   9    6    7 ar
  10    6   13 1
  11    7    8 ar
  12    7   10 1
  13    8    9 ar
  14    8   23 1
  15    9   24 1
  16   10   11 2
  17   10   12 1
  18   12   25 1
  19   13   14 1
  20   13   26 1
  21   14   15 ar
  22   14   19 ar
  23   15   16 ar
  24   15   21 1
  25   16   17 ar
  26   16   27 1
  27   17   18 ar
  28   17   20 1
  29   18   19 ar
  30   18   28 1
  31   19   29 1

#	End of record

