#	Name: ASD01840186
#	Creating user name:	WinNT
#	Creation time:	15. 06. 2019 19:37

#	Modifying user name:	WinNT
#	Modification time:	15. 06. 2019 19:37

#	Program:	/corina/corina34_cracker 3.40 0067  02.08.2006

@<TRIPOS>MOLECULE
ASD01840186
  48   51    0    0    0
SMALL
NO_CHARGES


@<TRIPOS>ATOM
   1 C1            -1.7087     1.4893    -0.1428 C.3     
   2 C2            -1.7845    -0.0469    -0.0801 C.3     
   3 N3            -1.2520    -0.7126    -1.2716 N.am    
   4 C4            -1.6803    -1.9471    -1.6019 C.2     
   5 C5            -1.1489    -2.6115    -2.7911 C.2     
   6 O6            -2.5097    -2.5090    -0.9100 O.2     
   7 C7            -1.5150    -3.8494    -3.2063 C.2     
   8 C8            -0.8449    -4.2892    -4.4161 C.ar    
   9 C9             0.0511    -3.3300    -4.9071 C.ar    
  10 S10            0.0396    -1.9095    -3.8714 S.3     
  11 C11           -0.9652    -5.4987    -5.1377 C.ar    
  12 C12           -0.1981    -5.6556    -6.2711 C.ar    
  13 N13            0.6215    -4.6933    -6.6584 N.ar    
  14 N14            0.7433    -3.5907    -6.0185 N.ar    
  15 C15           -0.2930    -6.9287    -7.0719 C.3     
  16 C16           -1.9047    -6.5846    -4.6804 C.3     
  17 N17           -2.4481    -4.6270    -2.5339 N.pl3   
  18 C18           -0.7759     0.0491     1.0788 C.3     
  19 N19           -0.3818     1.3512     0.4971 N.3     
  20 C20           -0.2046     2.3141     1.4970 C.ar    
  21 C21           -1.1800     2.4942     2.4687 C.ar    
  22 C22            0.9494     3.0861     1.5213 C.ar    
  23 C23            1.1238     4.0358     2.5087 C.ar    
  24 C24            0.1466     4.2186     3.4759 C.ar    
  25 C25           -1.0040     3.4444     3.4555 C.ar    
  26 O26            0.3193     5.1538     4.4482 O.3     
  27 C27           -0.7273     5.2886     5.4119 C.3     
  28 H28           -1.6679     1.8860    -1.1572 H       
  29 H29           -2.4475     1.9913     0.4820 H       
  30 H30           -2.7621    -0.4262     0.2172 H       
  31 H31           -0.5912    -0.2649    -1.8228 H       
  32 H32           -1.0680    -6.8234    -7.8311 H       
  33 H33            0.6640    -7.1266    -7.5546 H       
  34 H34           -0.5438    -7.7570    -6.4091 H       
  35 H35           -2.9073    -6.3794    -5.0555 H       
  36 H36           -1.5630    -7.5460    -5.0641 H       
  37 H37           -1.9233    -6.6140    -3.5910 H       
  38 H38           -2.6531    -4.4427    -1.6039 H       
  39 H39           -2.8950    -5.3546    -2.9941 H       
  40 H40           -1.2417     0.1298     2.0609 H       
  41 H41            0.0103    -0.7050     1.0404 H       
  42 H42           -2.0761     1.8916     2.4527 H       
  43 H43            1.7106     2.9436     0.7685 H       
  44 H44            2.0214     4.6360     2.5280 H       
  45 H45           -1.7626     3.5846     4.2113 H       
  46 H46           -1.6541     5.5595     4.9063 H       
  47 H47           -0.8625     4.3425     5.9361 H       
  48 H48           -0.4634     6.0665     6.1284 H       
@<TRIPOS>BOND
   1    1    2 1
   2    1   19 1
   3    1   28 1
   4    1   29 1
   5    2    3 1
   6    2   18 1
   7    2   30 1
   8    3    4 am
   9    3   31 1
  10    4    5 1
  11    4    6 2
  12    5    7 2
  13    5   10 1
  14    7    8 1
  15    7   17 1
  16    8    9 ar
  17    8   11 ar
  18    9   10 1
  19    9   14 ar
  20   11   12 ar
  21   11   16 1
  22   12   13 ar
  23   12   15 1
  24   13   14 ar
  25   15   32 1
  26   15   33 1
  27   15   34 1
  28   16   35 1
  29   16   36 1
  30   16   37 1
  31   17   38 1
  32   17   39 1
  33   18   19 1
  34   18   40 1
  35   18   41 1
  36   19   20 1
  37   20   22 ar
  38   20   21 ar
  39   21   25 ar
  40   21   42 1
  41   22   23 ar
  42   22   43 1
  43   23   24 ar
  44   23   44 1
  45   24   25 ar
  46   24   26 1
  47   25   45 1
  48   26   27 1
  49   27   46 1
  50   27   47 1
  51   27   48 1

#	End of record

