#	Name: ASD01813522
#	Creating user name:	WinNT
#	Creation time:	15. 06. 2019 19:30

#	Modifying user name:	WinNT
#	Modification time:	15. 06. 2019 19:30

#	Program:	/corina/corina34_cracker 3.40 0067  02.08.2006

@<TRIPOS>MOLECULE
ASD01813522
  40   43    0    0    0
SMALL
NO_CHARGES


@<TRIPOS>ATOM
   1 C1            -0.0168     1.3825    -0.0463 C.ar    
   2 C2             0.0020    -0.0038    -0.0533 C.ar    
   3 C3             1.1975    -0.6932    -0.0495 C.ar    
   4 C4             2.4040     0.0044    -0.0389 C.ar    
   5 C5             2.3834     1.4096    -0.0323 C.ar    
   6 C6             1.1657     2.0946    -0.0358 C.ar    
   7 N7             3.6050    -0.6734    -0.0339 N.pl3   
   8 C8             4.7898    -0.0496    -0.0228 C.2     
   9 C9             4.8962     1.3266    -0.0151 C.2     
  10 C10            3.6660     2.1351    -0.0211 C.2     
  11 O11            3.7066     3.3531    -0.0152 O.2     
  12 C12            6.2155     1.9737    -0.0020 C.2     
  13 O13            6.3065     3.3187     0.0055 O.3     
  14 O14            7.2249     1.2962     0.0021 O.2     
  15 C15            3.5837    -2.1382    -0.0406 C.3     
  16 C16            3.4403    -2.6321    -1.4571 C.ar    
  17 N17            2.2379    -2.7340    -1.9900 N.ar    
  18 C18            2.0574    -3.1598    -3.2231 C.ar    
  19 C19            3.1477    -3.5220    -4.0155 C.ar    
  20 C20            4.4366    -3.4246    -3.4774 C.ar    
  21 C21            4.5722    -2.9657    -2.1792 C.ar    
  22 C22            2.9451    -4.0008    -5.3989 C.2     
  23 F23            1.1984    -2.0441    -0.0555 F       
  24 F24            1.1457     3.4455    -0.0299 F       
  25 C25            1.7480    -4.1381    -6.0284 C.2     
  26 C26            2.0234    -4.6203    -7.3237 C.2     
  27 C27            3.3608    -4.7521    -7.4197 C.2     
  28 O28            3.9149    -4.3714    -6.2570 O.3     
  29 H29           -0.9606     1.9075    -0.0535 H       
  30 H30           -0.9294    -0.5504    -0.0615 H       
  31 H31            5.6921    -0.6430    -0.0195 H       
  32 H32            7.1957     3.6986     0.0141 H       
  33 H33            4.5134    -2.5171     0.3839 H       
  34 H34            2.7418    -2.4920     0.5545 H       
  35 H35            1.0572    -3.2297    -3.6245 H       
  36 H36            5.3030    -3.6967    -4.0620 H       
  37 H37            5.5509    -2.8771    -1.7313 H       
  38 H38            0.7742    -3.9201    -5.6155 H       
  39 H39            1.2993    -4.8425    -8.0936 H       
  40 H40            3.8984    -5.1014    -8.2888 H       
@<TRIPOS>BOND
   1    1    2 ar
   2    1    6 ar
   3    1   29 1
   4    2    3 ar
   5    2   30 1
   6    3    4 ar
   7    3   23 1
   8    4    5 ar
   9    4    7 1
  10    5    6 ar
  11    5   10 1
  12    6   24 1
  13    7    8 1
  14    7   15 1
  15    8    9 2
  16    8   31 1
  17    9   10 1
  18    9   12 1
  19   10   11 2
  20   12   13 1
  21   12   14 2
  22   13   32 1
  23   15   16 1
  24   15   33 1
  25   15   34 1
  26   16   17 ar
  27   16   21 ar
  28   17   18 ar
  29   18   19 ar
  30   18   35 1
  31   19   20 ar
  32   19   22 1
  33   20   21 ar
  34   20   36 1
  35   21   37 1
  36   22   25 2
  37   22   28 1
  38   25   26 1
  39   25   38 1
  40   26   27 2
  41   26   39 1
  42   27   28 1
  43   27   40 1

#	End of record

