#	Name: ASD02198357
#	Creating user name:	WinNT
#	Creation time:	15. 06. 2019 20:19

#	Modifying user name:	WinNT
#	Modification time:	15. 06. 2019 20:19

#	Program:	/corina/corina34_cracker 3.40 0067  02.08.2006

@<TRIPOS>MOLECULE
ASD02198357
  41   43    0    0    0
SMALL
NO_CHARGES


@<TRIPOS>ATOM
   1 C1            -0.0311     1.3690     0.1486 C.2     
   2 C2            -0.0280    -0.0137     0.1852 C.2     
   3 S3             1.6395     1.9116     0.2848 S.3     
   4 C4             2.1759     0.2919     0.3756 C.2     
   5 N5             1.1711    -0.5333     0.3069 N.2     
   6 N6            -1.1809    -0.7773     0.1019 N.pl3   
   7 C7            -1.1638     2.1935     0.0197 C.2     
   8 C8            -1.0273     3.6627     0.1387 C.ar    
   9 O9            -2.2580     1.6979    -0.1901 O.2     
  10 N10            3.4920    -0.0889     0.5037 N.pl3   
  11 C11           -1.9146     4.5048    -0.5322 C.ar    
  12 C12           -0.0148     4.2098     0.9267 C.ar    
  13 C13            0.1067     5.5849     1.0338 C.ar    
  14 C14           -0.7777     6.4153     0.3582 C.ar    
  15 C15           -1.7850     5.8741    -0.4188 C.ar    
  16 C16            3.8398    -1.5103     0.5724 C.3     
  17 C17            5.2869    -1.7226     0.0942 C.3     
  18 C18            6.0589    -2.3320     1.2826 C.3     
  19 C19            4.9603    -2.9983     2.1476 C.3     
  20 C20            3.7830    -1.9982     2.0348 C.3     
  21 O21            1.0917     6.1220     1.8009 O.3     
  22 C22            1.1583     7.5480     1.8661 C.3     
  23 H23           -2.0442    -0.3441     0.0131 H       
  24 H24           -1.1248    -1.7452     0.1324 H       
  25 H25            4.1894     0.5838     0.5485 H       
  26 H26           -2.7024     4.0853    -1.1404 H       
  27 H27            0.6722     3.5628     1.4519 H       
  28 H28           -0.6811     7.4875     0.4437 H       
  29 H29           -2.4697     6.5250    -0.9422 H       
  30 H30            3.1540    -2.0925    -0.0431 H       
  31 H31            5.3034    -2.4084    -0.7529 H       
  32 H32            5.7303    -0.7680    -0.1890 H       
  33 H33            6.7727    -3.0774     0.9319 H       
  34 H34            6.5680    -1.5511     1.8476 H       
  35 H35            4.6826    -3.9696     1.7384 H       
  36 H36            5.2885    -3.0935     3.1827 H       
  37 H37            3.9245    -1.1634     2.7212 H       
  38 H38            2.8359    -2.5000     2.2330 H       
  39 H39            1.9867     7.8439     2.5098 H       
  40 H40            1.3141     7.9506     0.8653 H       
  41 H41            0.2250     7.9371     2.2731 H       
@<TRIPOS>BOND
   1    1    2 2
   2    1    3 1
   3    1    7 1
   4    2    6 1
   5    2    5 1
   6    3    4 1
   7    4    5 2
   8    4   10 1
   9    6   23 1
  10    6   24 1
  11    7    8 1
  12    7    9 2
  13    8   11 ar
  14    8   12 ar
  15   10   16 1
  16   10   25 1
  17   11   15 ar
  18   11   26 1
  19   12   13 ar
  20   12   27 1
  21   13   14 ar
  22   13   21 1
  23   14   15 ar
  24   14   28 1
  25   15   29 1
  26   16   17 1
  27   16   20 1
  28   16   30 1
  29   17   18 1
  30   17   31 1
  31   17   32 1
  32   18   19 1
  33   18   33 1
  34   18   34 1
  35   19   20 1
  36   19   35 1
  37   19   36 1
  38   20   37 1
  39   20   38 1
  40   21   22 1
  41   22   39 1
  42   22   40 1
  43   22   41 1

#	End of record

