#	Name: ASD01883209
#	Creating user name:	WinNT
#	Creation time:	15. 06. 2019 19:46

#	Modifying user name:	WinNT
#	Modification time:	15. 06. 2019 19:46

#	Program:	/corina/corina34_cracker 3.40 0067  02.08.2006

@<TRIPOS>MOLECULE
ASD01883209
  54   56    0    0    0
SMALL
NO_CHARGES


@<TRIPOS>ATOM
   1 N1            -0.0162     1.3417     0.0094 N.am    
   2 C2             0.0021    -0.0041     0.0020 C.2     
   3 C3            -1.2158    -0.7273     0.0098 C.2     
   4 C4            -2.4263    -0.0108     0.0252 C.2     
   5 C5            -2.3785     1.3976     0.0323 C.2     
   6 C6            -1.1851     2.0328     0.0299 C.2     
   7 O7             1.0657    -0.5999    -0.0117 O.2     
   8 C8            -1.2148    -2.1593     0.0016 C.1     
   9 N9            -1.2140    -3.2953    -0.0049 N.1     
  10 C10            1.2513     2.0762     0.0013 C.3     
  11 C11            1.6788     2.3397    -1.4440 C.3     
  12 C12            3.0025     3.1069    -1.4525 C.3     
  13 C13            3.4931     3.2615    -2.8935 C.3     
  14 C14            2.7941     4.4904    -0.8334 C.3     
  15 C15           -3.7212    -0.7204     0.0332 C.ar    
  16 C16           -4.4983    -0.7763    -1.1293 C.ar    
  17 C17           -5.7080    -1.4415    -1.1158 C.ar    
  18 C18           -6.1522    -2.0536     0.0485 C.ar    
  19 C19           -5.3823    -1.9993     1.2052 C.ar    
  20 C20           -4.1720    -1.3432     1.2002 C.ar    
  21 O21           -7.3422    -2.7069     0.0578 O.3     
  22 C22           -7.7392    -3.3143     1.2889 C.3     
  23 C23           -9.0755    -3.9874     1.1089 C.ar    
  24 C24           -9.1456    -5.3116     0.7045 C.ar    
  25 C25          -10.3968    -5.8898     0.5525 C.ar    
  26 C26          -11.5241    -5.1324     0.8073 C.ar    
  27 N27          -11.4195    -3.8747     1.1902 N.ar    
  28 C28          -10.2466    -3.2940     1.3506 C.ar    
  29 F29           -4.0660    -0.1802    -2.2620 F       
  30 C30          -12.8889    -5.7505     0.6453 C.3     
  31 F31          -13.2859    -6.3282     1.8561 F       
  32 F32          -13.8078    -4.7621     0.2769 F       
  33 F33          -12.8401    -6.7352    -0.3473 F       
  34 H34           -3.2948     1.9693     0.0437 H       
  35 H35           -1.1609     3.1125     0.0354 H       
  36 H36            1.1244     3.0257     0.5214 H       
  37 H37            2.0168     1.4857     0.5046 H       
  38 H38            1.8057     1.3903    -1.9642 H       
  39 H39            0.9133     2.9303    -1.9474 H       
  40 H40            3.7446     2.5576    -0.8731 H       
  41 H41            2.7511     3.8109    -3.4729 H       
  42 H42            4.4361     3.8081    -2.8995 H       
  43 H43            3.6415     2.2759    -3.3345 H       
  44 H44            3.7372     5.0370    -0.8395 H       
  45 H45            2.0521     5.0397    -1.4129 H       
  46 H46            2.4447     4.3802     0.1931 H       
  47 H47           -6.3094    -1.4856    -2.0118 H       
  48 H48           -5.7326    -2.4768     2.1084 H       
  49 H49           -3.5755    -1.3026     2.0996 H       
  50 H50           -6.9962    -4.0549     1.5848 H       
  51 H51           -7.8185    -2.5502     2.0621 H       
  52 H52           -8.2472    -5.8792     0.5121 H       
  53 H53          -10.4890    -6.9191     0.2385 H       
  54 H54          -10.2005    -2.2620     1.6653 H       
@<TRIPOS>BOND
   1    1    2 am
   2    1   10 1
   3    1    6 1
   4    2    3 1
   5    2    7 2
   6    3    4 2
   7    3    8 1
   8    4    5 1
   9    4   15 1
  10    5    6 2
  11    5   34 1
  12    6   35 1
  13    8    9 3
  14   10   11 1
  15   10   36 1
  16   10   37 1
  17   11   12 1
  18   11   38 1
  19   11   39 1
  20   12   13 1
  21   12   14 1
  22   12   40 1
  23   13   41 1
  24   13   42 1
  25   13   43 1
  26   14   44 1
  27   14   45 1
  28   14   46 1
  29   15   16 ar
  30   15   20 ar
  31   16   17 ar
  32   16   29 1
  33   17   18 ar
  34   17   47 1
  35   18   19 ar
  36   18   21 1
  37   19   20 ar
  38   19   48 1
  39   20   49 1
  40   21   22 1
  41   22   23 1
  42   22   50 1
  43   22   51 1
  44   23   24 ar
  45   23   28 ar
  46   24   25 ar
  47   24   52 1
  48   25   26 ar
  49   25   53 1
  50   26   27 ar
  51   26   30 1
  52   27   28 ar
  53   28   54 1
  54   30   31 1
  55   30   32 1
  56   30   33 1

#	End of record

