#	Name: ASD07931964
#	Creating user name:	WinNT
#	Creation time:	15. 06. 2019 21:13

#	Modifying user name:	WinNT
#	Modification time:	15. 06. 2019 21:13

#	Program:	/corina/corina34_cracker 3.40 0067  02.08.2006

@<TRIPOS>MOLECULE
ASD07931964
  48   51    0    0    0
SMALL
NO_CHARGES


@<TRIPOS>ATOM
   1 C1             0.0600     1.5186     0.5826 C.ar    
   2 C2             0.1602     0.2597     1.1743 C.ar    
   3 N3             1.1248     2.0611    -0.0017 N.ar    
   4 N4             1.3110    -0.3880     1.1518 N.ar    
   5 C5             2.3655     0.1556     0.5700 C.ar    
   6 C6             2.2693     1.4077    -0.0195 C.ar    
   7 C7            -1.2296     2.2468     0.5995 C.2     
   8 O8            -2.2026     1.7473     1.1295 O.2     
   9 N9            -1.3241     3.4633     0.0272 N.am    
  10 C10            3.6768    -0.5867     0.5471 C.3     
  11 C11           -2.5659     4.1028    -0.0561 C.ar    
  12 C12           -2.6457     5.4845     0.0610 C.ar    
  13 C13           -3.8720     6.1148    -0.0213 C.ar    
  14 C14           -5.0224     5.3709    -0.2199 C.ar    
  15 C15           -4.9462     3.9911    -0.3367 C.ar    
  16 C16           -3.7191     3.3573    -0.2615 C.ar    
  17 F17           -6.0700     3.2666    -0.5301 F       
  18 F18           -6.2207     5.9896    -0.2996 F       
  19 S19           -2.6416     9.8029    -1.8110 S.3     
  20 C20           -2.0070     9.0645    -0.3438 C.2     
  21 N21           -2.6514     8.1875     0.3238 N.2     
  22 C22           -3.9577     7.6140     0.1058 C.3     
  23 C23           -4.7378     8.2346    -1.0623 C.3     
  24 C24           -3.8564     8.5357    -2.2597 C.3     
  25 O25           -5.3481     9.3363     0.9701 O.3     
  26 C26           -4.8642     8.0242     1.3025 C.3     
  27 C27           -5.3270     9.5170    -0.4535 C.3     
  28 C28           -6.7498     9.7343    -0.9724 C.3     
  29 F29           -7.5489     8.6437    -0.6130 F       
  30 F30           -7.2769    10.9031    -0.4128 F       
  31 F31           -6.7245     9.8547    -2.3660 F       
  32 N32           -0.7637     9.4489     0.1021 N.pl3   
  33 H33           -0.7015    -0.1846     1.6502 H       
  34 H34            3.1338     1.8478    -0.4941 H       
  35 H35           -0.5313     3.8956    -0.3271 H       
  36 H36            3.7285    -1.2055    -0.3488 H       
  37 H37            4.4992     0.1286     0.5424 H       
  38 H38            3.7513    -1.2202     1.4310 H       
  39 H39           -1.7490     6.0659     0.2167 H       
  40 H40           -3.6586     2.2833    -0.3572 H       
  41 H41           -5.5467     7.5674    -1.3598 H       
  42 H42           -4.4726     8.8982    -3.0825 H       
  43 H43           -3.3377     7.6275    -2.5666 H       
  44 H44           -5.6967     7.3278     1.4032 H       
  45 H45           -4.2831     8.0570     2.2241 H       
  46 H46           -4.7008    10.3715    -0.7100 H       
  47 H47           -0.2563    10.1136    -0.3895 H       
  48 H48           -0.3944     9.0553     0.9080 H       
@<TRIPOS>BOND
   1    1    2 ar
   2    1    3 ar
   3    1    7 1
   4    2    4 ar
   5    2   33 1
   6    3    6 ar
   7    4    5 ar
   8    5    6 ar
   9    5   10 1
  10    6   34 1
  11    7    8 2
  12    7    9 am
  13    9   11 1
  14    9   35 1
  15   10   36 1
  16   10   37 1
  17   10   38 1
  18   11   12 ar
  19   11   16 ar
  20   12   13 ar
  21   12   39 1
  22   13   14 ar
  23   13   22 1
  24   14   15 ar
  25   14   18 1
  26   15   16 ar
  27   15   17 1
  28   16   40 1
  29   19   20 1
  30   19   24 1
  31   20   21 2
  32   20   32 1
  33   21   22 1
  34   22   26 1
  35   22   23 1
  36   23   24 1
  37   23   27 1
  38   23   41 1
  39   24   42 1
  40   24   43 1
  41   25   26 1
  42   25   27 1
  43   26   44 1
  44   26   45 1
  45   27   28 1
  46   27   46 1
  47   28   29 1
  48   28   30 1
  49   28   31 1
  50   32   47 1
  51   32   48 1

#	End of record

