#	Name: ASD01810828
#	Creating user name:	WinNT
#	Creation time:	15. 06. 2019 19:25

#	Modifying user name:	WinNT
#	Modification time:	15. 06. 2019 19:25

#	Program:	/corina/corina34_cracker 3.40 0067  02.08.2006

@<TRIPOS>MOLECULE
ASD01810828
  64   68    0    0    0
SMALL
NO_CHARGES


@<TRIPOS>ATOM
   1 C1            -0.0612     1.3859     0.0547 C.2     
   2 O2             0.2535     0.5907    -0.8090 O.2     
   3 N3             0.7969     1.6697     1.0545 N.am    
   4 C4             2.0802     0.9625     1.1629 C.3     
   5 C5             2.1973     0.3660     2.5690 C.3     
   6 C6             2.0004     1.4735     3.6067 C.3     
   7 C7             0.6022     2.0764     3.4527 C.3     
   8 C8             0.4695     2.6963     2.0533 C.3     
   9 C9             2.1487     0.8966     4.9910 C.ar    
  10 C10            3.1305     1.3758     5.8379 C.ar    
  11 C11            3.2666     0.8466     7.1077 C.ar    
  12 C12            2.4205    -0.1615     7.5307 C.ar    
  13 C13            1.4381    -0.6400     6.6841 C.ar    
  14 C14            1.2992    -0.1078     5.4158 C.ar    
  15 C15            2.5695    -0.7390     8.9146 C.3     
  16 F16            1.7743    -0.0157     9.8099 F       
  17 F17            2.1638    -2.0779     8.9073 F       
  18 F18            3.9087    -0.6598     9.3113 F       
  19 C19           -1.3831     2.0466     0.0052 C.ar    
  20 C20           -2.5481     1.2780    -0.0524 C.ar    
  21 C21           -3.7829     1.8935    -0.0982 C.ar    
  22 C22           -3.8752     3.2716    -0.0879 C.ar    
  23 C23           -2.7188     4.0514    -0.0305 C.ar    
  24 C24           -1.4699     3.4370     0.0217 C.ar    
  25 N25           -3.6401     7.4883     0.0306 N.2     
  26 N26           -3.9260     6.2351     0.0392 N.2     
  27 C27           -2.8199     5.5275    -0.0195 C.2     
  28 N28           -1.7794     6.4152    -0.0676 N.pl3   
  29 C29           -2.3459     7.6521    -0.0335 C.2     
  30 C30           -1.6142     8.9692    -0.0652 C.3     
  31 C31           -2.4567    -0.2261    -0.0651 C.3     
  32 C32           -5.2275     3.9348    -0.1391 C.3     
  33 C33           -6.0817     3.4999    -1.3417 C.3     
  34 C34           -7.2857     3.4965    -0.3850 C.3     
  35 C35           -6.2803     3.2570     0.7537 C.3     
  36 H36            2.1209     0.1636     0.4224 H       
  37 H37            2.8985     1.6624     0.9935 H       
  38 H38            1.4331    -0.3994     2.7043 H       
  39 H39            3.1845    -0.0787     2.6944 H       
  40 H40            2.7496     2.2505     3.4551 H       
  41 H41           -0.1470     1.2949     3.5796 H       
  42 H42            0.4541     2.8491     4.2071 H       
  43 H43            1.1591     3.5347     1.9551 H       
  44 H44           -0.5530     3.0417     1.9006 H       
  45 H45            3.7916     2.1633     5.5074 H       
  46 H46            4.0342     1.2204     7.7691 H       
  47 H47            0.7773    -1.4278     7.0144 H       
  48 H48            0.5293    -0.4791     4.7557 H       
  49 H49           -4.6806     1.2949    -0.1427 H       
  50 H50           -0.5725     4.0358     0.0707 H       
  51 H51           -0.8335     6.2060    -0.1156 H       
  52 H52           -1.3860     9.2826     0.9535 H       
  53 H53           -0.6868     8.8562    -0.6268 H       
  54 H54           -2.2403     9.7213    -0.5451 H       
  55 H55           -2.3855    -0.5945     0.9583 H       
  56 H56           -3.3466    -0.6402    -0.5392 H       
  57 H57           -1.5720    -0.5317    -0.6236 H       
  58 H58           -5.1739     5.0157    -0.0097 H       
  59 H59           -6.1488     4.2546    -2.1253 H       
  60 H60           -5.8255     2.5121    -1.7248 H       
  61 H61           -7.7960     4.4576    -0.3220 H       
  62 H62           -7.9692     2.6629    -0.5465 H       
  63 H63           -6.0784     2.2028     0.9434 H       
  64 H64           -6.5077     3.8155     1.6616 H       
@<TRIPOS>BOND
   1    1    2 2
   2    1    3 am
   3    1   19 1
   4    3    4 1
   5    3    8 1
   6    4    5 1
   7    4   36 1
   8    4   37 1
   9    5    6 1
  10    5   38 1
  11    5   39 1
  12    6    7 1
  13    6    9 1
  14    6   40 1
  15    7    8 1
  16    7   41 1
  17    7   42 1
  18    8   43 1
  19    8   44 1
  20    9   10 ar
  21    9   14 ar
  22   10   11 ar
  23   10   45 1
  24   11   12 ar
  25   11   46 1
  26   12   13 ar
  27   12   15 1
  28   13   14 ar
  29   13   47 1
  30   14   48 1
  31   15   16 1
  32   15   17 1
  33   15   18 1
  34   19   20 ar
  35   19   24 ar
  36   20   21 ar
  37   20   31 1
  38   21   22 ar
  39   21   49 1
  40   22   23 ar
  41   22   32 1
  42   23   24 ar
  43   23   27 1
  44   24   50 1
  45   25   26 1
  46   25   29 2
  47   26   27 2
  48   27   28 1
  49   28   29 1
  50   28   51 1
  51   29   30 1
  52   30   52 1
  53   30   53 1
  54   30   54 1
  55   31   55 1
  56   31   56 1
  57   31   57 1
  58   32   33 1
  59   32   35 1
  60   32   58 1
  61   33   34 1
  62   33   59 1
  63   33   60 1
  64   34   35 1
  65   34   61 1
  66   34   62 1
  67   35   63 1
  68   35   64 1

#	End of record

