#	Name: ASD03730041
#	Creating user name:	WinNT
#	Creation time:	15. 06. 2019 20:43

#	Modifying user name:	WinNT
#	Modification time:	15. 06. 2019 20:43

#	Program:	/corina/corina34_cracker 3.40 0067  02.08.2006

@<TRIPOS>MOLECULE
ASD03730041
  32   36    0    0    0
SMALL
NO_CHARGES


@<TRIPOS>ATOM
   1 O1            -0.0174     1.4355     0.0099 O.3     
   2 C2             0.0021    -0.0041     0.0020 C.3     
   3 O3             1.2454    -0.3261    -0.6485 O.3     
   4 C4             2.0710     0.7342    -0.4045 C.ar    
   5 C5             1.2938     1.8171    -0.0005 C.ar    
   6 C6             3.4454     0.8638    -0.4943 C.ar    
   7 C7             4.0610     2.0728    -0.1847 C.ar    
   8 C8             3.2734     3.1503     0.2090 C.ar    
   9 C9             1.9032     3.0224     0.3048 C.ar    
  10 O10            5.3841     2.4045    -0.1899 O.3     
  11 C11            4.2107     4.3045     0.4428 C.3     
  12 C12            5.5145     3.8387    -0.2196 C.3     
  13 N13            3.6163     6.4756     0.8428 N.am    
  14 C14            3.7020     5.5817    -0.1623 C.2     
  15 C15            4.3986     4.6026     1.9008 C.ar    
  16 C16            4.8352     3.8594     2.9753 C.ar    
  17 C17            4.9018     4.4300     4.2336 C.ar    
  18 C18            4.5281     5.7498     4.4103 C.ar    
  19 C19            4.0890     6.5005     3.3377 C.ar    
  20 C20            4.0194     5.9313     2.0660 C.ar    
  21 O21            3.4229     5.7715    -1.3273 O.2     
  22 F22            3.7261     7.7890     3.5203 F       
  23 H23           -0.0093    -0.3928     1.0203 H       
  24 H24           -0.8408    -0.3953    -0.5677 H       
  25 H25            4.0445     0.0211    -0.8064 H       
  26 H26            1.3043     3.8646     0.6186 H       
  27 H27            6.3797     4.1608     0.3599 H       
  28 H28            5.5782     4.2005    -1.2458 H       
  29 H29            3.3113     7.3896     0.7307 H       
  30 H30            5.1260     2.8288     2.8350 H       
  31 H31            5.2441     3.8465     5.0755 H       
  32 H32            4.5796     6.1956     5.3926 H       
@<TRIPOS>BOND
   1    1    2 1
   2    1    5 1
   3    2    3 1
   4    2   23 1
   5    2   24 1
   6    3    4 1
   7    4    5 ar
   8    4    6 ar
   9    5    9 ar
  10    6    7 ar
  11    6   25 1
  12    7    8 ar
  13    7   10 1
  14    8    9 ar
  15    8   11 1
  16    9   26 1
  17   10   12 1
  18   11   12 1
  19   11   14 1
  20   11   15 1
  21   12   27 1
  22   12   28 1
  23   13   14 am
  24   13   20 1
  25   13   29 1
  26   14   21 2
  27   15   16 ar
  28   15   20 ar
  29   16   17 ar
  30   16   30 1
  31   17   18 ar
  32   17   31 1
  33   18   19 ar
  34   18   32 1
  35   19   20 ar
  36   19   22 1

#	End of record

