#	Name: ASD01881234
#	Creating user name:	WinNT
#	Creation time:	15. 06. 2019 19:42

#	Modifying user name:	WinNT
#	Modification time:	15. 06. 2019 19:42

#	Program:	/corina/corina34_cracker 3.40 0067  02.08.2006

@<TRIPOS>MOLECULE
ASD01881234
  39   41    0    0    0
SMALL
NO_CHARGES


@<TRIPOS>ATOM
   1 N1            -0.0158     1.3133     0.0093 N.ar    
   2 C2             0.0021    -0.0041     0.0020 C.ar    
   3 N3             1.1311    -0.6837    -0.0124 N.ar    
   4 C4             2.3016    -0.0558    -0.0202 C.ar    
   5 C5             2.3206     1.3375    -0.0129 C.ar    
   6 C6             1.1121     2.0107     0.0022 C.ar    
   7 C7             3.6250     2.0922    -0.0213 C.3     
   8 O8             4.0244     2.3379    -1.3712 O.3     
   9 C9             5.1872     3.0126    -1.5565 C.ar    
  10 C10            5.6346     3.2855    -2.8460 C.ar    
  11 C11            6.8103     3.9682    -3.0331 C.ar    
  12 C12            7.5650     4.3933    -1.9344 C.ar    
  13 C13            7.1114     4.1168    -0.6402 C.ar    
  14 C14            5.9265     3.4350    -0.4590 C.ar    
  15 C15            7.5601     4.4160    -4.2631 C.3     
  16 N16            8.7617     5.1068    -3.7812 N.am    
  17 C17            8.7600     5.0911    -2.4372 C.2     
  18 O18            9.6228     5.5836    -1.7361 O.2     
  19 Cl19           8.0351     4.6362     0.7348 Cl      
  20 Br20           1.0692     3.9012     0.0122 Br      
  21 O21            3.4597    -0.7595    -0.0346 O.3     
  22 C22            3.3529    -2.1845    -0.0408 C.3     
  23 C23            9.4290     7.1735    -4.9058 C.3     
  24 C24            9.7931     5.7141    -4.6259 C.3     
  25 H25           -0.9345    -0.5419     0.0084 H       
  26 H26            3.4987     3.0417     0.4988 H       
  27 H27            4.3900     1.5010     0.4821 H       
  28 H28            5.0571     2.9599    -3.6985 H       
  29 H29            5.5760     3.2218     0.5401 H       
  30 H30            7.8408     3.5524    -4.8660 H       
  31 H31            6.9449     5.0989    -4.8491 H       
  32 H32            2.8050    -2.5040    -0.9273 H       
  33 H33            4.3505    -2.6236    -0.0523 H       
  34 H34            2.8217    -2.5129     0.8526 H       
  35 H35            8.4679     7.2164    -5.4183 H       
  36 H36            9.3632     7.7186    -3.9642 H       
  37 H37           10.1964     7.6254    -5.5343 H       
  38 H38           10.7541     5.6713    -4.1134 H       
  39 H39            9.8589     5.1690    -5.5675 H       
@<TRIPOS>BOND
   1    1    2 ar
   2    1    6 ar
   3    2    3 ar
   4    2   25 1
   5    3    4 ar
   6    4    5 ar
   7    4   21 1
   8    5    6 ar
   9    5    7 1
  10    6   20 1
  11    7    8 1
  12    7   26 1
  13    7   27 1
  14    8    9 1
  15    9   10 ar
  16    9   14 ar
  17   10   11 ar
  18   10   28 1
  19   11   12 ar
  20   11   15 1
  21   12   13 ar
  22   12   17 1
  23   13   14 ar
  24   13   19 1
  25   14   29 1
  26   15   16 1
  27   15   30 1
  28   15   31 1
  29   16   17 am
  30   16   24 1
  31   17   18 2
  32   21   22 1
  33   22   32 1
  34   22   33 1
  35   22   34 1
  36   23   24 1
  37   23   35 1
  38   23   36 1
  39   23   37 1
  40   24   38 1
  41   24   39 1

#	End of record

