#	Name: ASD01913984
#	Creating user name:	WinNT
#	Creation time:	15. 06. 2019 20:02

#	Modifying user name:	WinNT
#	Modification time:	15. 06. 2019 20:02

#	Program:	/corina/corina34_cracker 3.40 0067  02.08.2006

@<TRIPOS>MOLECULE
ASD01913984
  38   41    0    0    0
SMALL
NO_CHARGES


@<TRIPOS>ATOM
   1 N1            -0.0540     1.2930     0.0095 N.2     
   2 N2            -0.0585     0.0061     0.0604 N.pl3   
   3 C3             1.1986    -0.4495     0.2956 C.2     
   4 C4             2.0056     0.6515     0.3947 C.2     
   5 C5             1.1676     1.7600     0.2036 C.2     
   6 C6             3.4840     0.6114     0.6601 C.3     
   7 C7             1.6698    -1.8417     0.4251 C.ar    
   8 C8             0.9091    -2.8943    -0.0793 C.ar    
   9 C9             1.3683    -4.1909     0.0332 C.ar    
  10 C10            2.5832    -4.4498     0.6447 C.ar    
  11 C11            3.3440    -3.4162     1.1542 C.ar    
  12 C12            2.8933    -2.1059     1.0575 C.ar    
  13 S13            3.8494    -0.7967     1.7465 S.3     
  14 C14            1.5733     3.1803     0.2164 C.2     
  15 O15            2.7365     3.4786     0.4068 O.2     
  16 N16            0.6540     4.1455     0.0170 N.am    
  17 C17           -1.2429    -0.8393    -0.1090 C.3     
  18 C18            1.0187     5.4924     0.1257 C.ar    
  19 C19            2.2767     5.9079    -0.2908 C.ar    
  20 C20            2.6346     7.2382    -0.1825 C.ar    
  21 C21            1.7387     8.1570     0.3413 C.ar    
  22 C22            0.4845     7.7440     0.7566 C.ar    
  23 C23            0.1211     6.4158     0.6447 C.ar    
  24 F24            2.0901     9.4572     0.4470 F       
  25 Cl25           4.2071     7.7588    -0.7021 Cl      
  26 H26            4.0208     0.4949    -0.2813 H       
  27 H27            3.7928     1.5370     1.1461 H       
  28 H28           -0.0388    -2.6959    -0.5573 H       
  29 H29            0.7776    -5.0066    -0.3568 H       
  30 H30            2.9384    -5.4667     0.7234 H       
  31 H31            4.2907    -3.6270     1.6293 H       
  32 H32           -0.2603     3.9067    -0.2018 H       
  33 H33           -1.3625    -1.0901    -1.1630 H       
  34 H34           -1.1220    -1.7544     0.4707 H       
  35 H35           -2.1253    -0.3025     0.2392 H       
  36 H36            2.9749     5.1918    -0.6985 H       
  37 H37           -0.2120     8.4614     1.1648 H       
  38 H38           -0.8593     6.0952     0.9648 H       
@<TRIPOS>BOND
   1    1    2 1
   2    1    5 2
   3    2    3 1
   4    2   17 1
   5    3    4 2
   6    3    7 1
   7    4    5 1
   8    4    6 1
   9    5   14 1
  10    6   13 1
  11    6   26 1
  12    6   27 1
  13    7    8 ar
  14    7   12 ar
  15    8    9 ar
  16    8   28 1
  17    9   10 ar
  18    9   29 1
  19   10   11 ar
  20   10   30 1
  21   11   12 ar
  22   11   31 1
  23   12   13 1
  24   14   15 2
  25   14   16 am
  26   16   18 1
  27   16   32 1
  28   17   33 1
  29   17   34 1
  30   17   35 1
  31   18   19 ar
  32   18   23 ar
  33   19   20 ar
  34   19   36 1
  35   20   21 ar
  36   20   25 1
  37   21   22 ar
  38   21   24 1
  39   22   23 ar
  40   22   37 1
  41   23   38 1

#	End of record

