#	Name: ASD00070113
#	Creating user name:	WinNT
#	Creation time:	15. 06. 2019 18:30

#	Modifying user name:	WinNT
#	Modification time:	15. 06. 2019 18:30

#	Program:	/corina/corina34_cracker 3.40 0067  02.08.2006

@<TRIPOS>MOLECULE
ASD00070113
  76   81    0    0    0
SMALL
NO_CHARGES


@<TRIPOS>ATOM
   1 C1            -0.0179     1.4722     0.0101 C.2     
   2 C2             0.0021    -0.0041     0.0020 C.ar    
   3 C3             1.2204    -0.6878    -0.0133 C.ar    
   4 C4             1.2353    -2.0648    -0.0203 C.ar    
   5 C5             0.0397    -2.7748    -0.0127 C.ar    
   6 C6            -1.1748    -2.0976     0.0021 C.ar    
   7 C7            -1.1972    -0.7207     0.0155 C.ar    
   8 O8             1.0266     2.0944     0.0035 O.2     
   9 N9            -1.1942     2.1302     0.0193 N.am    
  10 N10            0.0586    -4.1726    -0.0204 N.pl3   
  11 C11           -1.0403    -4.9846    -0.0142 C.2     
  12 C12           -0.6180    -6.2647    -0.0256 C.2     
  13 C13            0.7917    -6.2456    -0.0393 C.2     
  14 C14            1.1791    -4.9543    -0.0413 C.2     
  15 C15           -1.2140     3.5950     0.0273 C.3     
  16 C16           -2.5311     4.0905    -0.5734 C.3     
  17 C17           -2.5518     5.6203    -0.5649 C.3     
  18 C18           -2.4262     6.1242     0.8742 C.3     
  19 C19           -1.1092     5.6287     1.4750 C.3     
  20 C20           -1.0884     4.0988     1.4665 C.3     
  21 C21           -2.4470     7.6540     0.8827 C.3     
  22 C22           -2.4470     8.1561     2.3279 C.3     
  23 N23           -2.4670     9.6250     2.3360 N.3     
  24 C24           -2.7057    10.1406     3.6901 C.3     
  25 C25           -2.8648    11.6618     3.6374 C.3     
  26 C26           -1.5940    12.2830     3.0513 C.3     
  27 C27           -1.3415    11.6933     1.6609 C.3     
  28 C28           -1.2265    10.1712     1.7709 C.3     
  29 O29           -0.1296    16.6433     4.2827 O.3     
  30 C30            0.9563    15.7440     4.5636 C.3     
  31 C31            0.2720    14.3571     4.5230 C.3     
  32 C32           -0.9147    14.6201     3.6163 C.ar    
  33 C33           -1.0646    15.9987     3.5321 C.ar    
  34 C34           -1.7677    13.7759     2.9412 C.ar    
  35 C35           -2.7843    14.2988     2.1612 C.ar    
  36 C36           -2.9387    15.6691     2.0635 C.ar    
  37 C37           -2.0871    16.5168     2.7415 C.ar    
  38 H38            2.1494    -0.1370    -0.0199 H       
  39 H39            2.1767    -2.5939    -0.0322 H       
  40 H40           -2.1015    -2.6522     0.0072 H       
  41 H41           -2.1408    -0.1955     0.0314 H       
  42 H42           -2.0275     1.6338     0.0205 H       
  43 H43           -2.0695    -4.6573    -0.0020 H       
  44 H44           -1.2448    -7.1442    -0.0245 H       
  45 H45            1.4422    -7.1076    -0.0505 H       
  46 H46            2.1990    -4.5991    -0.0546 H       
  47 H47           -0.3800     3.9729    -0.5640 H       
  48 H48           -2.6205     3.7315    -1.5987 H       
  49 H49           -3.3651     3.7126     0.0180 H       
  50 H50           -1.7178     5.9983    -1.1563 H       
  51 H51           -3.4901     5.9733    -0.9929 H       
  52 H52           -3.2602     5.7462     1.4656 H       
  53 H53           -0.2752     6.0066     0.8836 H       
  54 H54           -1.0197     5.9876     2.5003 H       
  55 H55           -1.9224     3.7209     2.0579 H       
  56 H56           -0.1502     3.7459     1.8945 H       
  57 H57           -1.5644     8.0322     0.3667 H       
  58 H58           -3.3442     8.0080     0.3750 H       
  59 H59           -3.3296     7.7779     2.8439 H       
  60 H60           -1.5498     7.8021     2.8356 H       
  61 H61           -3.6145     9.6941     4.0937 H       
  62 H62           -1.8609     9.8857     4.3300 H       
  63 H63           -3.7179    11.9169     3.0088 H       
  64 H64           -3.0265    12.0458     4.6446 H       
  65 H65           -0.7470    12.0607     3.7005 H       
  66 H66           -2.1706    11.9489     1.0012 H       
  67 H67           -0.4147    12.0999     1.2560 H       
  68 H68           -0.3887     9.9162     2.4198 H       
  69 H69           -1.0610     9.7470     0.7806 H       
  70 H70            1.7266    15.8171     3.7959 H       
  71 H71            1.3741    15.9397     5.5512 H       
  72 H72            0.9349    13.6081     4.0898 H       
  73 H73           -0.0569    14.0556     5.5175 H       
  74 H74           -3.4544    13.6387     1.6306 H       
  75 H75           -3.7300    16.0782     1.4528 H       
  76 H76           -2.2149    17.5861     2.6599 H       
@<TRIPOS>BOND
   1    1    2 1
   2    1    8 2
   3    1    9 am
   4    2    3 ar
   5    2    7 ar
   6    3    4 ar
   7    3   38 1
   8    4    5 ar
   9    4   39 1
  10    5    6 ar
  11    5   10 1
  12    6    7 ar
  13    6   40 1
  14    7   41 1
  15    9   15 1
  16    9   42 1
  17   10   11 1
  18   10   14 1
  19   11   12 2
  20   11   43 1
  21   12   13 1
  22   12   44 1
  23   13   14 2
  24   13   45 1
  25   14   46 1
  26   15   16 1
  27   15   20 1
  28   15   47 1
  29   16   17 1
  30   16   48 1
  31   16   49 1
  32   17   18 1
  33   17   50 1
  34   17   51 1
  35   18   19 1
  36   18   21 1
  37   18   52 1
  38   19   20 1
  39   19   53 1
  40   19   54 1
  41   20   55 1
  42   20   56 1
  43   21   22 1
  44   21   57 1
  45   21   58 1
  46   22   23 1
  47   22   59 1
  48   22   60 1
  49   23   24 1
  50   23   28 1
  51   24   25 1
  52   24   61 1
  53   24   62 1
  54   25   26 1
  55   25   63 1
  56   25   64 1
  57   26   27 1
  58   26   34 1
  59   26   65 1
  60   27   28 1
  61   27   66 1
  62   27   67 1
  63   28   68 1
  64   28   69 1
  65   29   30 1
  66   29   33 1
  67   30   31 1
  68   30   70 1
  69   30   71 1
  70   31   32 1
  71   31   72 1
  72   31   73 1
  73   32   33 ar
  74   32   34 ar
  75   33   37 ar
  76   34   35 ar
  77   35   36 ar
  78   35   74 1
  79   36   37 ar
  80   36   75 1
  81   37   76 1

#	End of record

