#	Name: ASD08710004
#	Creating user name:	WinNT
#	Creation time:	15. 06. 2019 21:19

#	Modifying user name:	WinNT
#	Modification time:	15. 06. 2019 21:19

#	Program:	/corina/corina34_cracker 3.40 0067  02.08.2006

@<TRIPOS>MOLECULE
ASD08710004
  32   33    0    0    0
SMALL
NO_CHARGES


@<TRIPOS>ATOM
   1 C1            -0.6693     1.5926     0.7049 C.ar    
   2 C2            -0.4322     0.2487     0.4854 C.ar    
   3 C3             0.3926     2.4657     0.8608 C.ar    
   4 C4             1.6913     1.9929     0.7969 C.ar    
   5 C5             1.9271     0.6489     0.5773 C.ar    
   6 C6             0.8657    -0.2230     0.4215 C.ar    
   7 S7             1.1672    -1.9364     0.1422 S.o2    
   8 O8             0.0106    -2.4468    -0.5067 O.2     
   9 O9             2.4731    -2.0292    -0.4104 O.2     
  10 N10            1.2336    -2.6706     1.6251 N.am    
  11 C11            0.0039    -3.0778     2.3216 C.3     
  12 C12            2.5242    -2.9382     2.2777 C.3     
  13 C13            2.5608    -4.4114     2.6983 C.3     
  14 N14            1.3774    -4.7138     3.5144 N.3     
  15 C15            0.1448    -4.5452     2.7403 C.3     
  16 Cl16           0.0955     4.1538     1.1361 Cl      
  17 C17           -1.1938    -2.9242     1.3821 C.3     
  18 H18           -1.6832     1.9617     0.7503 H       
  19 H19           -1.2610    -0.4330     0.3640 H       
  20 H20            2.5206     2.6741     0.9181 H       
  21 H21            2.9408     0.2798     0.5273 H       
  22 H22           -0.1406    -2.4545     3.2040 H       
  23 H23            3.3365    -2.7365     1.5794 H       
  24 H24            2.6281    -2.3036     3.1578 H       
  25 H25            2.5613    -5.0432     1.8101 H       
  26 H26            3.4625    -4.6011     3.2806 H       
  27 H27            1.4342    -5.6432     3.9031 H       
  28 H28           -0.7111    -4.8280     3.3531 H       
  29 H29            0.1827    -5.1779     1.8536 H       
  30 H30           -1.1064    -3.6372     0.5623 H       
  31 H31           -2.1147    -3.1151     1.9331 H       
  32 H32           -1.2137    -1.9107     0.9815 H       
@<TRIPOS>BOND
   1    1    2 ar
   2    1    3 ar
   3    1   18 1
   4    2    6 ar
   5    2   19 1
   6    3    4 ar
   7    3   16 1
   8    4    5 ar
   9    4   20 1
  10    5    6 ar
  11    5   21 1
  12    6    7 1
  13    7    8 2
  14    7    9 2
  15    7   10 am
  16   10   11 1
  17   10   12 1
  18   11   17 1
  19   11   15 1
  20   11   22 1
  21   12   13 1
  22   12   23 1
  23   12   24 1
  24   13   14 1
  25   13   25 1
  26   13   26 1
  27   14   15 1
  28   14   27 1
  29   15   28 1
  30   15   29 1
  31   17   30 1
  32   17   31 1
  33   17   32 1

#	End of record

