#	Name: ASD00850003
#	Creating user name:	WinNT
#	Creation time:	15. 06. 2019 18:53

#	Modifying user name:	WinNT
#	Modification time:	15. 06. 2019 18:53

#	Program:	/corina/corina34_cracker 3.40 0067  02.08.2006

@<TRIPOS>MOLECULE
ASD00850003
  33   36    0    0    0
SMALL
NO_CHARGES


@<TRIPOS>ATOM
   1 O1             0.0021    -0.0041     0.0020 O.2     
   2 C2            -0.0145     1.2161     0.0087 C.2     
   3 C3             1.1843     1.9667     0.0013 C.2     
   4 C4             1.1216     3.3258     0.0087 C.2     
   5 C5             2.3809     4.0971     0.0009 C.ar    
   6 C6             2.3485     5.4933     0.0082 C.ar    
   7 C7             3.5286     6.2074     0.0013 C.ar    
   8 C8             4.7426     5.5436    -0.0134 C.ar    
   9 C9             4.7821     4.1604    -0.0207 C.ar    
  10 C10            3.6098     3.4337    -0.0081 C.ar    
  11 O11           -0.0440     3.9899     0.0225 O.3     
  12 C12           -1.2336     3.3599     0.0304 C.ar    
  13 C13           -2.4412     4.0906     0.0444 C.ar    
  14 C14           -3.6742     3.3943     0.0519 C.ar    
  15 C15           -4.8740     4.1237     0.0657 C.ar    
  16 C16           -4.8373     5.4855     0.0718 C.ar    
  17 C17           -3.6244     6.1690     0.0644 C.ar    
  18 C18           -2.4410     5.4936     0.0505 C.ar    
  19 C19           -3.6851     1.9845     0.0449 C.ar    
  20 C20           -2.5193     1.2922     0.0311 C.ar    
  21 C21           -1.2857     1.9647     0.0186 C.ar    
  22 H22            2.1409     1.4655    -0.0098 H       
  23 H23            1.4016     6.0126     0.0189 H       
  24 H24            3.5050     7.2871     0.0069 H       
  25 H25            5.6636     6.1076    -0.0195 H       
  26 H26            5.7331     3.6487    -0.0325 H       
  27 H27            3.6421     2.3542    -0.0097 H       
  28 H28           -5.8224     3.6071     0.0712 H       
  29 H29           -5.7623     6.0428     0.0821 H       
  30 H30           -3.6215     7.2490     0.0695 H       
  31 H31           -1.5071     6.0359     0.0446 H       
  32 H32           -4.6257     1.4539     0.0510 H       
  33 H33           -2.5393     0.2124     0.0259 H       
@<TRIPOS>BOND
   1    1    2 2
   2    2    3 1
   3    2   21 1
   4    3    4 2
   5    3   22 1
   6    4    5 1
   7    4   11 1
   8    5    6 ar
   9    5   10 ar
  10    6    7 ar
  11    6   23 1
  12    7    8 ar
  13    7   24 1
  14    8    9 ar
  15    8   25 1
  16    9   10 ar
  17    9   26 1
  18   10   27 1
  19   11   12 1
  20   12   13 ar
  21   12   21 ar
  22   13   14 ar
  23   13   18 ar
  24   14   15 ar
  25   14   19 ar
  26   15   16 ar
  27   15   28 1
  28   16   17 ar
  29   16   29 1
  30   17   18 ar
  31   17   30 1
  32   18   31 1
  33   19   20 ar
  34   19   32 1
  35   20   21 ar
  36   20   33 1

#	End of record

