#	Name: ASD00431345
#	Creating user name:	WinNT
#	Creation time:	15. 06. 2019 18:35

#	Modifying user name:	WinNT
#	Modification time:	15. 06. 2019 18:35

#	Program:	/corina/corina34_cracker 3.40 0067  02.08.2006

@<TRIPOS>MOLECULE
ASD00431345
  32   33    0    0    0
SMALL
NO_CHARGES


@<TRIPOS>ATOM
   1 O1             2.2791     3.6947     2.1274 O.3     
   2 C2             3.2259     3.2876     3.0037 C.2     
   3 C3             3.9668     2.2886     2.3948 C.2     
   4 C4             3.4285     2.1120     1.1198 C.2     
   5 C5             2.3944     2.9924     0.9919 C.2     
   6 C6             3.4229     3.7899     4.3020 C.2     
   7 O7             2.7039     4.6725     4.7277 O.2     
   8 O8             1.6125     3.1332    -0.1025 O.3     
   9 C9             0.5580     3.9881    -0.0278 C.ar    
  10 C10            0.7780     5.3493     0.1251 C.ar    
  11 C11           -0.2933     6.2177     0.2005 C.ar    
  12 C12           -1.5892     5.7288     0.1233 C.ar    
  13 C13           -1.8092     4.3677    -0.0290 C.ar    
  14 C14           -0.7380     3.4998    -0.1102 C.ar    
  15 O15           -2.6438     6.5838     0.1976 O.3     
  16 C16           -2.3510     7.9513     0.4912 C.3     
  17 C17           -2.2137     8.7354    -0.8154 C.3     
  18 C18           -3.4852     8.5477     1.3271 C.3     
  19 H19            4.7998     1.7512     2.8233 H       
  20 H20            3.7677     1.4094     0.3730 H       
  21 H21            4.2132     3.3915     4.9210 H       
  22 H22            1.7869     5.7299     0.1855 H       
  23 H23           -0.1222     7.2773     0.3198 H       
  24 H24           -2.8182     3.9872    -0.0884 H       
  25 H25           -0.9092     2.4406    -0.2333 H       
  26 H26           -1.4173     8.0109     1.0505 H       
  27 H27           -3.1473     8.6758    -1.3747 H       
  28 H28           -1.9903     9.7785    -0.5914 H       
  29 H29           -1.4056     8.3106    -1.4109 H       
  30 H30           -3.5830     7.9891     2.2580 H       
  31 H31           -3.2618     9.5908     1.5511 H       
  32 H32           -4.4189     8.4881     0.7678 H       
@<TRIPOS>BOND
   1    1    2 1
   2    1    5 1
   3    2    3 2
   4    2    6 1
   5    3    4 1
   6    3   19 1
   7    4    5 2
   8    4   20 1
   9    5    8 1
  10    6    7 2
  11    6   21 1
  12    8    9 1
  13    9   10 ar
  14    9   14 ar
  15   10   11 ar
  16   10   22 1
  17   11   12 ar
  18   11   23 1
  19   12   13 ar
  20   12   15 1
  21   13   14 ar
  22   13   24 1
  23   14   25 1
  24   15   16 1
  25   16   17 1
  26   16   18 1
  27   16   26 1
  28   17   27 1
  29   17   28 1
  30   17   29 1
  31   18   30 1
  32   18   31 1
  33   18   32 1

#	End of record

