#	Name: ASD01150680
#	Creating user name:	WinNT
#	Creation time:	15. 06. 2019 19:04

#	Modifying user name:	WinNT
#	Modification time:	15. 06. 2019 19:04

#	Program:	/corina/corina34_cracker 3.40 0067  02.08.2006

@<TRIPOS>MOLECULE
ASD01150680
  43   46    0    0    0
SMALL
NO_CHARGES


@<TRIPOS>ATOM
   1 C1            -0.0221     1.5103    -0.0049 C.2     
   2 C2            -0.7546     1.3219     1.2986 C.3     
   3 C3             3.7163     3.4672    -0.0655 C.ar    
   4 C4             2.5721     4.2569    -0.1448 C.ar    
   5 C5             1.3013     3.6240    -0.1277 C.ar    
   6 C6             1.2603     2.2188    -0.0290 C.ar    
   7 C7             2.4681     1.5106     0.0464 C.ar    
   8 N8             3.6186     2.1341     0.0261 N.ar    
   9 C9             2.8762     5.6881    -0.2367 C.2     
  10 C10            4.1722     5.9639    -0.2284 C.2     
  11 S11            5.1403     4.4965    -0.1011 S.3     
  12 C12            4.3989     7.4701    -0.3263 C.3     
  13 C13            3.0432     8.0988     0.0523 C.3     
  14 C14            2.0620     6.9775    -0.3424 C.3     
  15 C15            2.4410     0.0076     0.1529 C.3     
  16 C16            0.0569     4.4163    -0.2109 C.ar    
  17 C17           -0.7843     4.2849    -1.3183 C.ar    
  18 C18           -1.9439     5.0251    -1.3918 C.ar    
  19 C19           -2.2770     5.9017    -0.3665 C.ar    
  20 C20           -1.4428     6.0356     0.7364 C.ar    
  21 C21           -0.2844     5.2944     0.8205 C.ar    
  22 O22           -3.4206     6.6299    -0.4429 O.3     
  23 C23           -3.7022     7.5117     0.6457 C.3     
  24 F24           -1.9788     0.6890     1.0583 F       
  25 F25            0.0177     0.5327     2.1576 F       
  26 F26           -0.9825     2.5691     1.8899 F       
  27 O27           -0.4918     1.0708    -1.0337 O.2     
  28 H28            5.1717     7.7839     0.3755 H       
  29 H29            4.6744     7.7469    -1.3439 H       
  30 H30            2.9925     8.3039     1.1216 H       
  31 H31            2.8565     9.0032    -0.5267 H       
  32 H32            1.7120     7.1223    -1.3645 H       
  33 H33            1.2187     6.9512     0.3478 H       
  34 H34            2.3599    -0.4258    -0.8439 H       
  35 H35            3.3592    -0.3397     0.6266 H       
  36 H36            1.5842    -0.2986     0.7531 H       
  37 H37           -0.5258     3.6043    -2.1160 H       
  38 H38           -2.5948     4.9242    -2.2477 H       
  39 H39           -1.7048     6.7186     1.5310 H       
  40 H40            0.3612     5.3958     1.6803 H       
  41 H41           -2.8970     8.2402     0.7408 H       
  42 H42           -4.6420     8.0312     0.4587 H       
  43 H43           -3.7824     6.9363     1.5680 H       
@<TRIPOS>BOND
   1    1    2 1
   2    1    6 1
   3    1   27 2
   4    2   24 1
   5    2   25 1
   6    2   26 1
   7    3    4 ar
   8    3    8 ar
   9    3   11 1
  10    4    5 ar
  11    4    9 1
  12    5    6 ar
  13    5   16 1
  14    6    7 ar
  15    7    8 ar
  16    7   15 1
  17    9   10 2
  18    9   14 1
  19   10   11 1
  20   10   12 1
  21   12   13 1
  22   12   28 1
  23   12   29 1
  24   13   14 1
  25   13   30 1
  26   13   31 1
  27   14   32 1
  28   14   33 1
  29   15   34 1
  30   15   35 1
  31   15   36 1
  32   16   17 ar
  33   16   21 ar
  34   17   18 ar
  35   17   37 1
  36   18   19 ar
  37   18   38 1
  38   19   20 ar
  39   19   22 1
  40   20   21 ar
  41   20   39 1
  42   21   40 1
  43   22   23 1
  44   23   41 1
  45   23   42 1
  46   23   43 1

#	End of record

