#	Name: ASD07300161
#	Creating user name:	WinNT
#	Creation time:	15. 06. 2019 21:09

#	Modifying user name:	WinNT
#	Modification time:	15. 06. 2019 21:09

#	Program:	/corina/corina34_cracker 3.40 0067  02.08.2006

@<TRIPOS>MOLECULE
ASD07300161
  49   53    0    0    0
SMALL
NO_CHARGES


@<TRIPOS>ATOM
   1 C1            -0.0118     1.4012    -0.1496 C.ar    
   2 C2             0.0095     0.0033    -0.1651 C.ar    
   3 C3             1.2270    -0.6575    -0.2325 C.ar    
   4 C4             2.3852     0.1046    -0.2823 C.ar    
   5 C5             2.2899     1.4834    -0.2633 C.ar    
   6 N6             1.1185     2.0863    -0.1988 N.ar    
   7 C7            -2.1050     0.6647    -0.0442 C.2     
   8 N8            -1.3485     1.7776    -0.0736 N.am    
   9 N9            -1.3139    -0.4235    -0.1032 N.am    
  10 O10           -3.3197     0.6450     0.0216 O.2     
  11 C11           -1.8252     3.0887    -0.0344 C.ar    
  12 C12           -3.1943     3.3274     0.0419 C.ar    
  13 C13           -3.6683     4.6185     0.0812 C.ar    
  14 C14           -2.7719     5.6923     0.0443 C.ar    
  15 C15           -1.3963     5.4481    -0.0325 C.ar    
  16 C16           -0.9300     4.1539    -0.0660 C.ar    
  17 C17           -3.2755     7.0771     0.0857 C.2     
  18 O18           -4.4713     7.2910     0.0334 O.2     
  19 C19           -2.3269     8.2055     0.1907 C.2     
  20 N20           -1.0342     8.0897     0.3687 N.2     
  21 C21           -0.4709     9.3094     0.4189 C.ar    
  22 C22           -1.5046    10.2544     0.2582 C.ar    
  23 N23           -2.6659     9.5312     0.1106 N.pl3   
  24 C24            0.8470     9.7553     0.5879 C.ar    
  25 C25            1.1163    11.0927     0.5952 C.ar    
  26 C26            0.0970    12.0233     0.4372 C.ar    
  27 C27           -1.2071    11.6114     0.2694 C.ar    
  28 C28           -4.0111    10.0754    -0.0906 C.3     
  29 C29           -1.7675    -1.8165    -0.0953 C.3     
  30 C30           -1.8530    -2.3167     1.3481 C.3     
  31 H31            1.2722    -1.7364    -0.2456 H       
  32 H32            3.3516    -0.3746    -0.3350 H       
  33 H33            3.1908     2.0778    -0.3017 H       
  34 H34           -3.8855     2.4980     0.0700 H       
  35 H35           -4.7308     4.8029     0.1401 H       
  36 H36           -0.7012     6.2742    -0.0612 H       
  37 H37            0.1318     3.9645    -0.1208 H       
  38 H38            1.6479     9.0414     0.7124 H       
  39 H39            2.1333    11.4319     0.7257 H       
  40 H40            0.3286    13.0782     0.4460 H       
  41 H41           -1.9945    12.3402     0.1466 H       
  42 H42           -4.4865    10.2359     0.8770 H       
  43 H43           -3.9434    11.0236    -0.6240 H       
  44 H44           -4.6042     9.3716    -0.6745 H       
  45 H45           -2.7508    -1.8811    -0.5611 H       
  46 H46           -1.0607    -2.4319    -0.6518 H       
  47 H47           -2.5598    -1.7013     1.9047 H       
  48 H48           -2.1905    -3.3532     1.3540 H       
  49 H49           -0.8697    -2.2522     1.8139 H       
@<TRIPOS>BOND
   1    1    2 ar
   2    1    6 ar
   3    1    8 1
   4    2    3 ar
   5    2    9 1
   6    3    4 ar
   7    3   31 1
   8    4    5 ar
   9    4   32 1
  10    5    6 ar
  11    5   33 1
  12    7    8 am
  13    7    9 am
  14    7   10 2
  15    8   11 1
  16    9   29 1
  17   11   12 ar
  18   11   16 ar
  19   12   13 ar
  20   12   34 1
  21   13   14 ar
  22   13   35 1
  23   14   15 ar
  24   14   17 1
  25   15   16 ar
  26   15   36 1
  27   16   37 1
  28   17   18 2
  29   17   19 1
  30   19   20 2
  31   19   23 1
  32   20   21 1
  33   21   22 ar
  34   21   24 ar
  35   22   23 1
  36   22   27 ar
  37   23   28 1
  38   24   25 ar
  39   24   38 1
  40   25   26 ar
  41   25   39 1
  42   26   27 ar
  43   26   40 1
  44   27   41 1
  45   28   42 1
  46   28   43 1
  47   28   44 1
  48   29   30 1
  49   29   45 1
  50   29   46 1
  51   30   47 1
  52   30   48 1
  53   30   49 1

#	End of record

