#	Name: ASD01816381
#	Creating user name:	WinNT
#	Creation time:	15. 06. 2019 19:35

#	Modifying user name:	WinNT
#	Modification time:	15. 06. 2019 19:35

#	Program:	/corina/corina34_cracker 3.40 0067  02.08.2006

@<TRIPOS>MOLECULE
ASD01816381
  53   59    0    0    0
SMALL
NO_CHARGES


@<TRIPOS>ATOM
   1 C1            -0.0167     1.3813     0.0096 C.ar    
   2 C2             0.0021    -0.0041     0.0020 C.ar    
   3 C3             1.1983    -0.6909    -0.0131 C.ar    
   4 C4             2.4015     0.0060    -0.0209 C.ar    
   5 C5             2.3790     1.4106    -0.0132 C.ar    
   6 C6             1.1662     2.0917     0.0022 C.ar    
   7 N7             3.6052    -0.6771    -0.0356 N.pl3   
   8 C8             4.7970    -0.0584    -0.0437 C.2     
   9 C9             4.8999     1.3104    -0.0378 C.2     
  10 C10            3.6670     2.1302    -0.0217 C.2     
  11 C11            5.9971     2.2731    -0.0436 C.2     
  12 N12            5.4244     3.4962    -0.0323 N.am    
  13 N13            4.0322     3.3799    -0.0193 N.2     
  14 O14            7.1909     2.0232    -0.0559 O.2     
  15 C15            3.5778    -2.1418    -0.0422 C.3     
  16 C16            3.5548    -2.6374    -1.4652 C.ar    
  17 C17            4.7423    -2.8867    -2.1283 C.ar    
  18 C18            4.7245    -3.3406    -3.4326 C.ar    
  19 C19            3.5126    -3.5469    -4.0778 C.ar    
  20 C20            2.3219    -3.2962    -3.4093 C.ar    
  21 C21            2.3461    -2.8474    -2.1033 C.ar    
  22 N22            3.4912    -4.0070    -5.4018 N.pl3   
  23 C23            2.3860    -4.2483    -6.1428 C.2     
  24 C24            2.7922    -4.6777    -7.3601 C.2     
  25 C25            4.1912    -4.7000    -7.3644 C.2     
  26 N26            4.6110    -4.2926    -6.1936 N.2     
  27 C27            6.1180     4.6942    -0.0328 C.2     
  28 N28            7.4204     4.8055    -0.0499 N.2     
  29 O29            5.5501     5.9131    -0.0216 O.3     
  30 C30            6.5368     6.8381    -0.0261 C.ar    
  31 C31            7.7460     6.1264    -0.0444 C.ar    
  32 C32            6.5528     8.2237    -0.0194 C.ar    
  33 C33            7.7569     8.8977    -0.0271 C.ar    
  34 C34            8.9542     8.1983    -0.0416 C.ar    
  35 C35            8.9568     6.8210    -0.0534 C.ar    
  36 H36           -0.9602     1.9069     0.0170 H       
  37 H37           -0.9289    -0.5515     0.0083 H       
  38 H38            1.2003    -1.7709    -0.0186 H       
  39 H39            1.1506     3.1715     0.0084 H       
  40 H40            5.6982    -0.6535    -0.0547 H       
  41 H41            4.4657    -2.5241     0.4614 H       
  42 H42            2.6861    -2.4909     0.4786 H       
  43 H43            5.6848    -2.7260    -1.6259 H       
  44 H44            5.6523    -3.5344    -3.9503 H       
  45 H45            1.3776    -3.4554    -3.9087 H       
  46 H46            1.4202    -2.6521    -1.5827 H       
  47 H47            1.3630    -4.1216    -5.8207 H       
  48 H48            2.1498    -4.9543    -8.1831 H       
  49 H49            4.8170    -4.9978    -8.1927 H       
  50 H50            5.6243     8.7752    -0.0084 H       
  51 H51            7.7669     9.9777    -0.0222 H       
  52 H52            9.8904     8.7369    -0.0479 H       
  53 H53            9.8918     6.2806    -0.0642 H       
@<TRIPOS>BOND
   1    1    2 ar
   2    1    6 ar
   3    1   36 1
   4    2    3 ar
   5    2   37 1
   6    3    4 ar
   7    3   38 1
   8    4    5 ar
   9    4    7 1
  10    5    6 ar
  11    5   10 1
  12    6   39 1
  13    7    8 1
  14    7   15 1
  15    8    9 2
  16    8   40 1
  17    9   10 1
  18    9   11 1
  19   10   13 2
  20   11   12 am
  21   11   14 2
  22   12   13 1
  23   12   27 1
  24   15   16 1
  25   15   41 1
  26   15   42 1
  27   16   17 ar
  28   16   21 ar
  29   17   18 ar
  30   17   43 1
  31   18   19 ar
  32   18   44 1
  33   19   20 ar
  34   19   22 1
  35   20   21 ar
  36   20   45 1
  37   21   46 1
  38   22   23 1
  39   22   26 1
  40   23   24 2
  41   23   47 1
  42   24   25 1
  43   24   48 1
  44   25   26 2
  45   25   49 1
  46   27   29 1
  47   27   28 2
  48   28   31 1
  49   29   30 1
  50   30   31 ar
  51   30   32 ar
  52   31   35 ar
  53   32   33 ar
  54   32   50 1
  55   33   34 ar
  56   33   51 1
  57   34   35 ar
  58   34   52 1
  59   35   53 1

#	End of record

