#	Name: ASD04840077
#	Creating user name:	WinNT
#	Creation time:	15. 06. 2019 20:52

#	Modifying user name:	WinNT
#	Modification time:	15. 06. 2019 20:52

#	Program:	/corina/corina34_cracker 3.40 0067  02.08.2006

@<TRIPOS>MOLECULE
ASD04840077
  34   37    0    0    0
SMALL
NO_CHARGES


@<TRIPOS>ATOM
   1 C1            -0.0170     1.4035     0.0098 C.ar    
   2 C2             1.1926     2.1196     0.0021 C.ar    
   3 C3             2.3989     1.4269    -0.0128 C.ar    
   4 C4             2.4075     0.0474    -0.0203 C.ar    
   5 C5             1.2235    -0.6696    -0.0128 C.ar    
   6 C6             0.0021    -0.0041     0.0020 C.ar    
   7 C7            -1.2637    -0.7676     0.0096 C.ar    
   8 C8            -2.1550    -0.6884    -1.0921 C.ar    
   9 C9            -3.3616    -1.4338    -1.0544 C.ar    
  10 C10           -3.6528    -2.2312     0.0633 C.ar    
  11 C11           -2.7791    -2.2887     1.1082 C.ar    
  12 C12           -1.5888    -1.5714     1.0890 C.ar    
  13 N13            0.8712     3.4590     0.0123 N.pl3   
  14 C14           -0.4878     3.6104     0.0261 C.2     
  15 C15           -1.0819     2.4047     0.0311 C.2     
  16 N16           -1.8725     0.0690    -2.1474 N.ar    
  17 C17           -2.6961     0.1476    -3.1762 C.ar    
  18 C18           -3.9052    -0.5637    -3.2023 C.ar    
  19 C19           -4.2481    -1.3573    -2.1460 C.ar    
  20 C20           -2.3360     1.0060    -4.3281 C.2     
  21 O21           -3.0838     1.0881    -5.2813 O.2     
  22 O22           -1.1792     1.6956    -4.3184 O.3     
  23 H23            3.3319     1.9709    -0.0187 H       
  24 H24            3.3500    -0.4798    -0.0325 H       
  25 H25            1.2481    -1.7493    -0.0193 H       
  26 H26           -4.5704    -2.7998     0.0958 H       
  27 H27           -3.0135    -2.9057     1.9631 H       
  28 H28           -0.9116    -1.6383     1.9276 H       
  29 H29            1.5131     4.1863     0.0103 H       
  30 H30           -1.0065     4.5577     0.0361 H       
  31 H31           -2.1445     2.2122     0.0462 H       
  32 H32           -4.5627    -0.4833    -4.0553 H       
  33 H33           -5.1743    -1.9128    -2.1478 H       
  34 H34           -0.9875     2.2424    -5.0926 H       
@<TRIPOS>BOND
   1    1    6 ar
   2    1    2 ar
   3    1   15 1
   4    2    3 ar
   5    2   13 1
   6    3    4 ar
   7    3   23 1
   8    4    5 ar
   9    4   24 1
  10    5    6 ar
  11    5   25 1
  12    6    7 1
  13    7    8 ar
  14    7   12 ar
  15    8   16 ar
  16    8    9 ar
  17    9   10 ar
  18    9   19 ar
  19   10   11 ar
  20   10   26 1
  21   11   12 ar
  22   11   27 1
  23   12   28 1
  24   13   14 1
  25   13   29 1
  26   14   15 2
  27   14   30 1
  28   15   31 1
  29   16   17 ar
  30   17   18 ar
  31   17   20 1
  32   18   19 ar
  33   18   32 1
  34   19   33 1
  35   20   21 2
  36   20   22 1
  37   22   34 1

#	End of record

