#	Name: ASD00431181
#	Creating user name:	WinNT
#	Creation time:	15. 06. 2019 18:35

#	Modifying user name:	WinNT
#	Modification time:	15. 06. 2019 18:35

#	Program:	/corina/corina34_cracker 3.40 0067  02.08.2006

@<TRIPOS>MOLECULE
ASD00431181
  52   54    0    0    0
SMALL
NO_CHARGES


@<TRIPOS>ATOM
   1 N1            -1.0292     0.9602     1.6506 N.am    
   2 C2            -1.2611    -0.3318     1.9562 C.2     
   3 O3            -0.3316    -1.0716     2.2153 O.2     
   4 N4            -2.5234    -0.8039     1.9747 N.am    
   5 C5            -2.7755    -2.2083     2.3068 C.3     
   6 C6             0.3428     1.4732     1.6306 C.3     
   7 C7             0.9735     1.1897     0.2658 C.3     
   8 O8            -0.5553     3.8430     1.3885 O.3     
   9 N9            -0.3166     4.9691     1.7582 N.2     
  10 C10            0.7392     5.0044     2.5333 C.2     
  11 C11            1.1996     3.6617     2.6352 C.2     
  12 C12            0.3269     2.9598     1.8775 C.2     
  13 C13            2.5241     6.1015     3.8920 C.ar    
  14 C14            1.3350     6.2024     3.1746 C.ar    
  15 C15            0.7102     7.4494     3.0668 C.ar    
  16 C16            1.3028     8.5361     3.6805 C.ar    
  17 C17            2.4910     8.3566     4.3795 C.ar    
  18 N18            3.0567     7.1629     4.4626 N.ar    
  19 O19            3.0785     9.4189     4.9840 O.3     
  20 C20            4.4001     9.1289     6.9452 C.ar    
  21 C21            4.2922     9.2305     5.5674 C.ar    
  22 C22            5.4419     9.1370     4.7880 C.ar    
  23 C23            6.6557     8.9448     5.4244 C.ar    
  24 C24            6.6866     8.8523     6.8095 C.ar    
  25 N25            5.5742     8.9457     7.5183 N.ar    
  26 O26            7.8722     8.6633     7.4431 O.3     
  27 C27            7.8391     8.5762     8.8691 C.3     
  28 C28            8.9771     7.6745     9.3515 C.3     
  29 C29            8.0060     9.9735     9.4694 C.3     
  30 H30           -1.7705     1.5493     1.4401 H       
  31 H31           -3.2650    -0.2137     1.7680 H       
  32 H32           -3.8473    -2.4034     2.2709 H       
  33 H33           -2.2653    -2.8490     1.5876 H       
  34 H34           -2.4015    -2.4173     3.3091 H       
  35 H35            0.9259     0.9818     2.4095 H       
  36 H36            0.3904     1.6811    -0.5131 H       
  37 H37            1.9944     1.5714     0.2509 H       
  38 H38            0.9850     0.1144     0.0872 H       
  39 H39            2.0490     3.2897     3.1888 H       
  40 H40            3.0124     5.1428     3.9853 H       
  41 H41           -0.2127     7.5600     2.5169 H       
  42 H42            0.8485     9.5139     3.6176 H       
  43 H43            3.5134     9.2049     7.5571 H       
  44 H44            5.3878     9.2123     3.7120 H       
  45 H45            7.5675     8.8674     4.8508 H       
  46 H46            6.8841     8.1566     9.1853 H       
  47 H47            9.9321     8.0941     9.0352 H       
  48 H48            8.9518     7.6080    10.4392 H       
  49 H49            8.8581     6.6790     8.9238 H       
  50 H50            8.9610    10.3931     9.1531 H       
  51 H51            7.1953    10.6159     9.1257 H       
  52 H52            7.9808     9.9071    10.5571 H       
@<TRIPOS>BOND
   1    1    2 am
   2    1    6 1
   3    1   30 1
   4    2    3 2
   5    2    4 am
   6    4    5 1
   7    4   31 1
   8    5   32 1
   9    5   33 1
  10    5   34 1
  11    6    7 1
  12    6   12 1
  13    6   35 1
  14    7   36 1
  15    7   37 1
  16    7   38 1
  17    8    9 1
  18    8   12 1
  19    9   10 2
  20   10   11 1
  21   10   14 1
  22   11   12 2
  23   11   39 1
  24   13   14 ar
  25   13   18 ar
  26   13   40 1
  27   14   15 ar
  28   15   16 ar
  29   15   41 1
  30   16   17 ar
  31   16   42 1
  32   17   18 ar
  33   17   19 1
  34   19   21 1
  35   20   21 ar
  36   20   25 ar
  37   20   43 1
  38   21   22 ar
  39   22   23 ar
  40   22   44 1
  41   23   24 ar
  42   23   45 1
  43   24   25 ar
  44   24   26 1
  45   26   27 1
  46   27   28 1
  47   27   29 1
  48   27   46 1
  49   28   47 1
  50   28   48 1
  51   28   49 1
  52   29   50 1
  53   29   51 1
  54   29   52 1

#	End of record

