#	Name: ASD02508263
#	Creating user name:	WinNT
#	Creation time:	15. 06. 2019 20:24

#	Modifying user name:	WinNT
#	Modification time:	15. 06. 2019 20:24

#	Program:	/corina/corina34_cracker 3.40 0067  02.08.2006

@<TRIPOS>MOLECULE
ASD02508263
  33   35    0    0    0
SMALL
NO_CHARGES


@<TRIPOS>ATOM
   1 C1             0.1409     0.8015    -0.2005 C.ar    
   2 C2            -0.0135    -0.5801    -0.3115 C.ar    
   3 C3            -1.2774    -1.1450    -0.2440 C.ar    
   4 C4            -2.3831    -0.3364    -0.0667 C.ar    
   5 C5            -2.2314     1.0360     0.0436 C.ar    
   6 C6            -0.9734     1.6054    -0.0181 C.ar    
   7 S7            -3.9908    -1.0524     0.0187 S.o2    
   8 N8            -4.5897    -0.7336     1.5293 N.am    
   9 C9            -4.0080    -1.3302     2.6524 C.ar    
  10 O10            1.4663     1.0678    -0.3004 O.3     
  11 C11            2.1363    -0.0832    -0.4676 C.2     
  12 N12            1.2654    -1.1118    -0.4794 N.am    
  13 O13           -4.8019    -0.3278    -0.8957 O.2     
  14 O14           -3.8074    -2.4598    -0.0514 O.2     
  15 O15            3.3420    -0.1825    -0.5899 O.2     
  16 C16           -4.8020    -1.7126     3.7288 C.ar    
  17 C17           -2.6378    -1.5473     2.6935 C.ar    
  18 C18           -2.0657    -2.1370     3.8047 C.ar    
  19 C19           -2.8560    -2.5114     4.8753 C.ar    
  20 C20           -4.2228    -2.3019     4.8370 C.ar    
  21 Cl21          -3.6267     2.0447     0.2657 Cl      
  22 C22            1.6005    -2.5290    -0.6387 C.3     
  23 F23           -6.1369    -1.5080     3.6913 F       
  24 H24           -1.3974    -2.2148    -0.3302 H       
  25 H25           -0.8596     2.6759     0.0684 H       
  26 H26           -5.3441    -0.1331     1.6351 H       
  27 H27           -2.0192    -1.2560     1.8576 H       
  28 H28           -0.9995    -2.3059     3.8366 H       
  29 H29           -2.4057    -2.9723     5.7420 H       
  30 H30           -4.8373    -2.5953     5.6753 H       
  31 H31            2.6795    -2.6370    -0.7494 H       
  32 H32            1.2682    -3.0819     0.2400 H       
  33 H33            1.1031    -2.9226    -1.5252 H       
@<TRIPOS>BOND
   1    1    2 ar
   2    1   10 1
   3    1    6 ar
   4    2    3 ar
   5    2   12 1
   6    3    4 ar
   7    3   24 1
   8    4    5 ar
   9    4    7 1
  10    5    6 ar
  11    5   21 1
  12    6   25 1
  13    7    8 am
  14    7   13 2
  15    7   14 2
  16    8    9 1
  17    8   26 1
  18    9   16 ar
  19    9   17 ar
  20   10   11 1
  21   11   12 am
  22   11   15 2
  23   12   22 1
  24   16   23 1
  25   16   20 ar
  26   17   18 ar
  27   17   27 1
  28   18   19 ar
  29   18   28 1
  30   19   20 ar
  31   19   29 1
  32   20   30 1
  33   22   31 1
  34   22   32 1
  35   22   33 1

#	End of record

