#	Name: ASD03430436
#	Creating user name:	WinNT
#	Creation time:	15. 06. 2019 20:41

#	Modifying user name:	WinNT
#	Modification time:	15. 06. 2019 20:41

#	Program:	/corina/corina34_cracker 3.40 0067  02.08.2006

@<TRIPOS>MOLECULE
ASD03430436
  19   20    0    0    0
SMALL
NO_CHARGES


@<TRIPOS>ATOM
   1 O1            -0.0161     1.3380     0.0094 O.3     
   2 C2             0.0021    -0.0041     0.0020 C.2     
   3 N3             1.2787    -0.4360    -0.0125 N.am    
   4 C4             2.1026     0.6918    -0.0143 C.ar    
   5 C5             1.2577     1.8017    -0.0003 C.ar    
   6 C6             3.4773     0.8643    -0.0261 C.ar    
   7 C7             4.0113     2.1384    -0.0240 C.ar    
   8 C8             3.1735     3.2450    -0.0100 C.ar    
   9 C9             1.7978     3.0777     0.0018 C.ar    
  10 O10           -0.9811    -0.7196     0.0079 O.2     
  11 C11            1.7211    -1.8325    -0.0238 C.3     
  12 O12            3.7040     4.4969    -0.0075 O.3     
  13 H13            4.1303     0.0042    -0.0366 H       
  14 H14            5.0828     2.2737    -0.0328 H       
  15 H15            1.1479     3.9402     0.0125 H       
  16 H16            0.8511    -2.4893    -0.0191 H       
  17 H17            2.3124    -2.0191    -0.9202 H       
  18 H18            2.3288    -2.0283     0.8596 H       
  19 H19            3.8496     4.8642    -0.8901 H       
@<TRIPOS>BOND
   1    1    2 1
   2    1    5 1
   3    2    3 am
   4    2   10 2
   5    3    4 1
   6    3   11 1
   7    4    5 ar
   8    4    6 ar
   9    5    9 ar
  10    6    7 ar
  11    6   13 1
  12    7    8 ar
  13    7   14 1
  14    8    9 ar
  15    8   12 1
  16    9   15 1
  17   11   16 1
  18   11   17 1
  19   11   18 1
  20   12   19 1

#	End of record

