#	Name: ASD03330848
#	Creating user name:	WinNT
#	Creation time:	15. 06. 2019 20:38

#	Modifying user name:	WinNT
#	Modification time:	15. 06. 2019 20:38

#	Program:	/corina/corina34_cracker 3.40 0067  02.08.2006

@<TRIPOS>MOLECULE
ASD03330848
  62   64    0    0    0
SMALL
NO_CHARGES


@<TRIPOS>ATOM
   1 N1             0.0560     0.9390    -0.1296 N.pl3   
   2 C2            -0.0843    -0.3873     0.1323 C.2     
   3 C3             1.0215    -1.3216     0.5488 C.3     
   4 N4             1.8028    -0.6941     1.6260 N.3     
   5 C5             2.8934     0.1194     1.0852 C.3     
   6 C6             2.4890     0.7646    -0.2372 C.3     
   7 C7             1.3008     1.7040    -0.0138 C.3     
   8 C8            -1.1676     1.4136    -0.5026 C.2     
   9 N9            -2.0316     0.4271    -0.4560 N.2     
  10 C10           -1.3955    -0.6985    -0.0647 C.2     
  11 C11           -2.0101    -2.0256     0.1157 C.2     
  12 O12           -1.3289    -2.9678     0.4728 O.2     
  13 N13           -3.3270    -2.1954    -0.1151 N.am    
  14 C14           -0.9991     3.8770    -0.1316 C.ar    
  15 C15           -1.4698     2.8080    -0.8945 C.ar    
  16 C16           -2.2321     3.0765    -2.0365 C.ar    
  17 C17           -2.4863     4.3981    -2.3598 C.ar    
  18 C18           -1.9836     5.4014    -1.5516 C.ar    
  19 N19           -1.2680     5.1181    -0.4800 N.ar    
  20 C20           -2.7623     1.9556    -2.8929 C.3     
  21 C21            2.3137    -1.7039     2.5626 C.3     
  22 C22           -5.1728    -3.6174    -0.7937 C.2     
  23 C23           -3.9380    -3.5148     0.0642 C.3     
  24 C24           -4.3206    -3.7043     1.5334 C.3     
  25 C25           -5.3674    -2.6600     1.9266 C.3     
  26 O26           -5.7908    -2.6165    -1.0890 O.2     
  27 N27           -5.5902    -4.8213    -1.2327 N.am    
  28 C28           -6.8485    -4.9346    -1.9744 C.3     
  29 C29           -4.8991    -5.1065     1.7330 C.3     
  30 C30           -3.0779    -3.5357     2.4098 C.3     
  31 H31            0.5923    -2.2572     0.9075 H       
  32 H32            1.6708    -1.5207    -0.3038 H       
  33 H33            3.1470     0.9004     1.8020 H       
  34 H34            3.7658    -0.5135     0.9229 H       
  35 H35            3.3299     1.3324    -0.6355 H       
  36 H36            2.2081    -0.0121    -0.9485 H       
  37 H37            1.3144     2.4938    -0.7649 H       
  38 H38            1.3667     2.1445     0.9811 H       
  39 H39           -3.8703    -1.4440    -0.3999 H       
  40 H40           -0.4133     3.6848     0.7551 H       
  41 H41           -3.0707     4.6432    -3.2343 H       
  42 H42           -2.1804     6.4335    -1.8014 H       
  43 H43           -3.7475     1.6585    -2.5335 H       
  44 H44           -2.8392     2.2931    -3.9265 H       
  45 H45           -2.0837     1.1043    -2.8382 H       
  46 H46            2.8980    -2.4440     2.0159 H       
  47 H47            2.9452    -1.2211     3.3084 H       
  48 H48            1.4769    -2.1958     3.0586 H       
  49 H49           -3.2269    -4.2873    -0.2286 H       
  50 H50           -6.2527    -2.7800     1.3022 H       
  51 H51           -5.6399    -2.7949     2.9733 H       
  52 H52           -4.9552    -1.6610     1.7844 H       
  53 H53           -5.0575    -5.6128    -1.0575 H       
  54 H54           -7.6705    -4.5819    -1.3515 H       
  55 H55           -6.7926    -4.3293    -2.8792 H       
  56 H56           -7.0185    -5.9768    -2.2445 H       
  57 H57           -4.1328    -5.8502     1.5146 H       
  58 H58           -5.2309    -5.2191     2.7652 H       
  59 H59           -5.7458    -5.2492     1.0616 H       
  60 H60           -2.6657    -2.5367     2.2676 H       
  61 H61           -3.3504    -3.6707     3.4566 H       
  62 H62           -2.3321    -4.2797     2.1297 H       
@<TRIPOS>BOND
   1    1    2 1
   2    1    7 1
   3    1    8 1
   4    2    3 1
   5    2   10 2
   6    3    4 1
   7    3   31 1
   8    3   32 1
   9    4    5 1
  10    4   21 1
  11    5    6 1
  12    5   33 1
  13    5   34 1
  14    6    7 1
  15    6   35 1
  16    6   36 1
  17    7   37 1
  18    7   38 1
  19    8    9 2
  20    8   15 1
  21    9   10 1
  22   10   11 1
  23   11   12 2
  24   11   13 am
  25   13   23 1
  26   13   39 1
  27   14   15 ar
  28   14   19 ar
  29   14   40 1
  30   15   16 ar
  31   16   17 ar
  32   16   20 1
  33   17   18 ar
  34   17   41 1
  35   18   19 ar
  36   18   42 1
  37   20   43 1
  38   20   44 1
  39   20   45 1
  40   21   46 1
  41   21   47 1
  42   21   48 1
  43   22   26 2
  44   22   27 am
  45   22   23 1
  46   23   24 1
  47   23   49 1
  48   24   25 1
  49   24   29 1
  50   24   30 1
  51   25   50 1
  52   25   51 1
  53   25   52 1
  54   27   28 1
  55   27   53 1
  56   28   54 1
  57   28   55 1
  58   28   56 1
  59   29   57 1
  60   29   58 1
  61   29   59 1
  62   30   60 1
  63   30   61 1
  64   30   62 1

#	End of record

