#	Name: ASD07820002
#	Creating user name:	WinNT
#	Creation time:	15. 06. 2019 21:11

#	Modifying user name:	WinNT
#	Modification time:	15. 06. 2019 21:11

#	Program:	/corina/corina34_cracker 3.40 0067  02.08.2006

@<TRIPOS>MOLECULE
ASD07820002
  20   20    0    0    0
SMALL
NO_CHARGES


@<TRIPOS>ATOM
   1 N1            -0.0178     1.4648     0.0101 N.3     
   2 C2             0.0021    -0.0041     0.0020 C.3     
   3 C3             0.7309    -0.5033     1.2229 C.2     
   4 O4             1.4853     0.2294     1.8179 O.2     
   5 O5             0.5421    -1.7619     1.6494 O.3     
   6 C6             0.7182    -0.4975    -1.2568 C.3     
   7 C7            -0.0771    -0.1029    -2.4745 C.2     
   8 C8             0.0674     1.0377    -3.1509 C.2     
   9 C9            -0.7758     1.1812    -4.2392 C.2     
  10 C10           -1.6051     0.1573    -4.4467 C.2     
  11 S11           -1.3326    -1.0791    -3.2257 S.3     
  12 H12            0.9191     1.8392     0.0032 H       
  13 H13           -0.5563     1.8234    -0.7642 H       
  14 H14           -1.0205    -0.3814     0.0098 H       
  15 H15            1.0315    -2.0367     2.4369 H       
  16 H16            1.7103    -0.0491    -1.3098 H       
  17 H17            0.8116    -1.5829    -1.2198 H       
  18 H18            0.7875     1.7922    -2.8704 H       
  19 H19           -0.7635     2.0562    -4.8722 H       
  20 H20           -2.3304     0.0952    -5.2445 H       
@<TRIPOS>BOND
   1    1    2 1
   2    1   12 1
   3    1   13 1
   4    2    3 1
   5    2    6 1
   6    2   14 1
   7    3    4 2
   8    3    5 1
   9    5   15 1
  10    6    7 1
  11    6   16 1
  12    6   17 1
  13    7    8 2
  14    7   11 1
  15    8    9 1
  16    8   18 1
  17    9   10 2
  18    9   19 1
  19   10   11 1
  20   10   20 1

#	End of record

