#	Name: ASD01810961
#	Creating user name:	WinNT
#	Creation time:	15. 06. 2019 19:25

#	Modifying user name:	WinNT
#	Modification time:	15. 06. 2019 19:25

#	Program:	/corina/corina34_cracker 3.40 0067  02.08.2006

@<TRIPOS>MOLECULE
ASD01810961
  64   68    0    0    0
SMALL
NO_CHARGES


@<TRIPOS>ATOM
   1 C1            -0.2737     1.1641     0.0612 C.ar    
   2 C2            -0.1222    -0.2173    -0.0793 C.ar    
   3 C3            -1.3121    -1.0949    -0.1013 C.2     
   4 N4            -2.3169    -0.8899     0.7733 N.am    
   5 O5            -1.3841    -2.0011    -0.9082 O.2     
   6 C6            -2.1972     0.1284     1.8257 C.3     
   7 C7             1.1526    -0.7664    -0.1991 C.ar    
   8 C8             2.2683     0.0675    -0.1779 C.ar    
   9 C9             2.1027     1.4465    -0.0369 C.ar    
  10 C10            0.8362     1.9847     0.0814 C.ar    
  11 C11            3.6256    -0.5071    -0.3039 C.2     
  12 C12           -2.4822    -0.5271     3.1806 C.3     
  13 C13           -3.8450    -1.2217     3.1302 C.3     
  14 C14           -3.8227    -2.3153     2.0598 C.3     
  15 C15           -3.5551    -1.6762     0.6886 C.3     
  16 C16           -4.1440    -1.8387     4.4722 C.ar    
  17 C17           -5.2656    -1.4415     5.1782 C.ar    
  18 C18           -5.5456    -2.0025     6.4070 C.ar    
  19 C19           -4.6939    -2.9733     6.9379 C.ar    
  20 C20           -3.5637    -3.3695     6.2200 C.ar    
  21 C21           -3.2987    -2.8040     4.9899 C.ar    
  22 C22            3.3086     2.3500    -0.0137 C.3     
  23 N23            4.7435     0.1775    -0.4241 N.2     
  24 C24           -4.9780    -3.5597     8.2131 C.1     
  25 N25           -5.2034    -4.0248     9.2247 N.1     
  26 C26            5.7701    -0.6696    -0.5146 C.2     
  27 C27            5.2834    -1.9298    -0.4449 C.2     
  28 N28            3.9327    -1.8388    -0.3095 N.pl3   
  29 C29            7.2317    -0.3301    -0.6732 C.3     
  30 C30            8.0693    -1.5549    -0.2857 C.3     
  31 N31            7.4908    -2.7536    -0.9107 N.am    
  32 C32            6.1378    -3.1719    -0.5007 C.3     
  33 C33            8.1796    -3.4519    -1.8351 C.2     
  34 O34            9.3230    -3.1452    -2.0988 O.2     
  35 C35            7.5291    -4.6137    -2.5409 C.3     
  36 H36           -1.2615     1.5917     0.1496 H       
  37 H37           -1.1875     0.5391     1.8236 H       
  38 H38           -2.9186     0.9256     1.6465 H       
  39 H39            1.2753    -1.8339    -0.3076 H       
  40 H40            0.7137     3.0522     0.1898 H       
  41 H41           -1.7073    -1.2617     3.3996 H       
  42 H42           -2.4914     0.2359     3.9591 H       
  43 H43           -4.6163    -0.4910     2.8868 H       
  44 H44           -3.0352    -3.0330     2.2893 H       
  45 H45           -4.7859    -2.8251     2.0405 H       
  46 H46           -4.3885    -1.0275     0.4189 H       
  47 H47           -3.4396    -2.4577    -0.0624 H       
  48 H48           -5.9233    -0.6902     4.7665 H       
  49 H49           -6.4212    -1.6913     6.9572 H       
  50 H50           -2.9007    -4.1196     6.6250 H       
  51 H51           -2.4249    -3.1095     4.4336 H       
  52 H52            3.6166     2.5712    -1.0357 H       
  53 H53            3.0572     3.2785     0.4990 H       
  54 H54            4.1243     1.8539     0.5122 H       
  55 H55            3.3075    -2.5770    -0.2376 H       
  56 H56            7.4341    -0.0625    -1.7103 H       
  57 H57            7.4851     0.5065    -0.0220 H       
  58 H58            9.0934    -1.4207    -0.6341 H       
  59 H59            8.0648    -1.6711     0.7981 H       
  60 H60            6.1763    -3.6401     0.4828 H       
  61 H61            5.7287    -3.8712    -1.2299 H       
  62 H62            6.5431    -4.7932    -2.1123 H       
  63 H63            7.4279    -4.3839    -3.6016 H       
  64 H64            8.1458    -5.5042    -2.4192 H       
@<TRIPOS>BOND
   1    1    2 ar
   2    1   10 ar
   3    1   36 1
   4    2    3 1
   5    2    7 ar
   6    3    4 am
   7    3    5 2
   8    4    6 1
   9    4   15 1
  10    6   12 1
  11    6   37 1
  12    6   38 1
  13    7    8 ar
  14    7   39 1
  15    8    9 ar
  16    8   11 1
  17    9   10 ar
  18    9   22 1
  19   10   40 1
  20   11   23 2
  21   11   28 1
  22   12   13 1
  23   12   41 1
  24   12   42 1
  25   13   14 1
  26   13   16 1
  27   13   43 1
  28   14   15 1
  29   14   44 1
  30   14   45 1
  31   15   46 1
  32   15   47 1
  33   16   17 ar
  34   16   21 ar
  35   17   18 ar
  36   17   48 1
  37   18   19 ar
  38   18   49 1
  39   19   20 ar
  40   19   24 1
  41   20   21 ar
  42   20   50 1
  43   21   51 1
  44   22   52 1
  45   22   53 1
  46   22   54 1
  47   23   26 1
  48   24   25 3
  49   26   27 2
  50   26   29 1
  51   27   28 1
  52   27   32 1
  53   28   55 1
  54   29   30 1
  55   29   56 1
  56   29   57 1
  57   30   31 1
  58   30   58 1
  59   30   59 1
  60   31   32 1
  61   31   33 am
  62   32   60 1
  63   32   61 1
  64   33   34 2
  65   33   35 1
  66   35   62 1
  67   35   63 1
  68   35   64 1

#	End of record

