#	Name: ASD01918304
#	Creating user name:	WinNT
#	Creation time:	15. 06. 2019 20:11

#	Modifying user name:	WinNT
#	Modification time:	15. 06. 2019 20:11

#	Program:	/corina/corina34_cracker 3.40 0067  02.08.2006

@<TRIPOS>MOLECULE
ASD01918304
  41   44    0    0    0
SMALL
NO_CHARGES


@<TRIPOS>ATOM
   1 F1            -0.1498    -0.0004     0.1435 F       
   2 C2            -0.1054     1.3489     0.0932 C.ar    
   3 C3             0.0336     1.9833    -1.1304 C.ar    
   4 C4             0.0778     3.3665    -1.1734 C.ar    
   5 C5            -0.0199     4.0698     0.0249 C.ar    
   6 C6            -0.1573     3.3641     1.2119 C.ar    
   7 N7            -0.2004     2.0462     1.2105 N.ar    
   8 N8             0.0204     5.4698     0.0317 N.am    
   9 C9             1.3340     6.0976     0.1240 C.3     
  10 C10            1.2486     7.4365     0.8613 C.3     
  11 C11            1.0049     8.5519    -0.1616 C.3     
  12 C12           -0.3053     8.2882    -0.8993 C.3     
  13 C13           -1.2737     7.6010     0.0695 C.3     
  14 C14           -1.1411     6.1104    -0.0517 C.2     
  15 O15           -2.1465     5.4561    -0.2311 O.2     
  16 C16           -0.8961     9.5932    -1.3675 C.2     
  17 N17           -1.1543     9.9291    -2.6063 N.2     
  18 C18           -1.6721    11.1785    -2.5438 C.2     
  19 N19           -1.6965    11.5228    -1.2798 N.2     
  20 O20           -1.2599    10.6218    -0.5950 O.3     
  21 C21           -2.1244    11.9996    -3.6862 C.2     
  22 C22           -2.1008    11.6311    -4.9983 C.2     
  23 C23           -2.6179    12.7026    -5.7429 C.2     
  24 Cl24          -2.8091    12.7535    -7.4676 Cl      
  25 C25           -2.9407    13.6880    -4.8751 C.2     
  26 N26           -2.6482    13.2657    -3.6136 N.pl3   
  27 H27           -2.7849    13.7758    -2.8000 H       
  28 H28            0.1069     1.4058    -2.0401 H       
  29 H29            0.1859     3.8875    -2.1132 H       
  30 H30           -0.2335     3.9002     2.1464 H       
  31 H31            2.0110     5.4344     0.6625 H       
  32 H32            1.7221     6.2657    -0.8806 H       
  33 H33            0.4246     7.4087     1.5743 H       
  34 H34            2.1840     7.6230     1.3889 H       
  35 H35            0.9453     9.5107     0.3535 H       
  36 H36            1.8267     8.5745    -0.8774 H       
  37 H37           -0.1206     7.6398    -1.7558 H       
  38 H38           -1.0424     7.9064     1.0899 H       
  39 H39           -2.2956     7.8936    -0.1717 H       
  40 H40           -1.7490    10.6890    -5.3922 H       
  41 H41           -3.3635    14.6465    -5.1375 H       
@<TRIPOS>BOND
   1    1    2 1
   2    2    7 ar
   3    2    3 ar
   4    3    4 ar
   5    3   28 1
   6    4    5 ar
   7    4   29 1
   8    5    6 ar
   9    5    8 1
  10    6    7 ar
  11    6   30 1
  12    8   14 am
  13    8    9 1
  14    9   10 1
  15    9   31 1
  16    9   32 1
  17   10   11 1
  18   10   33 1
  19   10   34 1
  20   11   12 1
  21   11   35 1
  22   11   36 1
  23   12   13 1
  24   12   16 1
  25   12   37 1
  26   13   14 1
  27   13   38 1
  28   13   39 1
  29   14   15 2
  30   16   20 1
  31   16   17 2
  32   17   18 1
  33   18   19 2
  34   18   21 1
  35   19   20 1
  36   21   26 1
  37   21   22 2
  38   22   23 1
  39   22   40 1
  40   23   24 1
  41   23   25 2
  42   25   26 1
  43   25   41 1
  44   26   27 1

#	End of record

