#	Name: ASD03240080
#	Creating user name:	WinNT
#	Creation time:	15. 06. 2019 20:34

#	Modifying user name:	WinNT
#	Modification time:	15. 06. 2019 20:34

#	Program:	/corina/corina34_cracker 3.40 0067  02.08.2006

@<TRIPOS>MOLECULE
ASD03240080
  49   53    0    0    0
SMALL
NO_CHARGES


@<TRIPOS>ATOM
   1 C1            -0.0184     1.5028     0.0103 C.3     
   2 C2             0.0021    -0.0041     0.0020 C.ar    
   3 C3             0.0229    -0.7004     1.1965 C.ar    
   4 C4             0.0416    -2.0814     1.1923 C.ar    
   5 C5             0.0396    -2.7706    -0.0132 C.ar    
   6 C6             0.0187    -2.0685    -1.2110 C.ar    
   7 C7            -0.0057    -0.6876    -1.2000 C.ar    
   8 N8             0.0591    -4.1713    -0.0209 N.pl3   
   9 C9             0.9372    -4.9464     0.6890 C.2     
  10 C10            0.6795    -6.2570     0.4553 C.2     
  11 C11           -0.4537    -6.3009    -0.4781 C.ar    
  12 C12           -0.8021    -4.9636    -0.7356 C.ar    
  13 C13           -1.1875    -7.3199    -1.0994 C.ar    
  14 N14           -2.1824    -6.9760    -1.9129 N.ar    
  15 C15           -2.4737    -5.7067    -2.1317 C.ar    
  16 N16           -1.8155    -4.7187    -1.5646 N.ar    
  17 N17           -0.8848    -8.6508    -0.8728 N.pl3   
  18 C18           -1.6640    -9.7017    -1.5320 C.3     
  19 C19           -1.1359   -11.0518    -1.1203 C.2     
  20 C20           -1.5590   -11.7549    -0.0687 C.2     
  21 C21           -0.9251   -12.9721     0.1124 C.2     
  22 C22            0.0129   -13.2573    -0.7922 C.2     
  23 S23            0.1274   -11.9446    -1.9572 S.3     
  24 C24            1.4007    -7.4179     1.0290 C.ar    
  25 C25            2.7929    -7.4722     0.9774 C.ar    
  26 C26            0.6897    -8.4573     1.6276 C.ar    
  27 C27            1.3665    -9.5353     2.1604 C.ar    
  28 C28            2.7477    -9.5861     2.1015 C.ar    
  29 C29            3.4588    -8.5554     1.5136 C.ar    
  30 H30            1.0042     1.8801     0.0026 H       
  31 H31           -0.5455     1.8639    -0.8728 H       
  32 H32           -0.5286     1.8543     0.9071 H       
  33 H33            0.0248    -0.1638     2.1338 H       
  34 H34            0.0582    -2.6247     2.1255 H       
  35 H35            0.0174    -2.6017    -2.1502 H       
  36 H36           -0.0220    -0.1409    -2.1313 H       
  37 H37            1.7163    -4.5710     1.3359 H       
  38 H38           -3.2891    -5.4701    -2.7993 H       
  39 H39           -0.1566    -8.8880    -0.2775 H       
  40 H40           -2.7104    -9.6161    -1.2390 H       
  41 H41           -1.5794    -9.5928    -2.6132 H       
  42 H42           -2.3370   -11.4013     0.5916 H       
  43 H43           -1.1710   -13.6400     0.9247 H       
  44 H44            0.6084   -14.1582    -0.8087 H       
  45 H45            3.3491    -6.6682     0.5183 H       
  46 H46           -0.3886    -8.4185     1.6744 H       
  47 H47            0.8169   -10.3408     2.6246 H       
  48 H48            3.2732   -10.4317     2.5202 H       
  49 H49            4.5370    -8.6004     1.4705 H       
@<TRIPOS>BOND
   1    1    2 1
   2    1   30 1
   3    1   31 1
   4    1   32 1
   5    2    3 ar
   6    2    7 ar
   7    3    4 ar
   8    3   33 1
   9    4    5 ar
  10    4   34 1
  11    5    6 ar
  12    5    8 1
  13    6    7 ar
  14    6   35 1
  15    7   36 1
  16    8    9 1
  17    8   12 1
  18    9   10 2
  19    9   37 1
  20   10   11 1
  21   10   24 1
  22   11   12 ar
  23   11   13 ar
  24   12   16 ar
  25   13   14 ar
  26   13   17 1
  27   14   15 ar
  28   15   16 ar
  29   15   38 1
  30   17   18 1
  31   17   39 1
  32   18   19 1
  33   18   40 1
  34   18   41 1
  35   19   20 2
  36   19   23 1
  37   20   21 1
  38   20   42 1
  39   21   22 2
  40   21   43 1
  41   22   23 1
  42   22   44 1
  43   24   25 ar
  44   24   26 ar
  45   25   29 ar
  46   25   45 1
  47   26   27 ar
  48   26   46 1
  49   27   28 ar
  50   27   47 1
  51   28   29 ar
  52   28   48 1
  53   29   49 1

#	End of record

