#	Name: ASD09800022
#	Creating user name:	WinNT
#	Creation time:	15. 06. 2019 21:24

#	Modifying user name:	WinNT
#	Modification time:	15. 06. 2019 21:24

#	Program:	/corina/corina34_cracker 3.40 0067  02.08.2006

@<TRIPOS>MOLECULE
ASD09800022
  82   87    0    0    0
SMALL
NO_CHARGES


@<TRIPOS>ATOM
   1 N1             0.0536     1.2847    -0.0404 N.am    
   2 C2             0.3495    -0.0801    -0.0390 C.ar    
   3 C3             1.4864    -0.5430     0.5867 C.ar    
   4 C4            -0.5167    -0.9959    -0.6735 C.ar    
   5 C5            -0.1982    -2.3760    -0.6608 C.ar    
   6 C6             0.9769    -2.8103    -0.0149 C.ar    
   7 C7             1.7930    -1.9007     0.5953 C.ar    
   8 C8            -1.6879    -0.5647    -1.3164 C.ar    
   9 C9            -2.5009    -1.4761    -1.9181 C.ar    
  10 C10           -2.1882    -2.8340    -1.9055 C.ar    
  11 C11           -1.0605    -3.2873    -1.2924 C.ar    
  12 O12            1.2944    -4.1318     0.0054 O.3     
  13 C13            2.0528    -4.6195    -1.0064 C.ar    
  14 C14            2.4021    -5.9763    -1.0227 C.ar    
  15 N15            2.4535    -3.8130    -1.9743 N.ar    
  16 C16            3.1841    -6.4582    -2.0743 C.ar    
  17 C17            3.5819    -5.5695    -3.0597 C.ar    
  18 C18            3.1927    -4.2458    -2.9778 C.ar    
  19 C19            1.9500    -6.8838     0.0575 C.ar    
  20 N20            1.2047    -6.4229     1.0600 N.ar    
  21 C21            2.2946    -8.2389     0.0370 C.ar    
  22 C22            1.8497    -9.0473     1.0668 C.ar    
  23 N23            1.1163    -8.5191     2.0345 N.ar    
  24 C24            0.7999    -7.2324     2.0260 C.ar    
  25 N25            0.0316    -6.7202     3.0572 N.pl3   
  26 C26           -0.4208    -7.5979     4.1394 C.3     
  27 C27           -1.2455    -6.7881     5.1418 C.3     
  28 N28           -1.6992    -7.6682     6.2270 N.3     
  29 C29           -2.4962    -6.9232     7.2107 C.3     
  30 C30           -3.4397    -7.8847     7.9361 C.3     
  31 C31           -4.2697    -7.1087     8.9607 C.3     
  32 C32           -3.3368    -6.4463     9.9764 C.3     
  33 C33           -2.3933    -5.4848     9.2510 C.3     
  34 C34           -1.5632    -6.2608     8.2265 C.3     
  35 N35           -4.1338    -5.7013    10.9602 N.3     
  36 C36            2.1895     2.2949     1.3709 C.ar    
  37 C37            1.5785     2.6022     2.5733 C.ar    
  38 C38            2.2958     2.5213     3.7538 C.ar    
  39 C39            3.6220     2.1335     3.7310 C.ar    
  40 C40            4.2322     1.8265     2.5289 C.ar    
  41 C41            3.5147     1.9021     1.3499 C.ar    
  42 Cl42          -0.0874     3.0898     2.6011 Cl      
  43 S43            1.2768     2.3972    -0.1328 S.o2    
  44 O44            2.1484     1.9505    -1.1624 O.2     
  45 O45            0.6568     3.6757    -0.1398 O.2     
  46 C46            3.0476    -2.3738     1.2831 C.3     
  47 H47           -0.8687     1.5811     0.0088 H       
  48 H48            2.1481     0.1563     1.0762 H       
  49 H49           -1.9428     0.4847    -1.3332 H       
  50 H50           -3.4014    -1.1418    -2.4120 H       
  51 H51           -2.8500    -3.5369    -2.3895 H       
  52 H52           -0.8305    -4.3425    -1.2908 H       
  53 H53            3.4721    -7.4982    -2.1182 H       
  54 H54            4.1873    -5.9090    -3.8871 H       
  55 H55            3.5025    -3.5530    -3.7462 H       
  56 H56            2.8939    -8.6447    -0.7646 H       
  57 H57            2.0974   -10.0984     1.0815 H       
  58 H58           -0.2072    -5.7801     3.0633 H       
  59 H59           -1.0349    -8.3978     3.7258 H       
  60 H60            0.4444    -8.0280     4.6441 H       
  61 H61           -0.6314    -5.9882     5.5555 H       
  62 H62           -2.1107    -6.3580     4.6371 H       
  63 H63           -2.2168    -8.4540     5.8628 H       
  64 H64           -3.0800    -6.1573     6.7002 H       
  65 H65           -4.1043    -8.3566     7.2125 H       
  66 H66           -2.8558    -8.6506     8.4466 H       
  67 H67           -4.8536    -6.3428     8.4502 H       
  68 H68           -4.9419    -7.7937     9.4775 H       
  69 H69           -2.7530    -7.2122    10.4869 H       
  70 H70           -2.9772    -4.7189     8.7405 H       
  71 H71           -1.7287    -5.0129     9.9747 H       
  72 H72           -0.9794    -7.0267     8.7370 H       
  73 H73           -0.8911    -5.5758     7.7097 H       
  74 H74           -3.5401    -5.2543    11.6426 H       
  75 H75           -4.7324    -5.0283    10.5054 H       
  76 H76            1.8193     2.7614     4.6928 H       
  77 H77            4.1820     2.0706     4.6523 H       
  78 H78            5.2688     1.5238     2.5115 H       
  79 H79            3.9918     1.6619     0.4112 H       
  80 H80            3.8745    -2.3707     0.5729 H       
  81 H81            3.2798    -1.7075     2.1139 H       
  82 H82            2.8961    -3.3853     1.6600 H       
@<TRIPOS>BOND
   1    1    2 1
   2    1   43 am
   3    1   47 1
   4    2    3 ar
   5    2    4 ar
   6    3    7 ar
   7    3   48 1
   8    4    5 ar
   9    4    8 ar
  10    5    6 ar
  11    5   11 ar
  12    6    7 ar
  13    6   12 1
  14    7   46 1
  15    8    9 ar
  16    8   49 1
  17    9   10 ar
  18    9   50 1
  19   10   11 ar
  20   10   51 1
  21   11   52 1
  22   12   13 1
  23   13   14 ar
  24   13   15 ar
  25   14   16 ar
  26   14   19 1
  27   15   18 ar
  28   16   17 ar
  29   16   53 1
  30   17   18 ar
  31   17   54 1
  32   18   55 1
  33   19   20 ar
  34   19   21 ar
  35   20   24 ar
  36   21   22 ar
  37   21   56 1
  38   22   23 ar
  39   22   57 1
  40   23   24 ar
  41   24   25 1
  42   25   26 1
  43   25   58 1
  44   26   27 1
  45   26   59 1
  46   26   60 1
  47   27   28 1
  48   27   61 1
  49   27   62 1
  50   28   29 1
  51   28   63 1
  52   29   30 1
  53   29   34 1
  54   29   64 1
  55   30   31 1
  56   30   65 1
  57   30   66 1
  58   31   32 1
  59   31   67 1
  60   31   68 1
  61   32   33 1
  62   32   35 1
  63   32   69 1
  64   33   34 1
  65   33   70 1
  66   33   71 1
  67   34   72 1
  68   34   73 1
  69   35   74 1
  70   35   75 1
  71   36   37 ar
  72   36   43 1
  73   36   41 ar
  74   37   38 ar
  75   37   42 1
  76   38   39 ar
  77   38   76 1
  78   39   40 ar
  79   39   77 1
  80   40   41 ar
  81   40   78 1
  82   41   79 1
  83   43   44 2
  84   43   45 2
  85   46   80 1
  86   46   81 1
  87   46   82 1

#	End of record

