#	Name: ASD01151097
#	Creating user name:	WinNT
#	Creation time:	15. 06. 2019 19:05

#	Modifying user name:	WinNT
#	Modification time:	15. 06. 2019 19:05

#	Program:	/corina/corina34_cracker 3.40 0067  02.08.2006

@<TRIPOS>MOLECULE
ASD01151097
  46   49    0    0    0
SMALL
NO_CHARGES


@<TRIPOS>ATOM
   1 C1            -0.0173     1.4248     0.0099 C.3     
   2 O2             0.0021    -0.0041     0.0020 O.3     
   3 C3             0.6057    -0.6070    -1.0555 C.ar    
   4 C4            -0.1375    -0.9206    -2.1923 C.ar    
   5 F5            -1.4553    -0.6258    -2.2346 F       
   6 C6             0.4630    -1.5296    -3.2746 C.ar    
   7 C7             1.8235    -1.8345    -3.2275 C.ar    
   8 C8             2.5168    -2.4782    -4.3549 C.2     
   9 O9             1.9168    -2.7703    -5.3718 O.2     
  10 N10            3.8370    -2.7357    -4.2311 N.am    
  11 C11            4.5500    -3.3692    -5.3432 C.3     
  12 C12            5.0947    -2.3057    -6.2615 C.ar    
  13 C13            4.3272    -1.8422    -7.3138 C.ar    
  14 C14            4.8262    -0.8664    -8.1561 C.ar    
  15 C15            6.0936    -0.3537    -7.9460 C.ar    
  16 Br16           6.7765     0.9817    -9.0976 Br      
  17 C17            6.8611    -0.8178    -6.8929 C.ar    
  18 C18            6.3593    -1.7898    -6.0480 C.ar    
  19 C19            4.5108    -2.4242    -3.1127 C.2     
  20 O20            5.6991    -2.6762    -3.0593 O.2     
  21 N21            3.9272    -1.8448    -2.0495 N.am    
  22 C22            4.7082    -1.5506    -0.8429 C.3     
  23 C23            4.0895    -0.3485    -0.1225 C.3     
  24 C24            4.7956    -0.1372     1.2183 C.3     
  25 C25            4.2494     0.9035    -0.9873 C.3     
  26 O26            2.6974    -0.6007     0.1041 O.3     
  27 C27            1.9605    -0.9025    -1.0012 C.ar    
  28 C28            2.5730    -1.5249    -2.0801 C.ar    
  29 H29            1.0053     1.8021     0.0021 H       
  30 H30           -0.5445     1.7859    -0.8732 H       
  31 H31           -0.5275     1.7763     0.9067 H       
  32 H32           -0.1170    -1.7693    -4.1535 H       
  33 H33            5.3727    -3.9684    -4.9530 H       
  34 H34            3.8639    -4.0104    -5.8965 H       
  35 H35            3.3378    -2.2428    -7.4780 H       
  36 H36            4.2267    -0.5046    -8.9784 H       
  37 H37            7.8507    -0.4177    -6.7284 H       
  38 H38            6.9569    -2.1492    -5.2233 H       
  39 H39            4.6967    -2.4169    -0.1815 H       
  40 H40            5.7359    -1.3184    -1.1220 H       
  41 H41            5.8555     0.0495     1.0453 H       
  42 H42            4.3549     0.7183     1.7302 H       
  43 H43            4.6795    -1.0287     1.8346 H       
  44 H44            3.7443     0.7529    -1.9414 H       
  45 H45            3.8089     1.7583    -0.4740 H       
  46 H46            5.3087     1.0912    -1.1626 H       
@<TRIPOS>BOND
   1    1    2 1
   2    1   29 1
   3    1   30 1
   4    1   31 1
   5    2    3 1
   6    3   27 ar
   7    3    4 ar
   8    4    5 1
   9    4    6 ar
  10    6    7 ar
  11    6   32 1
  12    7   28 ar
  13    7    8 1
  14    8    9 2
  15    8   10 am
  16   10   11 1
  17   10   19 am
  18   11   12 1
  19   11   33 1
  20   11   34 1
  21   12   18 ar
  22   12   13 ar
  23   13   14 ar
  24   13   35 1
  25   14   15 ar
  26   14   36 1
  27   15   16 1
  28   15   17 ar
  29   17   18 ar
  30   17   37 1
  31   18   38 1
  32   19   20 2
  33   19   21 am
  34   21   28 1
  35   21   22 1
  36   22   23 1
  37   22   39 1
  38   22   40 1
  39   23   24 1
  40   23   25 1
  41   23   26 1
  42   24   41 1
  43   24   42 1
  44   24   43 1
  45   25   44 1
  46   25   45 1
  47   25   46 1
  48   26   27 1
  49   27   28 ar

#	End of record

