#	Name: ASD03240222
#	Creating user name:	WinNT
#	Creation time:	15. 06. 2019 20:34

#	Modifying user name:	WinNT
#	Modification time:	15. 06. 2019 20:34

#	Program:	/corina/corina34_cracker 3.40 0067  02.08.2006

@<TRIPOS>MOLECULE
ASD03240222
  80   85    0    0    0
SMALL
NO_CHARGES


@<TRIPOS>ATOM
   1 C1            -0.1212     1.3252     3.6490 C.2     
   2 N2             0.2634     0.9150     4.9035 N.pl3   
   3 O3            -3.4559     3.4390     3.0322 O.2     
   4 C4            -3.3018     3.1801     4.2069 C.2     
   5 C5            -2.1002     2.3870     4.6524 C.3     
   6 N6            -1.2777     2.0509     3.4876 N.pl3   
   7 N7             0.6133     1.0308     2.6133 N.2     
   8 N8            -4.2051     3.6015     5.1141 N.am    
   9 C9            -5.2572     4.4269     4.7188 C.ar    
  10 C10           -6.4976     4.3156     5.3392 C.ar    
  11 C11           -7.5385     5.1288     4.9514 C.ar    
  12 C12           -7.3480     6.0674     3.9335 C.ar    
  13 C13           -6.1007     6.1769     3.3127 C.ar    
  14 C14           -5.0627     5.3638     3.7087 C.ar    
  15 C15           -8.4616     6.9405     3.5149 C.2     
  16 N16           -8.2763     7.8451     2.5331 N.am    
  17 O17           -9.5465     6.8438     4.0557 O.2     
  18 C18           -9.3618     8.5876     2.0509 C.ar    
  19 C19           -9.1614     9.8705     1.5584 C.ar    
  20 C20          -10.6374     8.0387     2.0600 C.ar    
  21 C21          -11.7072     8.7703     1.5844 C.ar    
  22 C22          -11.5077    10.0554     1.0967 C.ar    
  23 C23          -10.2311    10.6025     1.0831 C.ar    
  24 N24          -12.5917    10.7968     0.6147 N.pl3   
  25 C25          -12.4239    12.2167     0.2956 C.3     
  26 C26          -13.8947    10.1533     0.4292 C.3     
  27 C27          -14.3137    10.2742    -1.0134 C.ar    
  28 C28          -13.1732    13.0500     1.3032 C.ar    
  29 C29          -14.3706    13.6073     0.9750 C.ar    
  30 C30          -15.0779    14.3809     1.8936 C.ar    
  31 C31          -14.5917    14.6015     3.1455 C.ar    
  32 C32          -13.3584    14.0419     3.5210 C.ar    
  33 C33          -12.6417    13.2509     2.5887 C.ar    
  34 C34          -15.3044    11.1373    -1.3678 C.ar    
  35 C35          -15.7054    11.2627    -2.6968 C.ar    
  36 C36          -15.1179    10.5257    -3.6785 C.ar    
  37 C37          -14.0908     9.6241    -3.3509 C.ar    
  38 C38          -13.6795     9.5004    -2.0004 C.ar    
  39 C39          -13.4605     8.8461    -4.3371 C.ar    
  40 C40          -12.4695     7.9833    -3.9827 C.ar    
  41 C41          -12.0686     7.8579    -2.6538 C.ar    
  42 C42          -12.6525     8.5987    -1.6728 C.ar    
  43 C43          -12.8242    14.2475     4.8045 C.ar    
  44 C44          -11.6270    13.6899     5.1328 C.ar    
  45 C45          -10.9196    12.9163     4.2142 C.ar    
  46 C46          -11.4084    12.6914     2.9641 C.ar    
  47 H47            1.0814     0.4064     5.0179 H       
  48 H48           -0.2832     1.1341     5.6743 H       
  49 H49           -1.5127     2.9804     5.3530 H       
  50 H50           -2.4306     1.4702     5.1406 H       
  51 H51           -1.5491     2.3404     2.6024 H       
  52 H52            1.4313     0.5223     2.7277 H       
  53 H53           -4.1233     3.3308     6.0419 H       
  54 H54           -6.6441     3.5901     6.1257 H       
  55 H55           -8.5012     5.0414     5.4330 H       
  56 H56           -5.9502     6.9011     2.5258 H       
  57 H57           -4.0985     5.4481     3.2297 H       
  58 H58           -7.3913     7.9819     2.1604 H       
  59 H59           -8.1687    10.2958     1.5475 H       
  60 H60          -10.7924     7.0393     2.4389 H       
  61 H61          -12.6991     8.3432     1.5912 H       
  62 H62          -10.0759    11.6017     0.7040 H       
  63 H63          -11.3651    12.4736     0.3271 H       
  64 H64          -12.8160    12.4137    -0.7022 H       
  65 H65          -13.8213     9.0998     0.6992 H       
  66 H66          -14.6343    10.6406     1.0644 H       
  67 H67          -14.7787    13.4479    -0.0121 H       
  68 H68          -16.0259    14.8120     1.6076 H       
  69 H69          -15.1505    15.2037     3.8465 H       
  70 H70          -15.7873    11.7337    -0.6079 H       
  71 H71          -16.4944    11.9548    -2.9512 H       
  72 H72          -15.4395    10.6329    -4.7039 H       
  73 H73          -13.7612     8.9323    -5.3708 H       
  74 H74          -11.9867     7.3867    -4.7425 H       
  75 H75          -11.2801     7.1652    -2.3992 H       
  76 H76          -12.3312     8.4912    -0.6473 H       
  77 H77          -13.3609    14.8452     5.5265 H       
  78 H78          -11.2187    13.8494     6.1199 H       
  79 H79           -9.9713    12.4858     4.5000 H       
  80 H80          -10.8494    12.0896     2.2629 H       
@<TRIPOS>BOND
   1    1    2 1
   2    1    7 2
   3    1    6 1
   4    2   47 1
   5    2   48 1
   6    3    4 2
   7    4    5 1
   8    4    8 am
   9    5    6 1
  10    5   49 1
  11    5   50 1
  12    6   51 1
  13    7   52 1
  14    8    9 1
  15    8   53 1
  16    9   10 ar
  17    9   14 ar
  18   10   11 ar
  19   10   54 1
  20   11   12 ar
  21   11   55 1
  22   12   13 ar
  23   12   15 1
  24   13   14 ar
  25   13   56 1
  26   14   57 1
  27   15   16 am
  28   15   17 2
  29   16   18 1
  30   16   58 1
  31   18   19 ar
  32   18   20 ar
  33   19   23 ar
  34   19   59 1
  35   20   21 ar
  36   20   60 1
  37   21   22 ar
  38   21   61 1
  39   22   23 ar
  40   22   24 1
  41   23   62 1
  42   24   25 1
  43   24   26 1
  44   25   28 1
  45   25   63 1
  46   25   64 1
  47   26   27 1
  48   26   65 1
  49   26   66 1
  50   27   34 ar
  51   27   38 ar
  52   28   29 ar
  53   28   33 ar
  54   29   30 ar
  55   29   67 1
  56   30   31 ar
  57   30   68 1
  58   31   32 ar
  59   31   69 1
  60   32   33 ar
  61   32   43 ar
  62   33   46 ar
  63   34   35 ar
  64   34   70 1
  65   35   36 ar
  66   35   71 1
  67   36   37 ar
  68   36   72 1
  69   37   38 ar
  70   37   39 ar
  71   38   42 ar
  72   39   40 ar
  73   39   73 1
  74   40   41 ar
  75   40   74 1
  76   41   42 ar
  77   41   75 1
  78   42   76 1
  79   43   44 ar
  80   43   77 1
  81   44   45 ar
  82   44   78 1
  83   45   46 ar
  84   45   79 1
  85   46   80 1

#	End of record

