#	Name: ASD05842026
#	Creating user name:	WinNT
#	Creation time:	15. 06. 2019 21:03

#	Modifying user name:	WinNT
#	Modification time:	15. 06. 2019 21:03

#	Program:	/corina/corina34_cracker 3.40 0067  02.08.2006

@<TRIPOS>MOLECULE
ASD05842026
  86   87    0    0    0
SMALL
NO_CHARGES


@<TRIPOS>ATOM
   1 C1             3.0942     1.6902     0.6253 C.ar    
   2 C2             3.9868     2.6508     1.0629 C.ar    
   3 C3             5.2520     2.2804     1.4785 C.ar    
   4 C4             5.6245     0.9493     1.4571 C.ar    
   5 C5             4.7316    -0.0113     1.0203 C.ar    
   6 C6             3.4648     0.3586     0.6088 C.ar    
   7 C7             1.7148     2.0941     0.1721 C.3     
   8 N8             1.7554     2.4657    -1.2486 N.3     
   9 C9             2.5740     3.6679    -1.4550 C.3     
  10 C10            1.8988     4.8660    -0.7846 C.3     
  11 C11            2.7385     6.0993    -0.9964 C.ar    
  12 C12            2.5285     6.8963    -2.1062 C.ar    
  13 C13            3.2988     8.0275    -2.3005 C.ar    
  14 C14            4.2788     8.3621    -1.3848 C.ar    
  15 C15            4.4882     7.5656    -0.2745 C.ar    
  16 C16            3.7150     6.4367    -0.0780 C.ar    
  17 C17            1.1559     0.3138    -2.2049 C.2     
  18 C18            2.2420     1.3499    -2.0709 C.3     
  19 O19            0.0563     0.5293    -1.7532 O.2     
  20 O20            1.4109    -0.8512    -2.8275 O.3     
  21 C21            0.3980    -1.7325    -2.9129 C.2     
  22 C22            0.6089    -3.0589    -3.5964 C.3     
  23 C23           -0.6904    -3.8659    -3.5558 C.3     
  24 C24           -0.4762    -5.2126    -4.2497 C.3     
  25 C25           -1.7755    -6.0195    -4.2091 C.3     
  26 C26           -1.5614    -7.3662    -4.9030 C.3     
  27 C27           -2.8606    -8.1732    -4.8623 C.3     
  28 C28           -2.6465    -9.5198    -5.5563 C.3     
  29 C29           -3.9457   -10.3268    -5.5156 C.3     
  30 C30           -3.7316   -11.6735    -6.2095 C.3     
  31 C31           -5.0309   -12.4804    -6.1689 C.3     
  32 C32           -4.8167   -13.8271    -6.8628 C.3     
  33 C33           -6.1160   -14.6341    -6.8222 C.3     
  34 C34           -5.9018   -15.9807    -7.5161 C.3     
  35 C35           -7.2011   -16.7877    -7.4755 C.3     
  36 C36           -6.9870   -18.1344    -8.1694 C.3     
  37 O37           -0.6808    -1.4605    -2.4417 O.2     
  38 H38            3.6958     3.6907     1.0797 H       
  39 H39            5.9497     3.0309     1.8198 H       
  40 H40            6.6133     0.6600     1.7812 H       
  41 H41            5.0227    -1.0512     1.0032 H       
  42 H42            2.7672    -0.3919     0.2676 H       
  43 H43            1.0281     1.2589     0.3097 H       
  44 H44            1.3738     2.9457     0.7608 H       
  45 H45            3.5607     3.5152    -1.0177 H       
  46 H46            2.6758     3.8591    -2.5233 H       
  47 H47            0.9121     5.0187    -1.2219 H       
  48 H48            1.7970     4.6748     0.2837 H       
  49 H49            1.7628     6.6349    -2.8216 H       
  50 H50            3.1352     8.6498    -3.1680 H       
  51 H51            4.8811     9.2455    -1.5370 H       
  52 H52            5.2541     7.8268     0.4407 H       
  53 H53            3.8786     5.8145     0.7895 H       
  54 H54            2.5157     1.7193    -3.0592 H       
  55 H55            3.1148     0.9021    -1.5959 H       
  56 H56            0.9001    -2.8911    -4.6333 H       
  57 H57            1.3958    -3.6112    -3.0828 H       
  58 H58           -0.9816    -4.0337    -2.5189 H       
  59 H59           -1.4773    -3.3136    -4.0694 H       
  60 H60           -0.1850    -5.0448    -5.2866 H       
  61 H61            0.3107    -5.7649    -3.7361 H       
  62 H62           -2.0667    -6.1873    -3.1722 H       
  63 H63           -2.5624    -5.4672    -4.7226 H       
  64 H64           -1.2701    -7.1984    -5.9399 H       
  65 H65           -0.7744    -7.9185    -4.3894 H       
  66 H66           -3.1518    -8.3410    -3.8255 H       
  67 H67           -3.6476    -7.6209    -5.3759 H       
  68 H68           -2.3553    -9.3520    -6.5932 H       
  69 H69           -1.8595   -10.0721    -5.0427 H       
  70 H70           -4.2369   -10.4946    -4.4787 H       
  71 H71           -4.7327    -9.7745    -6.0292 H       
  72 H72           -3.4404   -11.5057    -7.2464 H       
  73 H73           -2.9446   -12.2258    -5.6960 H       
  74 H74           -5.3221   -12.6482    -5.1320 H       
  75 H75           -5.8178   -11.9281    -6.6825 H       
  76 H76           -4.5255   -13.6593    -7.8997 H       
  77 H77           -4.0298   -14.3794    -6.3493 H       
  78 H78           -6.4072   -14.8019    -5.7853 H       
  79 H79           -6.9029   -14.0817    -7.3358 H       
  80 H80           -5.6106   -15.8129    -8.5530 H       
  81 H81           -5.1149   -16.5330    -7.0025 H       
  82 H82           -7.4923   -16.9555    -6.4386 H       
  83 H83           -7.9880   -16.2354    -7.9891 H       
  84 H84           -7.9126   -18.7092    -8.1405 H       
  85 H85           -6.6957   -17.9666    -9.2063 H       
  86 H86           -6.2000   -18.6867    -7.6558 H       
@<TRIPOS>BOND
   1    1    2 ar
   2    1    7 1
   3    1    6 ar
   4    2    3 ar
   5    2   38 1
   6    3    4 ar
   7    3   39 1
   8    4    5 ar
   9    4   40 1
  10    5    6 ar
  11    5   41 1
  12    6   42 1
  13    7    8 1
  14    7   43 1
  15    7   44 1
  16    8    9 1
  17    8   18 1
  18    9   10 1
  19    9   45 1
  20    9   46 1
  21   10   11 1
  22   10   47 1
  23   10   48 1
  24   11   12 ar
  25   11   16 ar
  26   12   13 ar
  27   12   49 1
  28   13   14 ar
  29   13   50 1
  30   14   15 ar
  31   14   51 1
  32   15   16 ar
  33   15   52 1
  34   16   53 1
  35   17   18 1
  36   17   19 2
  37   17   20 1
  38   18   54 1
  39   18   55 1
  40   20   21 1
  41   21   22 1
  42   21   37 2
  43   22   23 1
  44   22   56 1
  45   22   57 1
  46   23   24 1
  47   23   58 1
  48   23   59 1
  49   24   25 1
  50   24   60 1
  51   24   61 1
  52   25   26 1
  53   25   62 1
  54   25   63 1
  55   26   27 1
  56   26   64 1
  57   26   65 1
  58   27   28 1
  59   27   66 1
  60   27   67 1
  61   28   29 1
  62   28   68 1
  63   28   69 1
  64   29   30 1
  65   29   70 1
  66   29   71 1
  67   30   31 1
  68   30   72 1
  69   30   73 1
  70   31   32 1
  71   31   74 1
  72   31   75 1
  73   32   33 1
  74   32   76 1
  75   32   77 1
  76   33   34 1
  77   33   78 1
  78   33   79 1
  79   34   35 1
  80   34   80 1
  81   34   81 1
  82   35   36 1
  83   35   82 1
  84   35   83 1
  85   36   84 1
  86   36   85 1
  87   36   86 1

#	End of record

