#	Name: ASD02560024
#	Creating user name:	WinNT
#	Creation time:	15. 06. 2019 20:24

#	Modifying user name:	WinNT
#	Modification time:	15. 06. 2019 20:24

#	Program:	/corina/corina34_cracker 3.40 0067  02.08.2006

@<TRIPOS>MOLECULE
ASD02560024
  32   33    0    0    0
SMALL
NO_CHARGES


@<TRIPOS>ATOM
   1 C1            -0.0555     1.4353    -0.0197 C.ar    
   2 C2            -1.3214     1.9883    -0.0123 C.ar    
   3 N3            -2.3946     1.2209     0.0037 N.ar    
   4 C4            -2.3040    -0.0995     0.0134 C.ar    
   5 C5            -1.0618    -0.7243     0.0073 C.ar    
   6 C6             0.0824     0.0529    -0.0158 C.ar    
   7 Br7            1.4732     2.5480    -0.0427 Br      
   8 N8            -3.4646    -0.8709     0.0303 N.am    
   9 C9            -4.6680    -0.2753     0.1467 C.2     
  10 S10           -4.7653     1.4128     0.4144 S.2     
  11 N11           -5.7948    -1.0087     0.0523 N.am    
  12 C12           -7.1029    -0.3613     0.1788 C.3     
  13 C13           -8.2073    -1.4103     0.0343 C.3     
  14 C14           -9.5529    -0.7443     0.1644 C.ar    
  15 C15          -10.4908    -0.8982    -0.8385 C.ar    
  16 C16          -11.7260    -0.2812    -0.7091 C.ar    
  17 C17          -11.9719     0.4705     0.4294 C.ar    
  18 C18          -10.9848     0.5793     1.3909 C.ar    
  19 N19           -9.8235    -0.0258     1.2367 N.ar    
  20 H20           -1.4340     3.0624    -0.0195 H       
  21 H21           -0.9912    -1.8020     0.0156 H       
  22 H22            1.0608    -0.4045    -0.0214 H       
  23 H23           -3.4063    -1.8365    -0.0417 H       
  24 H24           -5.7397    -1.9652    -0.0994 H       
  25 H25           -7.1797     0.1148     1.1564 H       
  26 H26           -7.2127     0.3917    -0.6016 H       
  27 H27           -8.1305    -1.8864    -0.9432 H       
  28 H28           -8.0975    -2.1633     0.8148 H       
  29 H29          -10.2647    -1.4912    -1.7124 H       
  30 H30          -12.4783    -0.3836    -1.4771 H       
  31 H31          -12.9226     0.9652     0.5633 H       
  32 H32          -11.1684     1.1634     2.2806 H       
@<TRIPOS>BOND
   1    1    2 ar
   2    1    7 1
   3    1    6 ar
   4    2    3 ar
   5    2   20 1
   6    3    4 ar
   7    4    5 ar
   8    4    8 1
   9    5    6 ar
  10    5   21 1
  11    6   22 1
  12    8    9 am
  13    8   23 1
  14    9   10 2
  15    9   11 am
  16   11   12 1
  17   11   24 1
  18   12   13 1
  19   12   25 1
  20   12   26 1
  21   13   14 1
  22   13   27 1
  23   13   28 1
  24   14   15 ar
  25   14   19 ar
  26   15   16 ar
  27   15   29 1
  28   16   17 ar
  29   16   30 1
  30   17   18 ar
  31   17   31 1
  32   18   19 ar
  33   18   32 1

#	End of record

