#	Name: ASD01918464
#	Creating user name:	WinNT
#	Creation time:	15. 06. 2019 20:11

#	Modifying user name:	WinNT
#	Modification time:	15. 06. 2019 20:11

#	Program:	/corina/corina34_cracker 3.40 0067  02.08.2006

@<TRIPOS>MOLECULE
ASD01918464
  43   46    0    0    0
SMALL
NO_CHARGES


@<TRIPOS>ATOM
   1 C1            -0.4372     1.2658     0.2506 C.3     
   2 C2            -0.1557    -0.2368     0.1877 C.3     
   3 C3             0.4869    -0.5819    -1.1569 C.3     
   4 N4             1.0837    -1.9123    -1.1648 N.am    
   5 C5             1.7803    -2.3981    -0.1116 C.2     
   6 O6             2.4469    -3.4123    -0.2020 O.2     
   7 C7             1.6951    -1.6450     1.1441 C.2     
   8 O8             2.3710    -1.7447     2.2926 O.3     
   9 C9             1.9025    -0.7950     3.1175 C.2     
  10 C10            2.3885    -0.5415     4.5212 C.3     
  11 O11            1.6236    -1.3255     5.4390 O.3     
  12 C12            1.9368    -1.2131     6.7566 C.ar    
  13 C13            2.9553    -0.3612     7.1585 C.ar    
  14 C14            3.2714    -0.2484     8.4986 C.ar    
  15 C15            2.5738    -0.9838     9.4389 C.ar    
  16 C16            1.5585    -1.8338     9.0409 C.ar    
  17 C17            1.2345    -1.9456     7.7027 C.ar    
  18 N18            0.9556    -0.1220     2.5087 N.2     
  19 C19            0.7933    -0.6191     1.2933 C.2     
  20 C20            0.9302    -2.7147    -2.3009 C.ar    
  21 C21            0.1601    -3.8687    -2.2384 C.ar    
  22 C22            0.0100    -4.6592    -3.3608 C.ar    
  23 C23            0.6266    -4.3018    -4.5481 C.ar    
  24 F24            0.4784    -5.0765    -5.6450 F       
  25 C25            1.3945    -3.1513    -4.6129 C.ar    
  26 C26            1.5430    -2.3552    -3.4941 C.ar    
  27 H27            0.4966     1.8156     0.1330 H       
  28 H28           -1.1239     1.5407    -0.5500 H       
  29 H29           -0.8847     1.5116     1.2136 H       
  30 H30           -1.0891    -0.7881     0.3006 H       
  31 H31           -0.2749    -0.5325    -1.9349 H       
  32 H32            1.2611     0.1532    -1.3769 H       
  33 H33            3.4404    -0.8170     4.5968 H       
  34 H34            2.2716     0.5154     4.7609 H       
  35 H35            3.5010     0.2129     6.4243 H       
  36 H36            4.0643     0.4146     8.8120 H       
  37 H37            2.8226    -0.8944    10.4861 H       
  38 H38            1.0154    -2.4075     9.7773 H       
  39 H39            0.4385    -2.6063     7.3927 H       
  40 H40           -0.3207    -4.1480    -1.3125 H       
  41 H41           -0.5885    -5.5569    -3.3125 H       
  42 H42            1.8743    -2.8742    -5.5399 H       
  43 H43            2.1386    -1.4558    -3.5461 H       
@<TRIPOS>BOND
   1    1    2 1
   2    1   27 1
   3    1   28 1
   4    1   29 1
   5    2   19 1
   6    2    3 1
   7    2   30 1
   8    3    4 1
   9    3   31 1
  10    3   32 1
  11    4    5 am
  12    4   20 1
  13    5    6 2
  14    5    7 1
  15    7   19 2
  16    7    8 1
  17    8    9 1
  18    9   10 1
  19    9   18 2
  20   10   11 1
  21   10   33 1
  22   10   34 1
  23   11   12 1
  24   12   17 ar
  25   12   13 ar
  26   13   14 ar
  27   13   35 1
  28   14   15 ar
  29   14   36 1
  30   15   16 ar
  31   15   37 1
  32   16   17 ar
  33   16   38 1
  34   17   39 1
  35   18   19 1
  36   20   26 ar
  37   20   21 ar
  38   21   22 ar
  39   21   40 1
  40   22   23 ar
  41   22   41 1
  42   23   24 1
  43   23   25 ar
  44   25   26 ar
  45   25   42 1
  46   26   43 1

#	End of record

