#	Name: ASD05872041
#	Creating user name:	WinNT
#	Creation time:	15. 06. 2019 21:04

#	Modifying user name:	WinNT
#	Modification time:	15. 06. 2019 21:04

#	Program:	/corina/corina34_cracker 3.40 0067  02.08.2006

@<TRIPOS>MOLECULE
ASD05872041
  65   68    0    0    0
SMALL
NO_CHARGES


@<TRIPOS>ATOM
   1 C1            -0.6211     0.4362     0.6371 C.ar    
   2 C2            -0.8840    -0.9370     0.7213 C.ar    
   3 C3            -2.1720    -1.4011     0.5752 C.ar    
   4 C4            -3.2136    -0.5167     0.3446 C.ar    
   5 C5            -2.9716     0.8439     0.2584 C.ar    
   6 C6            -1.6773     1.3314     0.4089 C.ar    
   7 C7             0.7502     0.9363     0.7927 C.2     
   8 O8             0.9738     2.1263     0.7191 O.2     
   9 C9             1.8802    -0.0285     1.0439 C.3     
  10 S10            3.4346     0.8874     1.1890 S.3     
  11 C11            4.5506    -0.4466     1.4711 C.ar    
  12 C12            5.9211    -0.1811     1.6476 C.ar    
  13 C13            6.7966    -1.2598     1.8717 C.ar    
  14 C14            6.2495    -2.5603     1.9080 C.ar    
  15 C15            4.8750    -2.7236     1.7218 C.ar    
  16 N16            4.0881    -1.6890     1.5201 N.ar    
  17 C17            4.2823    -4.1086     1.7585 C.3     
  18 C18            8.2467    -1.0374     2.0631 C.ar    
  19 C19            8.7175    -0.3326     3.1767 C.ar    
  20 C20            9.1683    -1.5320     1.1393 C.ar    
  21 N21           10.4590    -1.3341     1.3095 N.ar    
  22 C22           10.9311    -0.6688     2.3465 C.ar    
  23 C23           10.0832    -0.1518     3.3092 C.ar    
  24 C24            7.1159    -3.7289     2.1384 C.2     
  25 O25            7.3224    -4.1188     3.2718 O.2     
  26 N26            7.6799    -4.3661     1.0932 N.am    
  27 C27            8.5908    -5.4037     1.3157 C.ar    
  28 C28            9.2374    -5.5115     2.5400 C.ar    
  29 C29            8.8466    -6.3320     0.3145 C.ar    
  30 C30            9.7467    -7.3553     0.5374 C.ar    
  31 C31           10.3928    -7.4567     1.7560 C.ar    
  32 C32           10.1366    -6.5374     2.7564 C.ar    
  33 C33            8.1423    -6.2228    -1.0133 C.3     
  34 C34            6.4159     1.1618     1.5994 C.1     
  35 N35            6.8084     2.2272     1.5612 N.1     
  36 O36           -1.4362     2.6641     0.3255 O.3     
  37 S37           -1.2792     3.1769    -1.0989 S.o2    
  38 O38           -0.6621     4.4909    -1.0060 O.co2   
  39 O39           -0.4307     2.2235    -1.7968 O.co2   
  40 O40           -2.6149     3.2403    -1.6715 O.co2   
  41 O41           -4.0002     1.7043     0.0319 O.3     
  42 S42           -4.7257     2.1479     1.2941 S.o2    
  43 O43           -5.9559     2.7950     0.8654 O.co2   
  44 O44           -4.9835     0.9471     2.0737 O.co2   
  45 O45           -3.8375     3.0683     1.9869 O.co2   
  46 H46           -0.0766    -1.6316     0.9005 H       
  47 H47           -2.3716    -2.4605     0.6403 H       
  48 H48           -4.2203    -0.8911     0.2310 H       
  49 H49            1.6928    -0.5749     1.9682 H       
  50 H50            1.9490    -0.7316     0.2137 H       
  51 H51            3.9915    -4.3525     2.7803 H       
  52 H52            3.4051    -4.1456     1.1124 H       
  53 H53            5.0215    -4.8295     1.4092 H       
  54 H54            8.0327     0.0605     3.9135 H       
  55 H55            8.8201    -2.0820     0.2775 H       
  56 H56           11.9973    -0.5297     2.4477 H       
  57 H57           10.4824     0.3912     4.1531 H       
  58 H58            7.4541    -4.1051     0.1867 H       
  59 H59            9.0377    -4.7937     3.3219 H       
  60 H60            9.9460    -8.0773    -0.2406 H       
  61 H61           11.0958    -8.2584     1.9280 H       
  62 H62           10.6428    -6.6194     3.7069 H       
  63 H63            8.7334    -5.6040    -1.6884 H       
  64 H64            8.0218    -7.2170    -1.4435 H       
  65 H65            7.1622    -5.7684    -0.8684 H       
@<TRIPOS>BOND
   1    1    2 ar
   2    1    7 1
   3    1    6 ar
   4    2    3 ar
   5    2   46 1
   6    3    4 ar
   7    3   47 1
   8    4    5 ar
   9    4   48 1
  10    5    6 ar
  11    5   41 1
  12    6   36 1
  13    7    8 2
  14    7    9 1
  15    9   10 1
  16    9   49 1
  17    9   50 1
  18   10   11 1
  19   11   12 ar
  20   11   16 ar
  21   12   13 ar
  22   12   34 1
  23   13   14 ar
  24   13   18 1
  25   14   15 ar
  26   14   24 1
  27   15   16 ar
  28   15   17 1
  29   17   51 1
  30   17   52 1
  31   17   53 1
  32   18   19 ar
  33   18   20 ar
  34   19   23 ar
  35   19   54 1
  36   20   21 ar
  37   20   55 1
  38   21   22 ar
  39   22   23 ar
  40   22   56 1
  41   23   57 1
  42   24   25 2
  43   24   26 am
  44   26   27 1
  45   26   58 1
  46   27   28 ar
  47   27   29 ar
  48   28   32 ar
  49   28   59 1
  50   29   30 ar
  51   29   33 1
  52   30   31 ar
  53   30   60 1
  54   31   32 ar
  55   31   61 1
  56   32   62 1
  57   33   63 1
  58   33   64 1
  59   33   65 1
  60   34   35 3
  61   36   37 1
  62   37   38 ar
  63   37   39 ar
  64   37   40 ar
  65   41   42 1
  66   42   43 ar
  67   42   44 ar
  68   42   45 ar

#	End of record

