#	Name: ASD02500083
#	Creating user name:	WinNT
#	Creation time:	15. 06. 2019 20:22

#	Modifying user name:	WinNT
#	Modification time:	15. 06. 2019 20:22

#	Program:	/corina/corina34_cracker 3.40 0067  02.08.2006

@<TRIPOS>MOLECULE
ASD02500083
  62   66    0    0    0
SMALL
NO_CHARGES


@<TRIPOS>ATOM
   1 N1             0.8609    -1.2049    -2.5536 N.3     
   2 C2             0.1745    -2.1814    -1.6973 C.3     
   3 C3            -0.9511    -1.4803    -0.9295 C.3     
   4 N4            -1.8146    -0.7860    -1.8968 N.am    
   5 C5            -1.1814     0.1066    -2.8794 C.3     
   6 C6            -0.0467    -0.6570    -3.5705 C.3     
   7 C7            -3.1506    -0.9635    -1.8834 C.2     
   8 O8            -3.6482    -1.7777    -1.1298 O.2     
   9 C9            -4.0091    -0.1698    -2.7830 C.ar    
  10 C10           -5.1018    -0.7684    -3.4170 C.ar    
  11 C11           -5.9010    -0.0253    -4.2552 C.ar    
  12 C12           -5.6221     1.3212    -4.4725 C.ar    
  13 C13           -4.5344     1.9202    -3.8430 C.ar    
  14 C14           -3.7351     1.1840    -2.9988 C.ar    
  15 S15           -8.0786     1.9210    -5.2370 S.o2    
  16 C16           -8.6734     3.2567    -4.2538 C.ar    
  17 O17           -8.3378     0.7339    -4.5001 O.2     
  18 O18           -8.5684     2.1417    -6.5525 O.2     
  19 C19           -8.3286     3.3398    -2.8937 C.ar    
  20 C20           -8.8192     4.4235    -2.1236 C.ar    
  21 C21           -9.6368     5.3909    -2.7291 C.ar    
  22 C22           -9.9491     5.2770    -4.0496 C.ar    
  23 C23           -9.4639     4.2150    -4.8098 C.ar    
  24 N24           -7.5497     2.4160    -2.3217 N.ar    
  25 C25           -7.2254     2.4886    -1.0537 C.ar    
  26 C26           -7.6737     3.5274    -0.2404 C.ar    
  27 C27           -8.4726     4.5049    -0.7616 C.ar    
  28 C28            1.9967    -1.7685    -3.1464 C.ar    
  29 C29            3.0812    -2.1475    -2.3577 C.ar    
  30 C30            2.0435    -1.9565    -4.5196 C.ar    
  31 C31            3.1664    -2.5139    -5.1028 C.ar    
  32 C32            4.2437    -2.8847    -4.3204 C.ar    
  33 C33            4.2020    -2.7050    -2.9495 C.ar    
  34 O34            3.0391    -1.9698    -1.0099 O.3     
  35 C35            4.1870    -2.3816    -0.2650 C.3     
  36 N36           -6.4313     2.0693    -5.3204 N.am    
  37 Na37          -5.5728     3.3746    -6.6935 Du      
  38 H38           -0.2460    -2.9748    -2.3152 H       
  39 H39            0.8858    -2.6086    -0.9904 H       
  40 H40           -1.5357    -2.2190    -0.3812 H       
  41 H41           -0.5249    -0.7571    -0.2342 H       
  42 H42           -1.9182     0.4170    -3.6203 H       
  43 H43           -0.7773     0.9823    -2.3715 H       
  44 H44            0.5041     0.0213    -4.2221 H       
  45 H45           -0.4641    -1.4716    -4.1623 H       
  46 H46           -5.3182    -1.8132    -3.2493 H       
  47 H47           -6.7453    -0.4873    -4.7453 H       
  48 H48           -4.3204     2.9649    -4.0138 H       
  49 H49           -2.8914     1.6492    -2.5107 H       
  50 H50          -10.0162     6.2204    -2.1509 H       
  51 H51          -10.5781     6.0216    -4.5146 H       
  52 H52           -9.7256     4.1471    -5.8555 H       
  53 H53           -6.5943     1.7226    -0.6278 H       
  54 H54           -7.3897     3.5596     0.8010 H       
  55 H55           -8.8289     5.3175    -0.1458 H       
  56 H56            1.2029    -1.6680    -5.1333 H       
  57 H57            3.2017    -2.6602    -6.1722 H       
  58 H58            5.1188    -3.3197    -4.7801 H       
  59 H59            5.0457    -2.9955    -2.3410 H       
  60 H60            4.0225    -2.1847     0.7944 H       
  61 H61            4.3538    -3.4483    -0.4147 H       
  62 H62            5.0603    -1.8258    -0.6065 H       
@<TRIPOS>BOND
   1    1    2 1
   2    1   28 1
   3    1    6 1
   4    2    3 1
   5    2   38 1
   6    2   39 1
   7    3    4 1
   8    3   40 1
   9    3   41 1
  10    4    5 1
  11    4    7 am
  12    5    6 1
  13    5   42 1
  14    5   43 1
  15    6   44 1
  16    6   45 1
  17    7    8 2
  18    7    9 1
  19    9   10 ar
  20    9   14 ar
  21   10   11 ar
  22   10   46 1
  23   11   12 ar
  24   11   47 1
  25   12   13 ar
  26   12   36 1
  27   13   14 ar
  28   13   48 1
  29   14   49 1
  30   15   16 1
  31   15   17 2
  32   15   18 2
  33   15   36 am
  34   16   19 ar
  35   16   23 ar
  36   19   20 ar
  37   19   24 ar
  38   20   21 ar
  39   20   27 ar
  40   21   22 ar
  41   21   50 1
  42   22   23 ar
  43   22   51 1
  44   23   52 1
  45   24   25 ar
  46   25   26 ar
  47   25   53 1
  48   26   27 ar
  49   26   54 1
  50   27   55 1
  51   28   29 ar
  52   28   30 ar
  53   29   34 1
  54   29   33 ar
  55   30   31 ar
  56   30   56 1
  57   31   32 ar
  58   31   57 1
  59   32   33 ar
  60   32   58 1
  61   33   59 1
  62   34   35 1
  63   35   60 1
  64   35   61 1
  65   35   62 1
  66   36   37 1

#	End of record

