#	Name: ASD01190073
#	Creating user name:	WinNT
#	Creation time:	15. 06. 2019 19:07

#	Modifying user name:	WinNT
#	Modification time:	15. 06. 2019 19:07

#	Program:	/corina/corina34_cracker 3.40 0067  02.08.2006

@<TRIPOS>MOLECULE
ASD01190073
  48   51    0    0    0
SMALL
NO_CHARGES


@<TRIPOS>ATOM
   1 C1            -0.0187     1.5258     0.0104 C.3     
   2 C2             0.8164     0.3164    -0.4149 C.3     
   3 C3             0.6528     3.1450     1.8016 C.ar    
   4 C4             0.8901     2.5967     0.5567 C.ar    
   5 C5             1.9747     3.0421    -0.1859 C.ar    
   6 C6             2.7842     4.0269     0.3534 C.ar    
   7 C7             2.4857     4.5330     1.6117 C.ar    
   8 N8             1.4423     4.0830     2.2890 N.ar    
   9 O9             3.2714     5.4985     2.1514 O.3     
  10 C10            2.9117     5.9778     3.4487 C.3     
  11 C11            3.9739     4.5426    -0.4144 C.3     
  12 N12           -3.0408     3.5004    -4.2997 N.pl3   
  13 N13           -4.3144     3.4141    -3.7276 N.2     
  14 C14           -4.2301     2.9399    -2.5169 C.2     
  15 C15           -2.8214     2.6837    -2.2345 C.ar    
  16 C16           -2.1264     2.1852    -1.1269 C.ar    
  17 C17           -0.7682     2.0629    -1.1815 C.ar    
  18 C18           -0.0699     2.4294    -2.3256 C.ar    
  19 C19           -0.7262     2.9189    -3.4193 C.ar    
  20 C20           -2.1115     3.0545    -3.3930 C.ar    
  21 C21           -2.7596     3.9619    -5.5921 C.ar    
  22 C22           -3.6461     3.7064    -6.6300 C.ar    
  23 C23           -3.3670     4.1622    -7.9033 C.ar    
  24 C24           -2.2039     4.8737    -8.1456 C.ar    
  25 C25           -1.3184     5.1297    -7.1120 C.ar    
  26 C26           -1.5966     4.6805    -5.8360 C.ar    
  27 F27           -1.9324     5.3184    -9.3921 F       
  28 F28            1.5122    -0.1823     0.6916 F       
  29 F29           -0.0272    -0.6778    -0.9220 F       
  30 F30            1.7278     0.7034    -1.4032 F       
  31 O31           -0.9496     1.1305     1.0200 O.3     
  32 H32           -0.1924     2.8051     2.3817 H       
  33 H33            2.1825     2.6295    -1.1621 H       
  34 H34            3.6200     6.7448     3.7619 H       
  35 H35            1.9084     6.4022     3.4139 H       
  36 H36            2.9325     5.1519     4.1598 H       
  37 H37            3.6697     5.3888    -1.0305 H       
  38 H38            4.7471     4.8615     0.2846 H       
  39 H39            4.3655     3.7506    -1.0528 H       
  40 H40           -5.0558     2.7676    -1.8424 H       
  41 H41           -2.6619     1.8990    -0.2337 H       
  42 H42            1.0049     2.3262    -2.3504 H       
  43 H43           -0.1715     3.2004    -4.3022 H       
  44 H44           -4.5532     3.1512    -6.4415 H       
  45 H45           -4.0560     3.9634    -8.7108 H       
  46 H46           -0.4117     5.6844    -7.3031 H       
  47 H47           -0.9082     4.8845    -5.0293 H       
  48 H48           -1.5138     1.8487     1.3376 H       
@<TRIPOS>BOND
   1    1    2 1
   2    1    4 1
   3    1   17 1
   4    1   31 1
   5    2   28 1
   6    2   29 1
   7    2   30 1
   8    3    4 ar
   9    3    8 ar
  10    3   32 1
  11    4    5 ar
  12    5    6 ar
  13    5   33 1
  14    6    7 ar
  15    6   11 1
  16    7    8 ar
  17    7    9 1
  18    9   10 1
  19   10   34 1
  20   10   35 1
  21   10   36 1
  22   11   37 1
  23   11   38 1
  24   11   39 1
  25   12   13 1
  26   12   20 1
  27   12   21 1
  28   13   14 2
  29   14   15 1
  30   14   40 1
  31   15   16 ar
  32   15   20 ar
  33   16   17 ar
  34   16   41 1
  35   17   18 ar
  36   18   19 ar
  37   18   42 1
  38   19   20 ar
  39   19   43 1
  40   21   22 ar
  41   21   26 ar
  42   22   23 ar
  43   22   44 1
  44   23   24 ar
  45   23   45 1
  46   24   25 ar
  47   24   27 1
  48   25   26 ar
  49   25   46 1
  50   26   47 1
  51   31   48 1

#	End of record

