#	Name: ASD06170074
#	Creating user name:	WinNT
#	Creation time:	15. 06. 2019 21:05

#	Modifying user name:	WinNT
#	Modification time:	15. 06. 2019 21:05

#	Program:	/corina/corina34_cracker 3.40 0067  02.08.2006

@<TRIPOS>MOLECULE
ASD06170074
  67   71    0    0    0
SMALL
NO_CHARGES


@<TRIPOS>ATOM
   1 N1             0.0359     1.5277    -0.3348 N.pl3   
   2 N2            -0.0070     0.1428    -0.1483 N.am    
   3 C3             1.2327    -0.2870     0.1659 C.2     
   4 C4             2.0980     0.9032     0.1750 C.2     
   5 C5             1.2903     1.9779    -0.1418 C.2     
   6 C6             3.5365     0.9410     0.4648 C.2     
   7 O7             4.1349     2.0003     0.4381 O.2     
   8 N8             4.1945    -0.1974     0.7604 N.am    
   9 C9            -1.1446    -0.6622    -0.2670 C.ar    
  10 C10           -2.0170    -0.4815    -1.3324 C.ar    
  11 C11           -3.1391    -1.2784    -1.4470 C.ar    
  12 C12           -3.3948    -2.2551    -0.5021 C.ar    
  13 C13           -2.5282    -2.4376     0.5600 C.ar    
  14 C14           -1.4013    -1.6479     0.6772 C.ar    
  15 O15            1.5692    -1.4334     0.3967 O.2     
  16 C16            1.7376     3.4126    -0.2534 C.3     
  17 C17           -1.1122     2.3641    -0.6932 C.3     
  18 C18           -1.7038     2.9877     0.5725 C.3     
  19 C19           -2.9028     3.8612     0.1981 C.3     
  20 O20           -2.1281     1.9515     1.4604 O.3     
  21 C21            5.5903    -0.1904     0.8728 C.ar    
  22 C22            6.2506     0.9705     1.2541 C.ar    
  23 C23            7.6283     0.9763     1.3652 C.ar    
  24 C24            8.3515    -0.1793     1.0952 C.ar    
  25 C25            7.6913    -1.3376     0.7146 C.ar    
  26 C26            6.3139    -1.3453     0.6085 C.ar    
  27 O27            9.7071    -0.1739     1.2039 O.3     
  28 N28           11.3233    -0.1222     4.9979 N.ar    
  29 C29           10.0244    -0.0327     4.8324 C.ar    
  30 C30            9.4442    -0.0465     3.5706 C.ar    
  31 C31           10.2457    -0.1573     2.4477 C.ar    
  32 C32           11.6431    -0.2531     2.6377 C.ar    
  33 C33           12.5191    -0.3675     1.5484 C.ar    
  34 C34           13.8598    -0.4574     1.7639 C.ar    
  35 C35           14.3784    -0.4372     3.0618 C.ar    
  36 C36           13.5447    -0.3264     4.1515 C.ar    
  37 C37           12.1575    -0.2317     3.9571 C.ar    
  38 O38           15.7205    -0.5284     3.2499 O.3     
  39 C39           16.5334    -0.6417     2.0801 C.3     
  40 F40            8.2716     2.1051     1.7357 F       
  41 H41            3.7013    -1.0217     0.8954 H       
  42 H42           -1.8183     0.2816    -2.0704 H       
  43 H43           -3.8179    -1.1383    -2.2753 H       
  44 H44           -4.2734    -2.8765    -0.5935 H       
  45 H45           -2.7307    -3.2013     1.2963 H       
  46 H46           -0.7227    -1.7937     1.5047 H       
  47 H47            1.6413     3.8998     0.7169 H       
  48 H48            2.7788     3.4447    -0.5743 H       
  49 H49            1.1163     3.9312    -0.9835 H       
  50 H50           -0.7885     3.1544    -1.3705 H       
  51 H51           -1.8685     1.7519    -1.1844 H       
  52 H52           -0.9475     3.5999     1.0636 H       
  53 H53           -3.6592     3.2490    -0.2930 H       
  54 H54           -3.3243     4.3055     1.0998 H       
  55 H55           -2.5792     4.6516    -0.4792 H       
  56 H56           -2.8023     1.3665     1.0886 H       
  57 H57            5.6878     1.8682     1.4634 H       
  58 H58            8.2539    -2.2353     0.5049 H       
  59 H59            5.8002    -2.2491     0.3159 H       
  60 H60            9.3891     0.0542     5.7015 H       
  61 H61            8.3719     0.0281     3.4660 H       
  62 H62           12.1305    -0.3846     0.5408 H       
  63 H63           14.5309    -0.5457     0.9223 H       
  64 H64           13.9553    -0.3124     5.1503 H       
  65 H65           17.5818    -0.7065     2.3711 H       
  66 H66           16.2533    -1.5392     1.5286 H       
  67 H67           16.3851     0.2341     1.4484 H       
@<TRIPOS>BOND
   1    1    2 1
   2    1    5 1
   3    1   17 1
   4    2    3 am
   5    2    9 1
   6    3    4 1
   7    3   15 2
   8    4    5 2
   9    4    6 1
  10    5   16 1
  11    6    7 2
  12    6    8 am
  13    8   21 1
  14    8   41 1
  15    9   10 ar
  16    9   14 ar
  17   10   11 ar
  18   10   42 1
  19   11   12 ar
  20   11   43 1
  21   12   13 ar
  22   12   44 1
  23   13   14 ar
  24   13   45 1
  25   14   46 1
  26   16   47 1
  27   16   48 1
  28   16   49 1
  29   17   18 1
  30   17   50 1
  31   17   51 1
  32   18   19 1
  33   18   20 1
  34   18   52 1
  35   19   53 1
  36   19   54 1
  37   19   55 1
  38   20   56 1
  39   21   22 ar
  40   21   26 ar
  41   22   23 ar
  42   22   57 1
  43   23   24 ar
  44   23   40 1
  45   24   25 ar
  46   24   27 1
  47   25   26 ar
  48   25   58 1
  49   26   59 1
  50   27   31 1
  51   28   29 ar
  52   28   37 ar
  53   29   30 ar
  54   29   60 1
  55   30   31 ar
  56   30   61 1
  57   31   32 ar
  58   32   33 ar
  59   32   37 ar
  60   33   34 ar
  61   33   62 1
  62   34   35 ar
  63   34   63 1
  64   35   36 ar
  65   35   38 1
  66   36   37 ar
  67   36   64 1
  68   38   39 1
  69   39   65 1
  70   39   66 1
  71   39   67 1

#	End of record

