#	Name: ASD09740714
#	Creating user name:	WinNT
#	Creation time:	15. 06. 2019 21:23

#	Modifying user name:	WinNT
#	Modification time:	15. 06. 2019 21:23

#	Program:	/corina/corina34_cracker 3.40 0067  02.08.2006

@<TRIPOS>MOLECULE
ASD09740714
  48   50    0    0    0
SMALL
NO_CHARGES


@<TRIPOS>ATOM
   1 Si1            0.2371     2.9914     0.2432 Si      
   2 C2             1.2784     1.5601    -0.3380 C.3     
   3 C3             1.3356     4.2911     1.0013 C.3     
   4 C4            -0.6795     3.7209    -1.2054 C.3     
   5 C5            -1.5817     2.6535    -1.8280 C.3     
   6 C6            -1.5347     4.8964    -0.7281 C.3     
   7 C7             0.3250     4.2120    -2.2497 C.3     
   8 O8            -0.8338     2.4679     1.3564 O.3     
   9 C9            -0.2316     1.9652     2.5508 C.3     
  10 C10           -0.2305     3.0508     3.6480 C.3     
  11 C11           -1.5452     2.7591     4.4023 C.3     
  12 C12           -1.8105     1.2858     4.1796 C.ar    
  13 C13           -2.6548     0.4039     4.8610 C.ar    
  14 C14           -2.7318    -0.9309     4.4650 C.ar    
  15 C15           -1.9732    -1.3748     3.4013 C.ar    
  16 C16           -1.1401    -0.4991     2.7310 C.ar    
  17 C17           -1.0573     0.8299     3.1178 C.ar    
  18 C18           -3.4644     0.8859     6.0001 C.2     
  19 C19           -4.7882     0.6839     6.1546 C.2     
  20 C20           -5.3249     1.2310     7.3023 C.2     
  21 C21           -4.4526     1.8757     8.0833 C.2     
  22 S22           -2.8480     1.8050     7.3672 S.3     
  23 Br23          -7.1589     1.0801     7.7376 Br      
  24 H24            1.8851     1.1925     0.4897 H       
  25 H25            0.6298     0.7607    -0.6961 H       
  26 H26            1.9298     1.8897    -1.1474 H       
  27 H27            2.0513     4.6410     0.2573 H       
  28 H28            0.7264     5.1286     1.3413 H       
  29 H29            1.8719     3.8643     1.8488 H       
  30 H30           -2.2974     2.3037    -1.0840 H       
  31 H31           -2.1180     3.0804    -2.6755 H       
  32 H32           -0.9724     1.8161    -2.1680 H       
  33 H33           -0.8920     5.6569    -0.2846 H       
  34 H34           -2.0711     5.3233    -1.5756 H       
  35 H35           -2.2504     4.5466     0.0159 H       
  36 H36            0.9343     3.3746    -2.5897 H       
  37 H37           -0.2113     4.6389    -3.0972 H       
  38 H38            0.9678     4.9725    -1.8061 H       
  39 H39            0.7859     1.6306     2.3488 H       
  40 H40            0.6291     2.9341     4.3079 H       
  41 H41           -0.2495     4.0475     3.2071 H       
  42 H42           -1.4248     2.9653     5.4659 H       
  43 H43           -2.3584     3.3565     3.9901 H       
  44 H44           -3.3826    -1.6150     4.9893 H       
  45 H45           -2.0302    -2.4081     3.0924 H       
  46 H46           -0.5487    -0.8529     1.8995 H       
  47 H47           -5.3820     0.1375     5.4368 H       
  48 H48           -4.6958     2.3631     9.0159 H       
@<TRIPOS>BOND
   1    1    2 1
   2    1    3 1
   3    1    4 1
   4    1    8 1
   5    2   24 1
   6    2   25 1
   7    2   26 1
   8    3   27 1
   9    3   28 1
  10    3   29 1
  11    4    5 1
  12    4    7 1
  13    4    6 1
  14    5   30 1
  15    5   31 1
  16    5   32 1
  17    6   33 1
  18    6   34 1
  19    6   35 1
  20    7   36 1
  21    7   37 1
  22    7   38 1
  23    8    9 1
  24    9   10 1
  25    9   17 1
  26    9   39 1
  27   10   11 1
  28   10   40 1
  29   10   41 1
  30   11   12 1
  31   11   42 1
  32   11   43 1
  33   12   13 ar
  34   12   17 ar
  35   13   14 ar
  36   13   18 1
  37   14   15 ar
  38   14   44 1
  39   15   16 ar
  40   15   45 1
  41   16   17 ar
  42   16   46 1
  43   18   19 2
  44   18   22 1
  45   19   20 1
  46   19   47 1
  47   20   21 2
  48   20   23 1
  49   21   22 1
  50   21   48 1

#	End of record

