#	Name: ASD01812604
#	Creating user name:	WinNT
#	Creation time:	15. 06. 2019 19:28

#	Modifying user name:	WinNT
#	Modification time:	15. 06. 2019 19:28

#	Program:	/corina/corina34_cracker 3.40 0067  02.08.2006

@<TRIPOS>MOLECULE
ASD01812604
  44   48    0    0    0
SMALL
NO_CHARGES


@<TRIPOS>ATOM
   1 F1             0.0021    -0.0041     0.0020 F       
   2 C2            -0.0162     1.3468     0.0094 C.ar    
   3 C3            -1.2233     2.0206     0.0303 C.ar    
   4 C4            -1.2410     3.4138     0.0380 C.ar    
   5 C5            -0.0409     4.1217     0.0245 C.ar    
   6 C6             1.1614     3.4396     0.0037 C.ar    
   7 F7             2.3256     4.1249    -0.0090 F       
   8 C8             1.1743     2.0545     0.0019 C.ar    
   9 C9             2.4875     1.3155    -0.0141 C.3     
  10 N10            2.9002     1.0830    -1.4005 N.am    
  11 C11            2.5512    -0.0892    -2.2108 C.3     
  12 C12            3.1994     0.1187    -3.5583 C.ar    
  13 N13            3.2255    -0.5963    -4.6605 N.ar    
  14 C14            3.8781    -0.1924    -5.7351 C.ar    
  15 C15            4.5657     1.0077    -5.7441 C.ar    
  16 C16            4.5683     1.7974    -4.6069 C.ar    
  17 C17            3.8678     1.3428    -3.4852 C.ar    
  18 C18            3.6563     1.9112    -2.1419 C.2     
  19 O19            4.1032     2.9748    -1.7588 O.2     
  20 C20           -2.5337     4.1413     0.0599 C.ar    
  21 C21           -3.7386     3.4213     0.0787 C.ar    
  22 C22           -4.9354     4.0630     0.0985 C.ar    
  23 C23           -4.9814     5.4689     0.1005 C.ar    
  24 N24           -6.1506     6.1170     0.1200 N.ar    
  25 C25           -6.2051     7.4267     0.1224 C.ar    
  26 C26           -5.0522     8.2090     0.1048 C.ar    
  27 C27           -3.8242     7.6118     0.0845 C.ar    
  28 C28           -3.7695     6.2042     0.0820 C.ar    
  29 C29           -2.5434     5.5241     0.0674 C.ar    
  30 H30           -2.1511     1.4679     0.0404 H       
  31 H31           -0.0500     5.2017     0.0300 H       
  32 H32            3.2454     1.9103     0.4956 H       
  33 H33            2.3725     0.3591     0.4960 H       
  34 H34            2.9385    -0.9953    -1.7448 H       
  35 H35            1.4691    -0.1583    -2.3226 H       
  36 H36            3.8752    -0.8094    -6.6214 H       
  37 H37            5.0958     1.3255    -6.6297 H       
  38 H38            5.0973     2.7388    -4.5865 H       
  39 H39           -3.7135     2.3416     0.0770 H       
  40 H40           -5.8528     3.4933     0.1125 H       
  41 H41           -7.1695     7.9125     0.1380 H       
  42 H42           -5.1296     9.2862     0.1069 H       
  43 H43           -2.9201     8.2024     0.0711 H       
  44 H44           -1.6148     6.0754     0.0577 H       
@<TRIPOS>BOND
   1    1    2 1
   2    2    8 ar
   3    2    3 ar
   4    3    4 ar
   5    3   30 1
   6    4    5 ar
   7    4   20 1
   8    5    6 ar
   9    5   31 1
  10    6    7 1
  11    6    8 ar
  12    8    9 1
  13    9   10 1
  14    9   32 1
  15    9   33 1
  16   10   18 am
  17   10   11 1
  18   11   12 1
  19   11   34 1
  20   11   35 1
  21   12   17 ar
  22   12   13 ar
  23   13   14 ar
  24   14   15 ar
  25   14   36 1
  26   15   16 ar
  27   15   37 1
  28   16   17 ar
  29   16   38 1
  30   17   18 1
  31   18   19 2
  32   20   29 ar
  33   20   21 ar
  34   21   22 ar
  35   21   39 1
  36   22   23 ar
  37   22   40 1
  38   23   28 ar
  39   23   24 ar
  40   24   25 ar
  41   25   26 ar
  42   25   41 1
  43   26   27 ar
  44   26   42 1
  45   27   28 ar
  46   27   43 1
  47   28   29 ar
  48   29   44 1

#	End of record

