#	Name: ASD00170031
#	Creating user name:	WinNT
#	Creation time:	15. 06. 2019 18:31

#	Modifying user name:	WinNT
#	Modification time:	15. 06. 2019 18:31

#	Program:	/corina/corina34_cracker 3.40 0067  02.08.2006

@<TRIPOS>MOLECULE
ASD00170031
  40   43    0    0    0
SMALL
NO_CHARGES


@<TRIPOS>ATOM
   1 C1            -0.0176     1.4102    -0.0060 C.ar    
   2 C2             0.0015    -0.0045    -0.0150 C.ar    
   3 C3            -1.2182    -0.7144     0.0037 C.ar    
   4 C4            -2.4192    -0.0379     0.0301 C.ar    
   5 C5            -2.4730     1.3458     0.0392 C.ar    
   6 C6            -1.3059     2.1014     0.0180 C.ar    
   7 C7             1.1901     2.1180    -0.0260 C.ar    
   8 C8             2.3705     1.4363    -0.0539 C.ar    
   9 C9             2.3918     0.0442    -0.0627 C.ar    
  10 C10            1.2346    -0.6745    -0.0429 C.ar    
  11 C11           -1.3661     3.5727     0.0283 C.2     
  12 C12           -2.6597     4.2532    -0.0638 C.2     
  13 O13           -0.3397     4.2239     0.1133 O.2     
  14 C14           -3.5112     4.5219     1.0928 C.2     
  15 C15           -4.6343     5.1505     0.7615 C.2     
  16 S16           -4.7003     5.4422    -0.9763 S.3     
  17 C17           -3.1897     4.7065    -1.2402 C.2     
  18 N18           -2.5836     4.5793    -2.4746 N.pl3   
  19 C19           -3.4677     4.2762     2.5984 C.3     
  20 C20           -4.5182     5.2386     3.1878 C.3     
  21 C21           -5.4860     5.4070     1.9992 C.3     
  22 O22           -1.2087    -2.0700    -0.0048 O.3     
  23 C23           -2.4771    -2.7278     0.0152 C.3     
  24 H24           -3.3407    -0.6010     0.0437 H       
  25 H25           -3.4314     1.8432     0.0593 H       
  26 H26            1.1867     3.1980    -0.0198 H       
  27 H27            3.3015     1.9834    -0.0697 H       
  28 H28            3.3394    -0.4734    -0.0849 H       
  29 H29            1.2659    -1.7540    -0.0501 H       
  30 H30           -3.0537     4.8563    -3.2766 H       
  31 H31           -1.6878     4.2131    -2.5397 H       
  32 H32           -3.7327     3.2428     2.8217 H       
  33 H33           -2.4780     4.5082     2.9920 H       
  34 H34           -5.0238     4.7890     4.0425 H       
  35 H35           -4.0653     6.1917     3.4609 H       
  36 H36           -5.8890     6.4195     1.9790 H       
  37 H37           -6.2936     4.6777     2.0615 H       
  38 H38           -3.0192    -2.4443     0.9174 H       
  39 H39           -3.0529    -2.4334    -0.8623 H       
  40 H40           -2.3267    -3.8073     0.0058 H       
@<TRIPOS>BOND
   1    1    2 ar
   2    1    7 ar
   3    1    6 ar
   4    2    3 ar
   5    2   10 ar
   6    3    4 ar
   7    3   22 1
   8    4    5 ar
   9    4   24 1
  10    5    6 ar
  11    5   25 1
  12    6   11 1
  13    7    8 ar
  14    7   26 1
  15    8    9 ar
  16    8   27 1
  17    9   10 ar
  18    9   28 1
  19   10   29 1
  20   11   12 1
  21   11   13 2
  22   12   14 1
  23   12   17 2
  24   14   15 2
  25   14   19 1
  26   15   16 1
  27   15   21 1
  28   16   17 1
  29   17   18 1
  30   18   30 1
  31   18   31 1
  32   19   20 1
  33   19   32 1
  34   19   33 1
  35   20   21 1
  36   20   34 1
  37   20   35 1
  38   21   36 1
  39   21   37 1
  40   22   23 1
  41   23   38 1
  42   23   39 1
  43   23   40 1

#	End of record

