#	Name: ASD02390014
#	Creating user name:	WinNT
#	Creation time:	15. 06. 2019 20:20

#	Modifying user name:	WinNT
#	Modification time:	15. 06. 2019 20:20

#	Program:	/corina/corina34_cracker 3.40 0067  02.08.2006

@<TRIPOS>MOLECULE
ASD02390014
  41   43    0    0    0
SMALL
NO_CHARGES


@<TRIPOS>ATOM
   1 F1             7.1990     5.1604     2.7789 F       
   2 O2             0.9195     4.8468     3.0804 O.2     
   3 N3             0.0580     1.5942    -0.1234 N.3     
   4 N4             1.2714     2.9285     2.0175 N.am    
   5 C5             0.6919     1.4598    -2.9374 C.3     
   6 C6             1.4329     2.4007    -1.9834 C.3     
   7 C7             0.2021     0.2367    -2.1573 C.3     
   8 C8             0.4982     2.7987    -0.8389 C.3     
   9 C9            -0.6969     0.6974    -1.0077 C.3     
  10 C10           -0.6918     1.9297     1.0090 C.ar    
  11 C11           -0.0879     2.5951     2.0763 C.ar    
  12 C12           -2.0390     1.6070     1.0717 C.ar    
  13 C13           -0.8369     2.9251     3.1953 C.ar    
  14 C14           -2.7782     1.9400     2.1918 C.ar    
  15 C15           -2.1783     2.5942     3.2516 C.ar    
  16 C16            1.7129     4.0623     2.5971 C.2     
  17 C17            3.1604     4.3519     2.6453 C.ar    
  18 C18            3.6206     5.5261     3.2454 C.ar    
  19 C19            4.0743     3.4498     2.0961 C.ar    
  20 C20            4.9725     5.7914     3.2875 C.ar    
  21 C21            5.4240     3.7251     2.1438 C.ar    
  22 C22            5.8750     4.8953     2.7352 C.ar    
  23 H23           -0.1614     1.9801    -3.3723 H       
  24 H24            1.3673     1.1394    -3.7307 H       
  25 H25           -0.3631    -0.4165    -2.8221 H       
  26 H26            1.0581    -0.3051    -1.7551 H       
  27 H27            2.3083     1.8929    -1.5785 H       
  28 H28            1.7471     3.2936    -2.5239 H       
  29 H29           -1.0359    -0.1702    -0.4416 H       
  30 H30           -1.5598     1.2271    -1.4114 H       
  31 H31           -0.3703     3.3186    -1.2433 H       
  32 H32            1.0273     3.4572    -0.1501 H       
  33 H33           -2.5109     1.0958     0.2456 H       
  34 H34           -0.3726     3.4402     4.0232 H       
  35 H35           -3.8274     1.6882     2.2388 H       
  36 H36            1.8950     2.3433     1.5596 H       
  37 H37           -2.7601     2.8514     4.1244 H       
  38 H38            2.9185     6.2251     3.6753 H       
  39 H39            3.7240     2.5381     1.6352 H       
  40 H40            5.3295     6.6991     3.7513 H       
  41 H41            6.1316     3.0282     1.7193 H       
@<TRIPOS>BOND
   1    1   22 1
   2    2   16 2
   3    3    8 1
   4    3    9 1
   5    3   10 1
   6    4   11 1
   7    4   16 am
   8    4   36 1
   9    5    6 1
  10    5    7 1
  11    5   23 1
  12    5   24 1
  13    6    8 1
  14    6   27 1
  15    6   28 1
  16    7    9 1
  17    7   25 1
  18    7   26 1
  19    8   31 1
  20    8   32 1
  21    9   29 1
  22    9   30 1
  23   10   11 ar
  24   10   12 ar
  25   11   13 ar
  26   12   14 ar
  27   12   33 1
  28   13   15 ar
  29   13   34 1
  30   14   15 ar
  31   14   35 1
  32   15   37 1
  33   16   17 1
  34   17   18 ar
  35   17   19 ar
  36   18   20 ar
  37   18   38 1
  38   19   21 ar
  39   19   39 1
  40   20   22 ar
  41   20   40 1
  42   21   22 ar
  43   21   41 1

#	End of record

