#	Name: ASD07330027
#	Creating user name:	WinNT
#	Creation time:	15. 06. 2019 21:11

#	Modifying user name:	WinNT
#	Modification time:	15. 06. 2019 21:11

#	Program:	/corina/corina34_cracker 3.40 0067  02.08.2006

@<TRIPOS>MOLECULE
ASD07330027
  91   95    0    0    0
SMALL
NO_CHARGES


@<TRIPOS>ATOM
   1 C1            -0.6803     2.5389    -1.3393 C.ar    
   2 C2            -0.9196     1.1767    -1.2916 C.ar    
   3 C3             0.1008     0.2963    -0.9756 C.ar    
   4 C4             1.3646     0.7756    -0.7062 C.ar    
   5 C5             1.6149     2.1481    -0.7669 C.ar    
   6 C6             0.5827     3.0312    -1.0784 C.ar    
   7 C7             2.4785    -0.1640    -0.3262 C.3     
   8 C8             3.8109     0.3616    -0.8545 C.3     
   9 N9             4.0059     1.7612    -0.4829 N.am    
  10 C10            2.9856     2.6392    -0.5174 C.2     
  11 C11            5.2278     2.1804    -0.0986 C.2     
  12 O12            6.1536     1.3984    -0.0635 O.2     
  13 C13            6.9072     3.8305     0.6796 C.3     
  14 C14            5.4433     3.6211     0.2874 C.3     
  15 C15            3.8299     0.2411    -2.3566 C.2     
  16 O16            3.5991     1.2120    -3.0458 O.2     
  17 N17            4.1033    -0.9456    -2.9340 N.am    
  18 C18            5.4990    -0.6549    -4.9212 C.3     
  19 C19            4.1218    -1.0627    -4.3942 C.3     
  20 N20            3.8017    -2.8354    -6.0895 N.am    
  21 C21            3.8357    -2.4891    -4.7874 C.2     
  22 C22            3.5429    -4.3444    -7.9967 C.3     
  23 C23            3.5236    -4.2220    -6.4717 C.3     
  24 O24            3.1904     3.8244    -0.3453 O.2     
  25 O25            3.6360    -3.3255    -3.9321 O.2     
  26 C26            4.9328    -4.0616    -8.5057 C.ar    
  27 C27            3.1367    -5.7402    -8.3938 C.ar    
  28 C28            3.7747    -6.8313    -7.8340 C.ar    
  29 C29            3.4022    -8.1117    -8.1983 C.ar    
  30 C30            2.3914    -8.3010    -9.1221 C.ar    
  31 C31            1.7528    -7.2099    -9.6812 C.ar    
  32 C32            2.1224    -5.9295    -9.3136 C.ar    
  33 C33            5.1260    -3.1253    -9.5042 C.ar    
  34 C34            6.4010    -2.8660    -9.9712 C.ar    
  35 C35            7.4828    -3.5426    -9.4395 C.ar    
  36 C36            7.2897    -4.4783    -8.4404 C.ar    
  37 C37            6.0152    -4.7345    -7.9703 C.ar    
  38 C38            5.7374     0.8283    -4.6311 C.3     
  39 C39            7.1147     1.2362    -5.1581 C.3     
  40 C40            7.3530     2.7194    -4.8679 C.3     
  41 N41            8.6754     3.1110    -5.3739 N.3     
  42 C42            7.1227     5.2712     1.0656 C.2     
  43 O43            6.1967     6.0533     1.0305 O.2     
  44 C44            8.4569     5.7290     1.4852 C.ar    
  45 C45            8.6609     7.0652     1.8442 C.ar    
  46 C46            9.9139     7.4862     2.2367 C.ar    
  47 C47           10.9683     6.5904     2.2755 C.ar    
  48 C48           10.7745     5.2666     1.9213 C.ar    
  49 C49            9.5261     4.8287     1.5326 C.ar    
  50 H50           -1.4828     3.2184    -1.5856 H       
  51 H51           -1.9090     0.7981    -1.5019 H       
  52 H52           -0.0934    -0.7655    -0.9399 H       
  53 H53            0.7700     4.0942    -1.1158 H       
  54 H54            2.5274    -0.2463     0.7596 H       
  55 H55            2.2832    -1.1477    -0.7531 H       
  56 H56            4.6219    -0.2357    -0.4380 H       
  57 H57            7.1526     3.1874     1.5247 H       
  58 H58            7.5490     3.5809    -0.1653 H       
  59 H59            5.1980     4.2643    -0.5578 H       
  60 H60            4.8015     3.8707     1.1323 H       
  61 H61            4.2879    -1.7221    -2.3828 H       
  62 H62            6.2676    -1.2497    -4.4277 H       
  63 H63            5.5418    -0.8262    -5.9968 H       
  64 H64            3.3613    -0.4087    -4.8208 H       
  65 H65            3.9614    -2.1664    -6.7735 H       
  66 H66            2.8451    -3.6264    -8.4276 H       
  67 H67            4.2841    -4.8760    -6.0451 H       
  68 H68            2.5424    -4.5126    -6.0962 H       
  69 H69            4.5645    -6.6834    -7.1123 H       
  70 H70            3.9011    -8.9641    -7.7615 H       
  71 H71            2.1008    -9.3013    -9.4073 H       
  72 H72            0.9633    -7.3577   -10.4031 H       
  73 H73            1.6234    -5.0771    -9.7504 H       
  74 H74            4.2809    -2.5966    -9.9196 H       
  75 H75            6.5519    -2.1350   -10.7518 H       
  76 H76            8.4788    -3.3405    -9.8048 H       
  77 H77            8.1348    -5.0072    -8.0252 H       
  78 H78            5.8643    -5.4655    -7.1898 H       
  79 H79            4.9688     1.4232    -5.1246 H       
  80 H80            5.6946     0.9996    -3.5555 H       
  81 H81            7.8833     0.6413    -4.6646 H       
  82 H82            7.1575     1.0649    -6.2337 H       
  83 H83            6.5844     3.3142    -5.3614 H       
  84 H84            7.3102     2.8907    -3.7923 H       
  85 H85            8.8567     4.0872    -5.1943 H       
  86 H86            9.4000     2.5300    -4.9795 H       
  87 H87            7.8393     7.7655     1.8137 H       
  88 H88           10.0730     8.5177     2.5142 H       
  89 H89           11.9474     6.9264     2.5835 H       
  90 H90           11.6023     4.5737     1.9538 H       
  91 H91            9.3765     3.7954     1.2565 H       
@<TRIPOS>BOND
   1    1    2 ar
   2    1    6 ar
   3    1   50 1
   4    2    3 ar
   5    2   51 1
   6    3    4 ar
   7    3   52 1
   8    4    5 ar
   9    4    7 1
  10    5    6 ar
  11    5   10 1
  12    6   53 1
  13    7    8 1
  14    7   54 1
  15    7   55 1
  16    8    9 1
  17    8   15 1
  18    8   56 1
  19    9   10 am
  20    9   11 am
  21   10   24 2
  22   11   12 2
  23   11   14 1
  24   13   14 1
  25   13   42 1
  26   13   57 1
  27   13   58 1
  28   14   59 1
  29   14   60 1
  30   15   16 2
  31   15   17 am
  32   17   19 1
  33   17   61 1
  34   18   38 1
  35   18   19 1
  36   18   62 1
  37   18   63 1
  38   19   21 1
  39   19   64 1
  40   20   21 am
  41   20   23 1
  42   20   65 1
  43   21   25 2
  44   22   23 1
  45   22   26 1
  46   22   27 1
  47   22   66 1
  48   23   67 1
  49   23   68 1
  50   26   33 ar
  51   26   37 ar
  52   27   28 ar
  53   27   32 ar
  54   28   29 ar
  55   28   69 1
  56   29   30 ar
  57   29   70 1
  58   30   31 ar
  59   30   71 1
  60   31   32 ar
  61   31   72 1
  62   32   73 1
  63   33   34 ar
  64   33   74 1
  65   34   35 ar
  66   34   75 1
  67   35   36 ar
  68   35   76 1
  69   36   37 ar
  70   36   77 1
  71   37   78 1
  72   38   39 1
  73   38   79 1
  74   38   80 1
  75   39   40 1
  76   39   81 1
  77   39   82 1
  78   40   41 1
  79   40   83 1
  80   40   84 1
  81   41   85 1
  82   41   86 1
  83   42   43 2
  84   42   44 1
  85   44   45 ar
  86   44   49 ar
  87   45   46 ar
  88   45   87 1
  89   46   47 ar
  90   46   88 1
  91   47   48 ar
  92   47   89 1
  93   48   49 ar
  94   48   90 1
  95   49   91 1

#	End of record

