#	Name: ASD00069128
#	Creating user name:	WinNT
#	Creation time:	15. 06. 2019 18:29

#	Modifying user name:	WinNT
#	Modification time:	15. 06. 2019 18:29

#	Program:	/corina/corina34_cracker 3.40 0067  02.08.2006

@<TRIPOS>MOLECULE
ASD00069128
  54   57    0    0    0
SMALL
NO_CHARGES


@<TRIPOS>ATOM
   1 C1            -0.0635     1.2949    -0.5898 C.2     
   2 N2            -0.0205     0.0044    -0.3437 N.2     
   3 C3             1.2318    -0.4329    -0.5256 C.2     
   4 C4             2.0015     0.6327    -0.9013 C.2     
   5 N5             1.1902     1.7130    -0.9412 N.pl3   
   6 C6            -1.2635     2.1474    -0.5071 C.2     
   7 O7            -1.1845     3.3347    -0.7587 O.2     
   8 N8            -2.4480     1.6111    -0.1526 N.am    
   9 C9            -3.5619     2.4380     0.0386 C.ar    
  10 C10           -4.8463     1.8958     0.0207 C.ar    
  11 C11           -5.9464     2.7213     0.2114 C.ar    
  12 C12           -5.7650     4.0779     0.4183 C.ar    
  13 C13           -4.4906     4.6141     0.4353 C.ar    
  14 C14           -3.3901     3.7980     0.2519 C.ar    
  15 F15           -7.1930     2.2009     0.1946 F       
  16 N16           -5.0263     0.5226    -0.1893 N.3     
  17 C17           -5.7500     0.2724    -1.4424 C.3     
  18 C18           -5.8007    -1.2332    -1.7118 C.3     
  19 C19           -6.5050    -1.9321    -0.5456 C.3     
  20 C20           -5.7594    -1.6159     0.7540 C.3     
  21 C21           -5.7100    -0.0992     0.9519 C.3     
  22 N22           -6.5428    -1.4844    -2.9544 N.3     
  23 C23            3.4508    -3.4683    -0.2943 C.ar    
  24 C24            3.0544    -2.1485    -0.4669 C.ar    
  25 C25            1.7019    -1.8288    -0.3495 C.ar    
  26 C26            0.7996    -2.8595    -0.0605 C.ar    
  27 C27            1.2739    -4.1434     0.0966 C.ar    
  28 N28            2.5615    -4.4115    -0.0218 N.ar    
  29 C29            0.3090    -5.2584     0.4077 C.3     
  30 N30            4.7947    -3.8041    -0.4139 N.pl3   
  31 H31            3.0582     0.6147    -1.1239 H       
  32 H32            1.4493     2.6178    -1.1760 H       
  33 H33           -2.5290     0.6523    -0.0298 H       
  34 H34           -6.6212     4.7193     0.5666 H       
  35 H35           -4.3544     5.6733     0.5967 H       
  36 H36           -2.3961     4.2200     0.2703 H       
  37 H37           -6.7650     0.6608    -1.3594 H       
  38 H38           -5.2364     0.7713    -2.2642 H       
  39 H39           -4.7862    -1.6200    -1.8086 H       
  40 H40           -7.5319    -1.5738    -0.4728 H       
  41 H41           -6.5050    -3.0092    -0.7127 H       
  42 H42           -6.2807    -2.0756     1.5936 H       
  43 H43           -4.7443    -2.0086     0.6959 H       
  44 H44           -5.1673     0.1299     1.8691 H       
  45 H45           -6.7252     0.2910     1.0237 H       
  46 H46           -6.5900    -2.4723    -3.1540 H       
  47 H47           -7.4660    -1.0795    -2.9123 H       
  48 H48            3.7820    -1.3818    -0.6887 H       
  49 H49           -0.2554    -2.6507     0.0383 H       
  50 H50           -0.0511    -5.6974    -0.5227 H       
  51 H51            0.8148    -6.0224     0.9981 H       
  52 H52           -0.5345    -4.8618     0.9728 H       
  53 H53            5.4498    -3.1182    -0.6169 H       
  54 H54            5.0772    -4.7244    -0.2943 H       
@<TRIPOS>BOND
   1    1    2 2
   2    1    5 1
   3    1    6 1
   4    2    3 1
   5    3    4 2
   6    3   25 1
   7    4    5 1
   8    4   31 1
   9    5   32 1
  10    6    7 2
  11    6    8 am
  12    8    9 1
  13    8   33 1
  14    9   10 ar
  15    9   14 ar
  16   10   11 ar
  17   10   16 1
  18   11   12 ar
  19   11   15 1
  20   12   13 ar
  21   12   34 1
  22   13   14 ar
  23   13   35 1
  24   14   36 1
  25   16   17 1
  26   16   21 1
  27   17   18 1
  28   17   37 1
  29   17   38 1
  30   18   19 1
  31   18   22 1
  32   18   39 1
  33   19   20 1
  34   19   40 1
  35   19   41 1
  36   20   21 1
  37   20   42 1
  38   20   43 1
  39   21   44 1
  40   21   45 1
  41   22   46 1
  42   22   47 1
  43   23   24 ar
  44   23   28 ar
  45   23   30 1
  46   24   25 ar
  47   24   48 1
  48   25   26 ar
  49   26   27 ar
  50   26   49 1
  51   27   28 ar
  52   27   29 1
  53   29   50 1
  54   29   51 1
  55   29   52 1
  56   30   53 1
  57   30   54 1

#	End of record

