#	Name: ASD01811817
#	Creating user name:	WinNT
#	Creation time:	15. 06. 2019 19:27

#	Modifying user name:	WinNT
#	Modification time:	15. 06. 2019 19:27

#	Program:	/corina/corina34_cracker 3.40 0067  02.08.2006

@<TRIPOS>MOLECULE
ASD01811817
  57   61    0    0    0
SMALL
NO_CHARGES


@<TRIPOS>ATOM
   1 C1            -0.2557     1.4316    -0.1709 C.ar    
   2 C2            -0.0624     0.0606    -0.1555 C.ar    
   3 C3             1.2113    -0.4641    -0.2870 C.ar    
   4 C4             2.2976     0.3731    -0.4347 C.ar    
   5 C5             2.1107     1.7567    -0.4517 C.ar    
   6 C6             0.8209     2.2756    -0.3177 C.ar    
   7 C7            -1.2425    -0.8628     0.0054 C.3     
   8 C8            -1.4145    -1.2177     1.4837 C.3     
   9 C9             1.4128    -1.9575    -0.2681 C.3     
  10 C10            2.8659    -2.2715    -0.5149 C.ar    
  11 C11            3.7572    -2.2974     0.5446 C.ar    
  12 C12            5.0916    -2.5856     0.3197 C.ar    
  13 C13            5.5351    -2.8484    -0.9688 C.ar    
  14 C14            4.6380    -2.8214    -2.0285 C.ar    
  15 C15            3.3059    -2.5388    -1.7981 C.ar    
  16 F16            3.3237    -2.0409     1.7982 F       
  17 N17            6.8865    -3.1403    -1.2003 N.pl3   
  18 N18            7.8949    -3.2010    -0.2298 N.2     
  19 C19            9.0204    -3.4996    -0.8272 C.2     
  20 C20            8.7662    -3.6387    -2.1961 C.2     
  21 C21            7.4466    -3.4187    -2.3992 C.2     
  22 C22            3.0512     2.8850    -0.5908 C.2     
  23 N23            2.3875     4.0531    -0.5471 N.am    
  24 C24            0.9568     3.7766    -0.3751 C.3     
  25 O25            4.2542     2.7741    -0.7250 O.2     
  26 C26            2.9928     5.3830    -0.6539 C.3     
  27 C27            3.7201     5.5243    -2.0024 C.3     
  28 C28            5.2045     5.7896    -1.6769 C.3     
  29 C29            5.3928     5.2017    -0.2563 C.3     
  30 C30            4.0606     5.5672     0.4442 C.3     
  31 O31            3.1769     6.6218    -2.7389 O.3     
  32 H32           -1.2514     1.8381    -0.0722 H       
  33 H33            3.2900    -0.0404    -0.5367 H       
  34 H34           -2.1434    -0.3674    -0.3565 H       
  35 H35           -1.0725    -1.7732    -0.5694 H       
  36 H36           -0.5135    -1.7131     1.8457 H       
  37 H37           -1.5844    -0.3074     2.0586 H       
  38 H38           -2.2680    -1.8856     1.6001 H       
  39 H39            1.1158    -2.3519     0.7036 H       
  40 H40            0.8044    -2.4160    -1.0477 H       
  41 H41            5.7872    -2.6056     1.1456 H       
  42 H42            4.9811    -3.0257    -3.0320 H       
  43 H43            2.6086    -2.5183    -2.6226 H       
  44 H44            9.9802    -3.6179    -0.3464 H       
  45 H45            9.4940    -3.8827    -2.9558 H       
  46 H46            6.9341    -3.4522    -3.3493 H       
  47 H47            0.3945     4.1715    -1.2213 H       
  48 H48            0.5984     4.2209     0.5535 H       
  49 H49            2.2254     6.1515    -0.5612 H       
  50 H50            3.6228     4.6035    -2.5775 H       
  51 H51            5.8492     5.2766    -2.3905 H       
  52 H52            5.4097     6.8601    -1.6769 H       
  53 H53            5.5222     4.1203    -0.2998 H       
  54 H54            6.2364     5.6728     0.2481 H       
  55 H55            4.0810     6.6018     0.7866 H       
  56 H56            3.8704     4.8920     1.2784 H       
  57 H57            3.5943     6.7629    -3.5997 H       
@<TRIPOS>BOND
   1    1    2 ar
   2    1    6 ar
   3    1   32 1
   4    2    3 ar
   5    2    7 1
   6    3    4 ar
   7    3    9 1
   8    4    5 ar
   9    4   33 1
  10    5    6 ar
  11    5   22 1
  12    6   24 1
  13    7    8 1
  14    7   34 1
  15    7   35 1
  16    8   36 1
  17    8   37 1
  18    8   38 1
  19    9   10 1
  20    9   39 1
  21    9   40 1
  22   10   11 ar
  23   10   15 ar
  24   11   12 ar
  25   11   16 1
  26   12   13 ar
  27   12   41 1
  28   13   14 ar
  29   13   17 1
  30   14   15 ar
  31   14   42 1
  32   15   43 1
  33   17   18 1
  34   17   21 1
  35   18   19 2
  36   19   20 1
  37   19   44 1
  38   20   21 2
  39   20   45 1
  40   21   46 1
  41   22   23 am
  42   22   25 2
  43   23   24 1
  44   23   26 1
  45   24   47 1
  46   24   48 1
  47   26   27 1
  48   26   30 1
  49   26   49 1
  50   27   28 1
  51   27   31 1
  52   27   50 1
  53   28   29 1
  54   28   51 1
  55   28   52 1
  56   29   30 1
  57   29   53 1
  58   29   54 1
  59   30   55 1
  60   30   56 1
  61   31   57 1

#	End of record

