#	Name: ASD02039174
#	Creating user name:	WinNT
#	Creation time:	15. 06. 2019 20:17

#	Modifying user name:	WinNT
#	Modification time:	15. 06. 2019 20:17

#	Program:	/corina/corina34_cracker 3.40 0067  02.08.2006

@<TRIPOS>MOLECULE
ASD02039174
  43   46    0    0    0
SMALL
NO_CHARGES


@<TRIPOS>ATOM
   1 N1            -0.0265     1.3035    -0.1275 N.2     
   2 C2            -0.0023    -0.0010    -0.0586 C.2     
   3 N3             1.2944    -0.3776    -0.0644 N.2     
   4 C4             1.9838     0.7344    -0.1373 C.2     
   5 O5             1.1042     1.7400    -0.1732 O.3     
   6 C6             3.4854     0.8563    -0.1736 C.3     
   7 O7             3.9333     0.8233    -1.5302 O.3     
   8 C8             5.2728     0.9229    -1.7406 C.ar    
   9 N9            -1.1048    -0.8433     0.0081 N.pl3   
  10 C10           -2.3921    -0.3039     0.1285 C.ar    
  11 C11           -3.5045    -1.1321     0.0362 C.ar    
  12 C12           -4.7735    -0.5989     0.1556 C.ar    
  13 C13           -4.9370     0.7624     0.3675 C.ar    
  14 C14           -3.8272     1.5889     0.4597 C.ar    
  15 C15           -2.5573     1.0569     0.3458 C.ar    
  16 C16            6.1373     1.0500    -0.6556 C.ar    
  17 C17            7.4969     1.1521    -0.8497 C.ar    
  18 C18            8.0185     1.1283    -2.1390 C.ar    
  19 C19            7.1488     0.9995    -3.2381 C.ar    
  20 C20            5.7700     0.8918    -3.0278 C.ar    
  21 O21           -6.1863     1.2866     0.4845 O.3     
  22 N22            9.3779     1.2302    -2.3544 N.am    
  23 C23            9.8845     1.2084    -3.5995 C.2     
  24 C24            9.0554     1.0811    -4.7343 C.2     
  25 C25            7.7112     0.9767    -4.5897 C.2     
  26 O26           11.0903     1.3013    -3.7520 O.2     
  27 F27           -5.6201     3.0301     1.8888 F       
  28 C28           -6.2807     2.6959     0.7017 C.3     
  29 F29           -5.6874     3.3735    -0.3688 F       
  30 Cl30          -3.2996    -2.8353    -0.2296 Cl      
  31 H31            3.7847     1.7987     0.2850 H       
  32 H32            3.9307     0.0271     0.3763 H       
  33 H33           -0.9834    -1.8050    -0.0287 H       
  34 H34           -5.6383    -1.2418     0.0836 H       
  35 H35           -3.9556     2.6485     0.6247 H       
  36 H36           -1.6934     1.7011     0.4180 H       
  37 H37            5.7373     1.0691     0.3474 H       
  38 H38            8.1578     1.2510    -0.0013 H       
  39 H39            5.0982     0.7927    -3.8676 H       
  40 H40            9.9765     1.3193    -1.5963 H       
  41 H41            9.4930     1.0667    -5.7216 H       
  42 H42            7.0694     0.8786    -5.4527 H       
  43 H43           -7.3297     2.9824     0.7766 H       
@<TRIPOS>BOND
   1    1    2 2
   2    1    5 1
   3    2    3 1
   4    2    9 1
   5    3    4 2
   6    4    5 1
   7    4    6 1
   8    6    7 1
   9    6   31 1
  10    6   32 1
  11    7    8 1
  12    8   16 ar
  13    8   20 ar
  14    9   10 1
  15    9   33 1
  16   10   11 ar
  17   10   15 ar
  18   11   12 ar
  19   11   30 1
  20   12   13 ar
  21   12   34 1
  22   13   14 ar
  23   13   21 1
  24   14   15 ar
  25   14   35 1
  26   15   36 1
  27   16   17 ar
  28   16   37 1
  29   17   18 ar
  30   17   38 1
  31   18   19 ar
  32   18   22 1
  33   19   20 ar
  34   19   25 1
  35   20   39 1
  36   21   28 1
  37   22   23 am
  38   22   40 1
  39   23   24 1
  40   23   26 2
  41   24   25 2
  42   24   41 1
  43   25   42 1
  44   27   28 1
  45   28   29 1
  46   28   43 1

#	End of record

