#	Name: ASD00960003
#	Creating user name:	WinNT
#	Creation time:	15. 06. 2019 18:53

#	Modifying user name:	WinNT
#	Modification time:	15. 06. 2019 18:53

#	Program:	/corina/corina34_cracker 3.40 0067  02.08.2006

@<TRIPOS>MOLECULE
ASD00960003
  12   12    0    0    0
SMALL
NO_CHARGES


@<TRIPOS>ATOM
   1 C1            -0.0161     1.3371     0.0094 C.2     
   2 N2             0.0021    -0.0041     0.0020 N.2     
   3 C3             1.2397    -0.4176    -0.0120 C.2     
   4 N4             2.0558     0.6583    -0.0140 N.pl3   
   5 C5             1.2587     1.7711    -0.0004 C.2     
   6 C6             1.6846    -1.8574    -0.0236 C.3     
   7 H7            -0.8985     1.9598     0.0172 H       
   8 H8             3.0256     0.6451    -0.0227 H       
   9 H9             1.5887     2.7994     0.0014 H       
  10 H10            1.7823    -2.1993    -1.0539 H       
  11 H11            2.6469    -1.9444     0.4810 H       
  12 H12            0.9463    -2.4700     0.4940 H       
@<TRIPOS>BOND
   1    1    2 1
   2    1    5 2
   3    1    7 1
   4    2    3 2
   5    3    4 1
   6    3    6 1
   7    4    5 1
   8    4    8 1
   9    5    9 1
  10    6   10 1
  11    6   11 1
  12    6   12 1

#	End of record

