#	Name: ASD01917085
#	Creating user name:	WinNT
#	Creation time:	15. 06. 2019 20:08

#	Modifying user name:	WinNT
#	Modification time:	15. 06. 2019 20:08

#	Program:	/corina/corina34_cracker 3.40 0067  02.08.2006

@<TRIPOS>MOLECULE
ASD01917085
  44   46    0    0    0
SMALL
NO_CHARGES


@<TRIPOS>ATOM
   1 C1            -0.0184     1.5028     0.0103 C.3     
   2 C2             0.0021    -0.0041     0.0020 C.2     
   3 N3             0.5337    -0.7573    -0.9243 N.2     
   4 C4             0.3686    -2.0488    -0.6084 C.2     
   5 N5            -0.2770    -2.1240     0.5348 N.2     
   6 N6            -0.5186    -0.8042     0.9496 N.pl3   
   7 C7            -1.2098    -0.3819     2.1703 C.3     
   8 C8            -0.2095    -0.2306     3.2873 C.2     
   9 O9            -0.6186     0.1509     4.5074 O.3     
  10 O10            0.9607    -0.4528     3.0845 O.2     
  11 C11            0.8366    -3.2031    -1.4149 C.ar    
  12 C12            1.4170     2.0324    -0.0006 C.3     
  13 C13            0.6010    -4.5041    -0.9741 C.ar    
  14 C14            1.0372    -5.5749    -1.7257 C.ar    
  15 C15            1.7107    -5.3580    -2.9201 C.ar    
  16 C16            1.9469    -4.0631    -3.3617 C.ar    
  17 C17            1.5076    -2.9884    -2.6174 C.ar    
  18 O18            2.1401    -6.4149    -3.6581 O.3     
  19 C19            2.8263    -6.1196    -4.8763 C.3     
  20 C20            1.3963     3.5622     0.0079 C.3     
  21 C21            0.6563     4.0690    -1.2317 C.3     
  22 C22           -0.7791     3.5394    -1.2208 C.3     
  23 C23           -0.7584     2.0096    -1.2292 C.3     
  24 H24           -0.5286     1.8543     0.9071 H       
  25 H25           -1.7060     0.5727     1.9951 H       
  26 H26           -1.9515    -1.1317     2.4458 H       
  27 H27            0.0595     0.2342     5.1917 H       
  28 H28            1.9442     1.6713     0.8825 H       
  29 H29            1.9272     1.6808    -0.8974 H       
  30 H30            0.0776    -4.6735    -0.0447 H       
  31 H31            0.8549    -6.5833    -1.3847 H       
  32 H32            2.4712    -3.8973    -4.2912 H       
  33 H33            1.6913    -1.9813    -2.9615 H       
  34 H34            3.1138    -7.0499    -5.3661 H       
  35 H35            2.1698    -5.5503    -5.5343 H       
  36 H36            3.7188    -5.5332    -4.6576 H       
  37 H37            0.8861     3.9137     0.9047 H       
  38 H38            2.4189     3.9395     0.0001 H       
  39 H39            0.6415     5.1589    -1.2257 H       
  40 H40            1.1665     3.7175    -2.1285 H       
  41 H41           -1.2893     3.8910    -0.3240 H       
  42 H42           -1.3063     3.9005    -2.1039 H       
  43 H43           -0.2482     1.6581    -2.1260 H       
  44 H44           -1.7809     1.6323    -1.2215 H       
@<TRIPOS>BOND
   1    1    2 1
   2    1   12 1
   3    1   23 1
   4    1   24 1
   5    2    3 2
   6    2    6 1
   7    3    4 1
   8    4    5 2
   9    4   11 1
  10    5    6 1
  11    6    7 1
  12    7    8 1
  13    7   25 1
  14    7   26 1
  15    8    9 1
  16    8   10 2
  17    9   27 1
  18   11   13 ar
  19   11   17 ar
  20   12   20 1
  21   12   28 1
  22   12   29 1
  23   13   14 ar
  24   13   30 1
  25   14   15 ar
  26   14   31 1
  27   15   16 ar
  28   15   18 1
  29   16   17 ar
  30   16   32 1
  31   17   33 1
  32   18   19 1
  33   19   34 1
  34   19   35 1
  35   19   36 1
  36   20   21 1
  37   20   37 1
  38   20   38 1
  39   21   22 1
  40   21   39 1
  41   21   40 1
  42   22   23 1
  43   22   41 1
  44   22   42 1
  45   23   43 1
  46   23   44 1

#	End of record

