#	Name: ASD01901008
#	Creating user name:	WinNT
#	Creation time:	15. 06. 2019 19:53

#	Modifying user name:	WinNT
#	Modification time:	15. 06. 2019 19:53

#	Program:	/corina/corina34_cracker 3.40 0067  02.08.2006

@<TRIPOS>MOLECULE
ASD01901008
  29   30    0    0    0
SMALL
NO_CHARGES


@<TRIPOS>ATOM
   1 C1            -0.0159     1.3214     0.0093 C.ar    
   2 N2             0.0021    -0.0041     0.0020 N.ar    
   3 C3             1.1455    -0.6717    -0.0125 C.ar    
   4 C4             2.3379     0.0278    -0.0202 C.ar    
   5 C5             2.2894     1.4282    -0.0122 C.ar    
   6 N6             1.0996     2.0325     0.0025 N.ar    
   7 N7            -1.2340     1.9788     0.0186 N.pl3   
   8 C8             3.5308     2.2200    -0.0194 C.2     
   9 C9             3.4716     3.5621    -0.0116 C.2     
  10 C10            4.7139     4.3545    -0.0188 C.ar    
  11 C11            4.6563     5.7508    -0.0107 C.ar    
  12 C12            5.8233     6.4858    -0.0171 C.ar    
  13 C13            7.0491     5.8439    -0.0318 C.ar    
  14 C14            7.1141     4.4616    -0.0403 C.ar    
  15 C15            5.9557     3.7133    -0.0278 C.ar    
  16 C16            1.1469    -2.1787    -0.0201 C.3     
  17 H17            3.2841    -0.4927    -0.0317 H       
  18 H18           -2.0598     1.4699     0.0197 H       
  19 H19           -1.2618     2.9484     0.0240 H       
  20 H20            4.4890     1.7218    -0.0309 H       
  21 H21            2.5134     4.0603    -0.0001 H       
  22 H22            3.7002     6.2531     0.0000 H       
  23 H23            5.7803     7.5649    -0.0108 H       
  24 H24            7.9597     6.4247    -0.0370 H       
  25 H25            8.0744     3.9676    -0.0525 H       
  26 H26            6.0079     2.6346    -0.0296 H       
  27 H27            1.1372    -2.5369    -1.0496 H       
  28 H28            2.0422    -2.5437     0.4831 H       
  29 H29            0.2624    -2.5455     0.5005 H       
@<TRIPOS>BOND
   1    1    2 ar
   2    1    6 ar
   3    1    7 1
   4    2    3 ar
   5    3    4 ar
   6    3   16 1
   7    4    5 ar
   8    4   17 1
   9    5    6 ar
  10    5    8 1
  11    7   18 1
  12    7   19 1
  13    8    9 2
  14    8   20 1
  15    9   10 1
  16    9   21 1
  17   10   11 ar
  18   10   15 ar
  19   11   12 ar
  20   11   22 1
  21   12   13 ar
  22   12   23 1
  23   13   14 ar
  24   13   24 1
  25   14   15 ar
  26   14   25 1
  27   15   26 1
  28   16   27 1
  29   16   28 1
  30   16   29 1

#	End of record

