#	Name: ASD01411199
#	Creating user name:	WinNT
#	Creation time:	15. 06. 2019 19:19

#	Modifying user name:	WinNT
#	Modification time:	15. 06. 2019 19:19

#	Program:	/corina/corina34_cracker 3.40 0067  02.08.2006

@<TRIPOS>MOLECULE
ASD01411199
  73   75    0    0    0
SMALL
NO_CHARGES


@<TRIPOS>ATOM
   1 C1            -1.3362     1.1159    -0.0641 C.ar    
   2 C2            -1.1099    -0.2379    -0.0523 C.ar    
   3 C3             0.1858    -0.7499    -0.0323 C.ar    
   4 C4             1.2611     0.1278    -0.0181 C.ar    
   5 C5             1.0377     1.4910    -0.0278 C.ar    
   6 C6            -0.2558     1.9909    -0.0517 C.ar    
   7 P7            -2.4820    -1.4310    -0.0567 P.3     
   8 N8            -1.8377    -2.9005     0.3170 N.2     
   9 C9            -0.5507    -3.0650     0.2924 C.2     
  10 N10            0.3826    -2.1289    -0.0335 N.pl3   
  11 C11           -0.0474    -4.4031     0.6552 C.2     
  12 C12           -0.8203    -5.4665     1.0096 C.2     
  13 C13            0.1253    -6.6118     1.2901 C.3     
  14 N14            1.4763    -6.0862     1.0597 N.am    
  15 C15            1.3625    -4.7996     0.6848 C.2     
  16 C16            2.7280    -6.8333     1.2064 C.3     
  17 C17            2.9978    -7.6321    -0.0704 C.3     
  18 C18            4.3050    -8.4123     0.0829 C.3     
  19 C19            4.1905    -9.3711     1.2697 C.3     
  20 C20            4.5748    -9.2111    -1.1938 C.3     
  21 C21            5.4568    -7.4350     0.3260 C.3     
  22 O22           -3.4888    -1.0475     0.9581 O.2     
  23 O23           -3.1612    -1.4830    -1.5155 O.3     
  24 O24           -2.1617    -5.4927     1.0937 O.3     
  25 O25            2.2966    -4.0689     0.4127 O.2     
  26 C26           -3.7568    -0.3428    -2.1377 C.3     
  27 C27           -4.3045    -0.7388    -3.5104 C.3     
  28 C28           -0.0206    -7.0723     2.7418 C.3     
  29 C29           -1.5042    -7.1355     3.1102 C.3     
  30 C30            0.6042    -8.4597     2.9020 C.3     
  31 C31            0.6924    -6.0822     3.6650 C.3     
  32 O32           -0.4668     3.3342    -0.0634 O.3     
  33 C33            0.6901     4.1729    -0.0495 C.3     
  34 C34            0.2632     5.6180    -0.0654 C.2     
  35 O35           -0.9158     5.9019    -0.0865 O.2     
  36 N36            1.1915     6.5951    -0.0562 N.am    
  37 H37           -2.3459     1.4985    -0.0873 H       
  38 H38            2.2710    -0.2545     0.0009 H       
  39 H39            1.8758     2.1720    -0.0163 H       
  40 H40            1.2614    -2.4503    -0.2890 H       
  41 H41           -0.0763    -7.4401     0.6108 H       
  42 H42            3.5485    -6.1370     1.3796 H       
  43 H43            2.6464    -7.5164     2.0519 H       
  44 H44            2.1773    -8.3284    -0.2436 H       
  45 H45            3.0793    -6.9490    -0.9159 H       
  46 H46            3.3700   -10.0673     1.0965 H       
  47 H47            5.1218    -9.9269     1.3789 H       
  48 H48            3.9983    -8.8020     2.1793 H       
  49 H49            4.6564    -8.5280    -2.0394 H       
  50 H50            5.5061    -9.7669    -1.0847 H       
  51 H51            3.7543    -9.9074    -1.3671 H       
  52 H52            5.2645    -6.8659     1.2356 H       
  53 H53            6.3880    -7.9908     0.4352 H       
  54 H54            5.5383    -6.7519    -0.5195 H       
  55 H55           -2.6310    -4.6743     0.8812 H       
  56 H56           -4.5709     0.0274    -1.5147 H       
  57 H57           -3.0067     0.4390    -2.2576 H       
  58 H58           -4.7588     0.1309    -3.9850 H       
  59 H59           -3.4903    -1.1089    -4.1334 H       
  60 H60           -5.0545    -1.5206    -3.3905 H       
  61 H61           -2.0122    -7.8409     2.4525 H       
  62 H62           -1.6082    -7.4636     4.1444 H       
  63 H63           -1.9494    -6.1471     2.9960 H       
  64 H64            1.6524    -8.4226     2.6053 H       
  65 H65            0.5324    -8.7724     3.9437 H       
  66 H66            0.0730    -9.1724     2.2712 H       
  67 H67            0.2472    -5.0938     3.5509 H       
  68 H68            0.5884    -6.4102     4.6993 H       
  69 H69            1.7493    -6.0372     3.4026 H       
  70 H70            1.2711     3.9755     0.8513 H       
  71 H71            1.3004     3.9646    -0.9283 H       
  72 H72            2.1344     6.3681    -0.0393 H       
  73 H73            0.9167     7.5253    -0.0664 H       
@<TRIPOS>BOND
   1    1    2 ar
   2    1    6 ar
   3    1   37 1
   4    2    3 ar
   5    2    7 1
   6    3    4 ar
   7    3   10 1
   8    4    5 ar
   9    4   38 1
  10    5    6 ar
  11    5   39 1
  12    6   32 1
  13    7    8 1
  14    7   22 2
  15    7   23 1
  16    8    9 2
  17    9   10 1
  18    9   11 1
  19   10   40 1
  20   11   12 2
  21   11   15 1
  22   12   13 1
  23   12   24 1
  24   13   14 1
  25   13   28 1
  26   13   41 1
  27   14   15 am
  28   14   16 1
  29   15   25 2
  30   16   17 1
  31   16   42 1
  32   16   43 1
  33   17   18 1
  34   17   44 1
  35   17   45 1
  36   18   19 1
  37   18   20 1
  38   18   21 1
  39   19   46 1
  40   19   47 1
  41   19   48 1
  42   20   49 1
  43   20   50 1
  44   20   51 1
  45   21   52 1
  46   21   53 1
  47   21   54 1
  48   23   26 1
  49   24   55 1
  50   26   27 1
  51   26   56 1
  52   26   57 1
  53   27   58 1
  54   27   59 1
  55   27   60 1
  56   28   29 1
  57   28   30 1
  58   28   31 1
  59   29   61 1
  60   29   62 1
  61   29   63 1
  62   30   64 1
  63   30   65 1
  64   30   66 1
  65   31   67 1
  66   31   68 1
  67   31   69 1
  68   32   33 1
  69   33   34 1
  70   33   70 1
  71   33   71 1
  72   34   35 2
  73   34   36 am
  74   36   72 1
  75   36   73 1

#	End of record

