#	Name: ASD02500024
#	Creating user name:	WinNT
#	Creation time:	15. 06. 2019 20:22

#	Modifying user name:	WinNT
#	Modification time:	15. 06. 2019 20:22

#	Program:	/corina/corina34_cracker 3.40 0067  02.08.2006

@<TRIPOS>MOLECULE
ASD02500024
  60   62    0    0    0
SMALL
NO_CHARGES


@<TRIPOS>ATOM
   1 C1            -0.6284     0.3343    -1.4812 C.ar    
   2 C2             0.0316     0.0375    -0.2902 C.ar    
   3 C3            -0.5289     0.4210     0.9268 C.ar    
   4 C4            -1.7488     1.1006     0.9483 C.ar    
   5 C5            -2.4021     1.3934    -0.2384 C.ar    
   6 C6            -1.8451     1.0194    -1.4511 C.ar    
   7 C7            -0.0388    -0.0699    -2.7743 C.2     
   8 O8             1.0219    -0.6613    -2.7998 O.2     
   9 O9            -0.6776     0.2174    -3.9250 O.3     
  10 C10           -0.0398    -0.2100    -5.1575 C.3     
  11 C11            0.1663     0.1085     2.1926 C.2     
  12 O12            1.2271    -0.4830     2.1729 O.2     
  13 O13           -0.3763     0.4796     3.3684 O.3     
  14 C14            0.3620     0.1395     4.5716 C.3     
  15 O15           -3.5892     2.0545    -0.2131 O.3     
  16 C16           -3.5699     3.3901     0.0291 C.ar    
  17 C17           -2.3600     4.0401     0.2309 C.ar    
  18 C18           -2.3347     5.3957     0.4772 C.ar    
  19 C19           -3.5287     6.1203     0.5244 C.ar    
  20 C20           -4.7479     5.4672     0.3214 C.ar    
  21 C21           -4.7665     4.1083     0.0691 C.ar    
  22 C22           -3.5025     7.5710     0.7884 C.2     
  23 O23           -2.3266     8.1991     0.9844 O.3     
  24 O24           -4.5414     8.1999     0.8292 O.2     
  25 C25           -2.3767     9.6277     1.2390 C.3     
  26 N26           -5.9867     3.4497    -0.1354 N.am    
  27 C27           -7.1099     3.9163     0.4450 C.2     
  28 O28           -7.0839     4.9605     1.0676 O.2     
  29 N29           -8.2621     3.2257     0.3353 N.am    
  30 C30           -9.4495     3.7598     0.8481 C.ar    
  31 C31          -10.6539     3.5308     0.1962 C.ar    
  32 C32          -11.8243     4.0595     0.7049 C.ar    
  33 C33          -11.7973     4.8164     1.8616 C.ar    
  34 C34          -10.5992     5.0467     2.5130 C.ar    
  35 C35           -9.4266     4.5155     2.0132 C.ar    
  36 C36          -10.5743     5.8732     3.7729 C.3     
  37 F37          -11.8728     6.2923     4.0815 F       
  38 F38          -10.0703     5.1025     4.8262 F       
  39 F39           -9.7564     6.9918     3.5807 F       
  40 H40            0.9746    -0.4885    -0.3103 H       
  41 H41           -2.1838     1.3981     1.8910 H       
  42 H42           -2.3574     1.2494    -2.3737 H       
  43 H43           -0.6571     0.0832    -6.0066 H       
  44 H44            0.9402     0.2598    -5.2413 H       
  45 H45            0.0762    -1.2938    -5.1496 H       
  46 H46            1.3443     0.6108     4.5406 H       
  47 H47           -0.1841     0.4947     5.4455 H       
  48 H48            0.4798    -0.9425     4.6319 H       
  49 H49           -1.4361     3.4818     0.1952 H       
  50 H50           -1.3917     5.8983     0.6341 H       
  51 H51           -5.6728     6.0238     0.3572 H       
  52 H52           -1.3646    10.0076     1.3786 H       
  53 H53           -2.8402    10.1319     0.3911 H       
  54 H54           -2.9628     9.8161     2.1385 H       
  55 H55           -6.0227     2.6580    -0.6948 H       
  56 H56           -8.2682     2.3584    -0.0990 H       
  57 H57          -10.6755     2.9402    -0.7077 H       
  58 H58          -12.7614     3.8817     0.1983 H       
  59 H59          -12.7137     5.2290     2.2571 H       
  60 H60           -8.4914     4.6954     2.5225 H       
@<TRIPOS>BOND
   1    1    2 ar
   2    1    7 1
   3    1    6 ar
   4    2    3 ar
   5    2   40 1
   6    3    4 ar
   7    3   11 1
   8    4    5 ar
   9    4   41 1
  10    5    6 ar
  11    5   15 1
  12    6   42 1
  13    7    8 2
  14    7    9 1
  15    9   10 1
  16   10   43 1
  17   10   44 1
  18   10   45 1
  19   11   12 2
  20   11   13 1
  21   13   14 1
  22   14   46 1
  23   14   47 1
  24   14   48 1
  25   15   16 1
  26   16   17 ar
  27   16   21 ar
  28   17   18 ar
  29   17   49 1
  30   18   19 ar
  31   18   50 1
  32   19   20 ar
  33   19   22 1
  34   20   21 ar
  35   20   51 1
  36   21   26 1
  37   22   23 1
  38   22   24 2
  39   23   25 1
  40   25   52 1
  41   25   53 1
  42   25   54 1
  43   26   27 am
  44   26   55 1
  45   27   28 2
  46   27   29 am
  47   29   30 1
  48   29   56 1
  49   30   31 ar
  50   30   35 ar
  51   31   32 ar
  52   31   57 1
  53   32   33 ar
  54   32   58 1
  55   33   34 ar
  56   33   59 1
  57   34   35 ar
  58   34   36 1
  59   35   60 1
  60   36   37 1
  61   36   38 1
  62   36   39 1

#	End of record

