#	Name: ASD01028570
#	Creating user name:	WinNT
#	Creation time:	15. 06. 2019 18:57

#	Modifying user name:	WinNT
#	Modification time:	15. 06. 2019 18:57

#	Program:	/corina/corina34_cracker 3.40 0067  02.08.2006

@<TRIPOS>MOLECULE
ASD01028570
  49   53    0    0    0
SMALL
NO_CHARGES


@<TRIPOS>ATOM
   1 N1            -0.0169     1.3921     0.0097 N.2     
   2 N2             0.0021    -0.0041     0.0020 N.pl3   
   3 C3             1.1072     2.0742     0.0026 C.2     
   4 C4             2.3533     1.4122    -0.0128 C.2     
   5 C5             2.4034     0.0542    -0.0206 C.2     
   6 C6             1.2001    -0.6769    -0.0130 C.2     
   7 N7             0.9139    -1.9687    -0.0172 N.2     
   8 N8            -0.3645    -2.1206    -0.0058 N.2     
   9 C9            -0.9587    -0.9533     0.0061 C.2     
  10 C10           -2.4463    -0.7128     0.0218 C.3     
  11 N11           -2.9151    -0.6427     1.4080 N.pl3   
  12 C12           -4.2591    -0.4265     1.6757 C.ar    
  13 C13           -5.1755    -0.2740     0.6485 C.ar    
  14 C14           -6.5147    -0.0586     0.9455 C.ar    
  15 N15           -6.9455     0.0064     2.1840 N.ar    
  16 C16           -6.1158    -0.1321     3.2234 C.ar    
  17 C17           -4.7364    -0.3607     3.0081 C.ar    
  18 C18           -6.5919    -0.0605     4.5458 C.ar    
  19 C19           -5.6916    -0.2107     5.5676 C.ar    
  20 C20           -4.3404    -0.4284     5.2787 C.ar    
  21 N21           -3.9076    -0.5003     4.0438 N.ar    
  22 O22           -6.1102    -0.1479     6.8585 O.3     
  23 C23            1.0649     3.5571     0.0105 C.2     
  24 C24           -5.1161    -0.3132     7.8717 C.3     
  25 C25           -5.7715    -0.2124     9.2505 C.3     
  26 F26           -6.3748     1.0422     9.3895 F       
  27 F27           -6.7407    -1.2128     9.3805 F       
  28 F28           -4.7983    -0.3742    10.2424 F       
  29 C29            2.1771     4.4222     0.0040 C.2     
  30 N30            1.7347     5.6514     0.0145 N.2     
  31 N31            0.3351     5.6208     0.0280 N.pl3   
  32 C32           -0.0587     4.3324     0.0194 C.2     
  33 C33           -0.5491     6.7888     0.0430 C.3     
  34 H34            3.2685     1.9856    -0.0188 H       
  35 H35            3.3542    -0.4578    -0.0321 H       
  36 H36           -2.6679     0.2267    -0.4846 H       
  37 H37           -2.9520    -1.5304    -0.4918 H       
  38 H38           -2.2857    -0.7475     2.1387 H       
  39 H39           -4.8496    -0.3222    -0.3800 H       
  40 H40           -7.2204     0.0588     0.1364 H       
  41 H41           -7.6389     0.1086     4.7498 H       
  42 H42           -3.6389    -0.5454     6.0915 H       
  43 H43           -4.6461    -1.2907     7.7635 H       
  44 H44           -4.3610     0.4662     7.7704 H       
  45 H45            3.2144     4.1215    -0.0071 H       
  46 H46           -1.0786     3.9772     0.0261 H       
  47 H47           -0.7788     7.0837    -0.9809 H       
  48 H48           -1.4727     6.5386     0.5649 H       
  49 H49           -0.0536     7.6130     0.5561 H       
@<TRIPOS>BOND
   1    1    2 1
   2    1    3 2
   3    2    6 1
   4    2    9 1
   5    3    4 1
   6    3   23 1
   7    4    5 2
   8    4   34 1
   9    5    6 1
  10    5   35 1
  11    6    7 2
  12    7    8 1
  13    8    9 2
  14    9   10 1
  15   10   11 1
  16   10   36 1
  17   10   37 1
  18   11   12 1
  19   11   38 1
  20   12   13 ar
  21   12   17 ar
  22   13   14 ar
  23   13   39 1
  24   14   15 ar
  25   14   40 1
  26   15   16 ar
  27   16   17 ar
  28   16   18 ar
  29   17   21 ar
  30   18   19 ar
  31   18   41 1
  32   19   20 ar
  33   19   22 1
  34   20   21 ar
  35   20   42 1
  36   22   24 1
  37   23   29 1
  38   23   32 2
  39   24   25 1
  40   24   43 1
  41   24   44 1
  42   25   27 1
  43   25   28 1
  44   25   26 1
  45   29   30 2
  46   29   45 1
  47   30   31 1
  48   31   32 1
  49   31   33 1
  50   32   46 1
  51   33   47 1
  52   33   48 1
  53   33   49 1

#	End of record

