#	Name: ASD01470044
#	Creating user name:	WinNT
#	Creation time:	15. 06. 2019 19:21

#	Modifying user name:	WinNT
#	Modification time:	15. 06. 2019 19:21

#	Program:	/corina/corina34_cracker 3.40 0067  02.08.2006

@<TRIPOS>MOLECULE
ASD01470044
  86   92    0    0    0
SMALL
NO_CHARGES


@<TRIPOS>ATOM
   1 N1            -1.6887     1.4403     0.5791 N.am    
   2 C2            -0.3561     1.0011     0.1743 C.3     
   3 C3             0.1963    -0.0388     1.1593 C.3     
   4 C4            -0.2649    -1.4468     0.8161 C.3     
   5 C5            -1.6383    -1.4402     0.1653 C.3     
   6 N6            -2.6032    -0.7155     0.9932 N.am    
   7 C7            -2.6422     0.6284     1.0068 C.2     
   8 O8            -3.6519     1.1455     1.4444 O.2     
   9 C9            -3.5422    -1.4684     1.8284 C.3     
  10 C10           -1.9875     2.8730     0.5129 C.3     
  11 C11           -1.7172     3.5050     1.8540 C.ar    
  12 C12           -2.9759    -1.6112     3.2176 C.ar    
  13 C13           -3.1190    -0.5921     4.1139 C.ar    
  14 C14           -2.5931    -0.7260     5.4038 C.ar    
  15 C15           -1.9219    -1.9107     5.7630 C.ar    
  16 C16           -1.7917    -2.9338     4.8269 C.ar    
  17 C17           -2.3178    -2.7816     3.5756 C.ar    
  18 C18           -0.4348     3.9100     2.1802 C.ar    
  19 C19           -0.1765     4.4919     3.4094 C.ar    
  20 C20           -1.1968     4.6719     4.3189 C.ar    
  21 C21           -2.4957     4.2652     3.9968 C.ar    
  22 C22           -2.7496     3.6833     2.7508 C.ar    
  23 C23           -2.5629     0.1355     6.5813 C.2     
  24 N24           -1.9312    -0.5024     7.5249 N.2     
  25 N25           -1.5224    -1.7585     7.0650 N.pl3   
  26 C26           -0.4322     0.3816    -1.2226 C.3     
  27 O27            1.6243     0.0030     1.1262 O.3     
  28 C28            0.4202     1.1812    -2.1739 C.ar    
  29 C29            1.7224     0.7932    -2.4282 C.ar    
  30 C30            2.5043     1.5267    -3.3008 C.ar    
  31 C31            1.9839     2.6480    -3.9195 C.ar    
  32 C32            0.6814     3.0355    -3.6659 C.ar    
  33 C33           -0.1019     2.2995    -2.7966 C.ar    
  34 C34           -2.1154    -2.8822    -0.0190 C.3     
  35 O35           -0.3191    -2.2253     2.0131 O.3     
  36 C36           -1.2001    -3.5952    -0.9807 C.ar    
  37 C37           -0.0590    -4.2205    -0.5142 C.ar    
  38 C38            0.7807    -4.8744    -1.3964 C.ar    
  39 C39            0.4789    -4.9034    -2.7451 C.ar    
  40 C40           -0.6627    -4.2788    -3.2115 C.ar    
  41 C41           -1.5046    -3.6286    -2.3287 C.ar    
  42 C42           -3.5905     4.4532     4.9622 C.2     
  43 C43           -3.3386     5.1887     6.2532 C.3     
  44 O44           -4.6951     4.0164     4.7188 O.2     
  45 N45           -4.5430     5.1402     7.0858 N.pl3   
  46 N46           -4.8004     4.2188     7.9452 N.2     
  47 C47           -5.9559     4.4820     8.5123 C.2     
  48 C48           -6.4089     5.6661     7.9261 C.2     
  49 N49           -5.4843     6.0160     7.0608 N.2     
  50 H50            0.3129     1.8613     0.1477 H       
  51 H51           -0.1438     0.2100     2.1646 H       
  52 H52            0.4518    -1.8992     0.1307 H       
  53 H53           -1.5708    -0.9600    -0.8109 H       
  54 H54           -4.4926    -0.9368     1.8764 H       
  55 H55           -3.7002    -2.4568     1.3971 H       
  56 H56           -1.3569     3.3411    -0.2430 H       
  57 H57           -3.0358     3.0138     0.2496 H       
  58 H58           -3.6351     0.3129     3.8292 H       
  59 H59           -1.2786    -3.8468     5.0909 H       
  60 H60           -2.2147    -3.5778     2.8532 H       
  61 H61            0.3688     3.7711     1.4722 H       
  62 H62            0.8270     4.8054     3.6566 H       
  63 H63           -0.9935     5.1254     5.2778 H       
  64 H64           -3.7499     3.3668     2.4948 H       
  65 H65           -2.9883     1.1253     6.6567 H       
  66 H66           -1.0347    -2.4166     7.5845 H       
  67 H67           -0.0690    -0.6454    -1.1848 H       
  68 H68           -1.4662     0.3888    -1.5674 H       
  69 H69            2.0502    -0.6271     1.7234 H       
  70 H70            2.1290    -0.0828    -1.9448 H       
  71 H71            3.5219     1.2240    -3.4989 H       
  72 H72            2.5950     3.2215    -4.6007 H       
  73 H73            0.2750     3.9118    -4.1490 H       
  74 H74           -1.1195     2.6023    -2.5985 H       
  75 H75           -2.1024    -3.3950     0.9428 H       
  76 H76           -3.1304    -2.8811    -0.4164 H       
  77 H77            0.5293    -2.3027     2.4707 H       
  78 H78            0.1768    -4.1979     0.5395 H       
  79 H79            1.6726    -5.3624    -1.0320 H       
  80 H80            1.1353    -5.4137    -3.4344 H       
  81 H81           -0.8982    -4.3012    -4.2653 H       
  82 H82           -2.3965    -3.1407    -2.6931 H       
  83 H83           -2.5108     4.7183     6.7838 H       
  84 H84           -3.0882     6.2273     6.0368 H       
  85 H85           -6.4536     3.9016     9.2751 H       
  86 H86           -7.3286     6.1891     8.1428 H       
@<TRIPOS>BOND
   1    1    2 1
   2    1   10 1
   3    1    7 am
   4    2    3 1
   5    2   26 1
   6    2   50 1
   7    3    4 1
   8    3   27 1
   9    3   51 1
  10    4    5 1
  11    4   35 1
  12    4   52 1
  13    5    6 1
  14    5   34 1
  15    5   53 1
  16    6    7 am
  17    6    9 1
  18    7    8 2
  19    9   12 1
  20    9   54 1
  21    9   55 1
  22   10   11 1
  23   10   56 1
  24   10   57 1
  25   11   18 ar
  26   11   22 ar
  27   12   13 ar
  28   12   17 ar
  29   13   14 ar
  30   13   58 1
  31   14   15 ar
  32   14   23 1
  33   15   16 ar
  34   15   25 1
  35   16   17 ar
  36   16   59 1
  37   17   60 1
  38   18   19 ar
  39   18   61 1
  40   19   20 ar
  41   19   62 1
  42   20   21 ar
  43   20   63 1
  44   21   22 ar
  45   21   42 1
  46   22   64 1
  47   23   24 2
  48   23   65 1
  49   24   25 1
  50   25   66 1
  51   26   28 1
  52   26   67 1
  53   26   68 1
  54   27   69 1
  55   28   29 ar
  56   28   33 ar
  57   29   30 ar
  58   29   70 1
  59   30   31 ar
  60   30   71 1
  61   31   32 ar
  62   31   72 1
  63   32   33 ar
  64   32   73 1
  65   33   74 1
  66   34   36 1
  67   34   75 1
  68   34   76 1
  69   35   77 1
  70   36   37 ar
  71   36   41 ar
  72   37   38 ar
  73   37   78 1
  74   38   39 ar
  75   38   79 1
  76   39   40 ar
  77   39   80 1
  78   40   41 ar
  79   40   81 1
  80   41   82 1
  81   42   43 1
  82   42   44 2
  83   43   45 1
  84   43   83 1
  85   43   84 1
  86   45   46 1
  87   45   49 1
  88   46   47 2
  89   47   48 1
  90   47   85 1
  91   48   49 2
  92   48   86 1

#	End of record

