#	Name: ASD01850014
#	Creating user name:	WinNT
#	Creation time:	15. 06. 2019 19:38

#	Modifying user name:	WinNT
#	Modification time:	15. 06. 2019 19:38

#	Program:	/corina/corina34_cracker 3.40 0067  02.08.2006

@<TRIPOS>MOLECULE
ASD01850014
  48   52    0    0    0
SMALL
NO_CHARGES


@<TRIPOS>ATOM
   1 Cl1            0.2443     0.3977     1.1321 Cl      
   2 C2             0.1054     2.0981     0.8110 C.ar    
   3 C3             1.2385     2.8914     0.7804 C.ar    
   4 C4             1.1272     4.2451     0.5247 C.ar    
   5 C5            -0.1159     4.8066     0.2999 C.ar    
   6 C6            -1.2485     4.0145     0.3307 C.ar    
   7 C7            -1.1379     2.6594     0.5798 C.ar    
   8 C8            -0.2365     6.2827     0.0217 C.3     
   9 N9             0.9562     6.7838    -0.6716 N.am    
  10 C10            1.8709     7.2834     0.3773 C.3     
  11 C11            1.1082     7.1023     1.7121 C.3     
  12 N12           -0.3012     7.0581     1.2852 N.am    
  13 C13           -1.5733     7.4064     1.4807 C.2     
  14 O14           -2.0453     7.7718     2.5395 O.2     
  15 C15           -2.3217     7.2799     0.2114 C.ar    
  16 C16           -1.5074     6.5860    -0.7193 C.ar    
  17 C17           -1.9644     6.3496    -1.9952 C.ar    
  18 C18           -3.2261     6.7789    -2.3703 C.ar    
  19 C19           -4.0323     7.4468    -1.4652 C.ar    
  20 C20           -3.5969     7.6930    -0.1740 C.ar    
  21 C21            1.1748     6.7873    -2.0015 C.2     
  22 O22            0.3801     6.2520    -2.7494 O.2     
  23 C23            2.3812     7.4421    -2.5506 C.ar    
  24 C24            3.3788     7.9064    -1.6922 C.ar    
  25 C25            4.5024     8.5162    -2.2112 C.ar    
  26 C26            4.6411     8.6683    -3.5792 C.ar    
  27 C27            3.6557     8.2101    -4.4359 C.ar    
  28 C28            2.5301     7.5935    -3.9303 C.ar    
  29 C29            3.8152     8.3800    -5.9248 C.3     
  30 F30            5.0288     9.0220    -6.1934 F       
  31 F31            3.8056     7.1241    -6.5411 F       
  32 F32            2.7594     9.1515    -6.4219 F       
  33 H33            2.2096     2.4531     0.9568 H       
  34 H34            2.0117     4.8645     0.5009 H       
  35 H35           -2.2194     4.4537     0.1554 H       
  36 H36           -2.0227     2.0407     0.6038 H       
  37 H37            2.7903     6.6979     0.3860 H       
  38 H38            2.0955     8.3370     0.2112 H       
  39 H39            1.3940     6.1683     2.1958 H       
  40 H40            1.2838     7.9500     2.3745 H       
  41 H41           -1.3384     5.8290    -2.7048 H       
  42 H42           -3.5822     6.5922    -3.3727 H       
  43 H43           -5.0173     7.7750    -1.7625 H       
  44 H44           -4.2362     8.2152     0.5224 H       
  45 H45            3.2713     7.7890    -0.6240 H       
  46 H46            5.2751     8.8760    -1.5480 H       
  47 H47            5.5222     9.1469    -3.9803 H       
  48 H48            1.7619     7.2361    -4.6000 H       
@<TRIPOS>BOND
   1    1    2 1
   2    2    3 ar
   3    2    7 ar
   4    3    4 ar
   5    3   33 1
   6    4    5 ar
   7    4   34 1
   8    5    6 ar
   9    5    8 1
  10    6    7 ar
  11    6   35 1
  12    7   36 1
  13    8    9 1
  14    8   12 1
  15    8   16 1
  16    9   10 1
  17    9   21 am
  18   10   11 1
  19   10   37 1
  20   10   38 1
  21   11   12 1
  22   11   39 1
  23   11   40 1
  24   12   13 am
  25   13   14 2
  26   13   15 1
  27   15   16 ar
  28   15   20 ar
  29   16   17 ar
  30   17   18 ar
  31   17   41 1
  32   18   19 ar
  33   18   42 1
  34   19   20 ar
  35   19   43 1
  36   20   44 1
  37   21   22 2
  38   21   23 1
  39   23   24 ar
  40   23   28 ar
  41   24   25 ar
  42   24   45 1
  43   25   26 ar
  44   25   46 1
  45   26   27 ar
  46   26   47 1
  47   27   28 ar
  48   27   29 1
  49   28   48 1
  50   29   30 1
  51   29   31 1
  52   29   32 1

#	End of record

