#	Name: ASD00060053
#	Creating user name:	WinNT
#	Creation time:	15. 06. 2019 18:29

#	Modifying user name:	WinNT
#	Modification time:	15. 06. 2019 18:29

#	Program:	/corina/corina34_cracker 3.40 0067  02.08.2006

@<TRIPOS>MOLECULE
ASD00060053
  36   39    0    0    0
SMALL
NO_CHARGES


@<TRIPOS>ATOM
   1 C1            -0.0165     1.3678     0.0096 C.ar    
   2 C2             0.0021    -0.0041     0.0020 C.ar    
   3 C3             1.2065    -0.6940    -0.0128 C.ar    
   4 C4             2.3970     0.0002    -0.0205 C.ar    
   5 C5             1.1899     2.0994     0.0020 C.ar    
   6 N6             1.3656     3.4364     0.0071 N.2     
   7 C7             2.3958     1.3928    -0.0134 C.ar    
   8 S8             3.7212     2.5538    -0.0188 S.3     
   9 C9             2.5736     3.8854    -0.0024 C.2     
  10 N10            2.9175     5.2221     0.0012 N.pl3   
  11 S11            4.5126     5.6667    -0.0121 S.o2    
  12 C12            5.2204     5.0936     1.2466 C.2     
  13 C13            5.1956     5.1069    -1.2902 C.2     
  14 C14            4.6324     7.4246    -0.0040 C.2     
  15 S15            4.6779     8.4182    -1.4475 S.3     
  16 C16            4.6936     8.1600     1.0883 C.2     
  17 C17            4.7933     9.8995    -0.5060 C.ar    
  18 C18            4.8779    11.2338    -0.9165 C.ar    
  19 C19            4.7888     9.5923     0.8572 C.ar    
  20 C20            4.8694    10.6463     1.7929 C.ar    
  21 C21            4.9523    11.9378     1.3717 C.ar    
  22 C22            4.9608    12.2399     0.0165 C.ar    
  23 Cl23           1.2131    -2.4299    -0.0210 Cl      
  24 H24           -0.9611     1.8913     0.0169 H       
  25 H25           -0.9286    -0.5520     0.0080 H       
  26 H26            3.3337    -0.5374    -0.0316 H       
  27 H27            2.2248     5.9010     0.0116 H       
  28 H28            6.0532     4.4150     1.1358 H       
  29 H29            4.8797     5.3739     2.2323 H       
  30 H30            4.8356     5.3974    -2.2661 H       
  31 H31            6.0304     4.4272    -1.2028 H       
  32 H32            4.6741     7.7313     2.0793 H       
  33 H33            4.8784    11.4743    -1.9694 H       
  34 H34            4.8647    10.4263     2.8502 H       
  35 H35            5.0130    12.7347     2.0981 H       
  36 H36            5.0263    13.2687    -0.3055 H       
@<TRIPOS>BOND
   1    1    2 ar
   2    1    5 ar
   3    1   24 1
   4    2    3 ar
   5    2   25 1
   6    3    4 ar
   7    3   23 1
   8    4    7 ar
   9    4   26 1
  10    5    7 ar
  11    5    6 1
  12    6    9 2
  13    7    8 1
  14    8    9 1
  15    9   10 1
  16   10   11 1
  17   10   27 1
  18   11   12 2
  19   11   13 2
  20   11   14 1
  21   12   28 1
  22   12   29 1
  23   13   30 1
  24   13   31 1
  25   14   16 2
  26   14   15 1
  27   15   17 1
  28   16   19 1
  29   16   32 1
  30   17   19 ar
  31   17   18 ar
  32   18   22 ar
  33   18   33 1
  34   19   20 ar
  35   20   21 ar
  36   20   34 1
  37   21   22 ar
  38   21   35 1
  39   22   36 1

#	End of record

