#	Name: ASD08178046
#	Creating user name:	WinNT
#	Creation time:	15. 06. 2019 21:18

#	Modifying user name:	WinNT
#	Modification time:	15. 06. 2019 21:18

#	Program:	/corina/corina34_cracker 3.40 0067  02.08.2006

@<TRIPOS>MOLECULE
ASD08178046
  92   93    0    0    0
SMALL
NO_CHARGES


@<TRIPOS>ATOM
   1 N1             3.5567    -0.4323    -0.5853 N.2     
   2 C2             3.4388    -1.7258    -0.5919 C.2     
   3 N3             2.2867    -2.4331    -0.9183 N.am    
   4 N4             4.6773     0.0525    -0.2641 N.2     
   5 C5             5.6119    -0.7942     0.0311 C.2     
   6 S6             4.9380    -2.4161    -0.1330 S.3     
   7 C7             7.0220    -0.4548     0.4404 C.3     
   8 C8             7.0905    -0.3097     1.9619 C.3     
   9 C9             8.5221     0.0349     2.3775 C.3     
  10 C10            8.5906     0.1801     3.8990 C.3     
  11 C11           10.0006     0.5195     4.3083 C.2     
  12 N12           10.4954     1.7104     4.4289 N.2     
  13 N13           11.7042     1.7864     4.7851 N.2     
  14 C14           12.3413     0.6747     4.9979 C.2     
  15 S15           11.2716    -0.6336     4.7165 S.3     
  16 N16           13.6702     0.5647     5.3929 N.am    
  17 C17           14.4095     1.6747     5.5874 C.2     
  18 O18           13.9413     2.7660     5.3410 O.2     
  19 C19           15.8180     1.5597     6.1109 C.3     
  20 C20            1.1651    -1.7712    -1.2651 C.2     
  21 O21            1.1360    -0.5597    -1.2153 O.2     
  22 C22           -0.0529    -2.5363    -1.7147 C.3     
  23 C23           15.7819     1.2810     7.6149 C.3     
  24 C24           14.9170     2.3355     8.3084 C.3     
  25 C25           16.5664     2.8689     5.8527 C.3     
  26 C26           -1.2808    -1.6262    -1.6465 C.3     
  27 C27            0.5339    -1.8267    -4.0373 C.3     
  28 C28            0.1480    -3.0149    -3.1539 C.3     
  29 C29            1.2627    -4.0622    -3.1923 C.3     
  30 C30           -2.5228    -2.4374    -1.9121 C.2     
  31 O31           -3.7306    -1.8551    -1.8508 O.3     
  32 O32           -2.4312    -3.6120    -2.1802 O.2     
  33 C33           -4.8828    -2.6974    -2.1181 C.3     
  34 C34           -4.9255    -3.8406    -1.1022 C.3     
  35 C35           -6.1611    -1.8646    -2.0027 C.3     
  36 C36           -4.7758    -3.2745    -3.5311 C.3     
  37 C37           15.1892    -0.1077     7.8621 C.3     
  38 C38           18.0220     2.6925     6.2009 C.2     
  39 O39           18.4110     1.6440     6.6583 O.2     
  40 O40           18.8864     3.7002     6.0028 O.3     
  41 C41           20.2728     3.4594     6.3609 C.3     
  42 C42           20.8146     2.2860     5.5421 C.3     
  43 C43           21.1005     4.7121     6.0665 C.3     
  44 C44           20.3641     3.1264     7.8514 C.3     
  45 H45            2.2904    -3.4029    -0.8963 H       
  46 H46            7.6947    -1.2507     0.1207 H       
  47 H47            7.3204     0.4832    -0.0279 H       
  48 H48            6.4178     0.4862     2.2817 H       
  49 H49            6.7920    -1.2476     2.4302 H       
  50 H50            9.1948    -0.7609     2.0577 H       
  51 H51            8.8205     0.9729     1.9092 H       
  52 H52            7.9179     0.9759     4.2187 H       
  53 H53            8.2921    -0.7579     4.3673 H       
  54 H54           14.0650    -0.3109     5.5285 H       
  55 H55           16.3292     0.7425     5.6021 H       
  56 H56           -0.2021    -3.3973    -1.0630 H       
  57 H57           16.7946     1.3205     8.0161 H       
  58 H58           13.9294     2.3557     7.8476 H       
  59 H59           14.8199     2.0878     9.3654 H       
  60 H60           15.3857     3.3142     8.2062 H       
  61 H61           16.4746     3.1385     4.8005 H       
  62 H62           16.1387     3.6597     6.4690 H       
  63 H63           -1.3454    -1.1768    -0.6556 H       
  64 H64           -1.1928    -0.8404    -2.3968 H       
  65 H65            0.5963    -2.1513    -5.0760 H       
  66 H66           -0.2207    -1.0455    -3.9454 H       
  67 H67            1.5010    -1.4369    -3.7198 H       
  68 H68           -0.7780    -3.4562    -3.5227 H       
  69 H69            2.1871    -3.6228    -2.8173 H       
  70 H70            0.9848    -4.9116    -2.5683 H       
  71 H71            1.4104    -4.3982    -4.2186 H       
  72 H72           -5.0017    -3.4295    -0.0956 H       
  73 H73           -5.7904    -4.4729    -1.3028 H       
  74 H74           -4.0148    -4.4339    -1.1844 H       
  75 H75           -6.1306    -1.0501    -2.7265 H       
  76 H76           -7.0260    -2.4968    -2.2034 H       
  77 H77           -6.2372    -1.4534    -0.9961 H       
  78 H78           -3.8652    -3.8678    -3.6132 H       
  79 H79           -5.6408    -3.9067    -3.7317 H       
  80 H80           -4.7454    -2.4600    -4.2548 H       
  81 H81           15.8087    -0.8595     7.3731 H       
  82 H82           15.1578    -0.3038     8.9338 H       
  83 H83           14.1787    -0.1492     7.4554 H       
  84 H84           20.7496     2.5232     4.4802 H       
  85 H85           21.8554     2.1053     5.8109 H       
  86 H86           20.2250     1.3936     5.7518 H       
  87 H87           20.7145     5.5480     6.6499 H       
  88 H88           22.1412     4.5313     6.3354 H       
  89 H89           21.0354     4.9493     5.0047 H       
  90 H90           19.7744     2.2340     8.0612 H       
  91 H91           21.4048     2.9457     8.1203 H       
  92 H92           19.9781     3.9624     8.4348 H       
@<TRIPOS>BOND
   1    1    2 2
   2    1    4 1
   3    2    3 1
   4    2    6 1
   5    3   20 am
   6    3   45 1
   7    4    5 2
   8    5    6 1
   9    5    7 1
  10    7    8 1
  11    7   46 1
  12    7   47 1
  13    8    9 1
  14    8   48 1
  15    8   49 1
  16    9   10 1
  17    9   50 1
  18    9   51 1
  19   10   11 1
  20   10   52 1
  21   10   53 1
  22   11   12 2
  23   11   15 1
  24   12   13 1
  25   13   14 2
  26   14   15 1
  27   14   16 1
  28   16   17 am
  29   16   54 1
  30   17   18 2
  31   17   19 1
  32   19   23 1
  33   19   25 1
  34   19   55 1
  35   20   21 2
  36   20   22 1
  37   22   26 1
  38   22   28 1
  39   22   56 1
  40   23   24 1
  41   23   37 1
  42   23   57 1
  43   24   58 1
  44   24   59 1
  45   24   60 1
  46   25   38 1
  47   25   61 1
  48   25   62 1
  49   26   30 1
  50   26   63 1
  51   26   64 1
  52   27   28 1
  53   27   65 1
  54   27   66 1
  55   27   67 1
  56   28   29 1
  57   28   68 1
  58   29   69 1
  59   29   70 1
  60   29   71 1
  61   30   31 1
  62   30   32 2
  63   31   33 1
  64   33   34 1
  65   33   35 1
  66   33   36 1
  67   34   72 1
  68   34   73 1
  69   34   74 1
  70   35   75 1
  71   35   76 1
  72   35   77 1
  73   36   78 1
  74   36   79 1
  75   36   80 1
  76   37   81 1
  77   37   82 1
  78   37   83 1
  79   38   39 2
  80   38   40 1
  81   40   41 1
  82   41   42 1
  83   41   43 1
  84   41   44 1
  85   42   84 1
  86   42   85 1
  87   42   86 1
  88   43   87 1
  89   43   88 1
  90   43   89 1
  91   44   90 1
  92   44   91 1
  93   44   92 1

#	End of record

