#	Name: ASD01812833
#	Creating user name:	WinNT
#	Creation time:	15. 06. 2019 19:29

#	Modifying user name:	WinNT
#	Modification time:	15. 06. 2019 19:29

#	Program:	/corina/corina34_cracker 3.40 0067  02.08.2006

@<TRIPOS>MOLECULE
ASD01812833
  57   61    0    0    0
SMALL
NO_CHARGES


@<TRIPOS>ATOM
   1 N1            -0.0158     1.3146     0.0093 N.ar    
   2 C2             0.0021    -0.0041     0.0020 C.ar    
   3 C3             1.1989    -0.7035    -0.0127 C.ar    
   4 C4             2.3830    -0.0017    -0.0203 C.ar    
   5 C5             2.3453     1.3974    -0.0128 C.ar    
   6 C6             1.0958     2.0332     0.0025 C.ar    
   7 C7             3.8374    -0.3896    -0.0363 C.3     
   8 N8             4.5958     0.8677    -0.0373 N.am    
   9 C9             3.7284     1.8955    -0.0237 C.2     
  10 C10            6.0561     0.9834    -0.0509 C.3     
  11 C11            6.5431     1.0303    -1.4762 C.ar    
  12 C12            6.6711     2.2472    -2.1211 C.ar    
  13 C13            7.1171     2.2958    -3.4264 C.ar    
  14 C14            7.4385     1.1164    -4.0943 C.ar    
  15 C15            7.3079    -0.1065    -3.4402 C.ar    
  16 C16            6.8660    -0.1434    -2.1331 C.ar    
  17 O17            1.0260     3.3854     0.0104 O.3     
  18 O18            4.0436     3.0699    -0.0209 O.2     
  19 C19           -0.2063     3.9612     0.0253 C.ar    
  20 C20            7.3279     1.8316    -6.5308 C.2     
  21 C21            7.9183     1.1626    -5.4987 C.2     
  22 C22            9.0658     0.5237    -6.0076 C.2     
  23 N23            9.1528     0.8002    -7.2818 N.2     
  24 N24            8.0735     1.6195    -7.6340 N.pl3   
  25 C25            7.8011     2.1539    -8.9706 C.3     
  26 C26           10.0262    -0.3295    -5.2198 C.3     
  27 C27           -0.8266     4.2499     1.2367 C.ar    
  28 C28           -2.0819     4.8370     1.2469 C.ar    
  29 C29           -2.7163     5.1350     0.0551 C.ar    
  30 C30           -2.1016     4.8489    -1.1495 C.ar    
  31 C31           -0.8454     4.2673    -1.1676 C.ar    
  32 F32           -0.2441     3.9937    -2.3461 F       
  33 O33           -0.2025     3.9562     2.4086 O.3     
  34 C34           -0.8988     4.2806     3.6135 C.3     
  35 H35           -0.9309    -0.5480     0.0080 H       
  36 H36            1.2022    -1.7834    -0.0178 H       
  37 H37            4.0797    -0.9728     0.8521 H       
  38 H38            4.0624    -0.9638    -0.9351 H       
  39 H39            6.3530     1.8968     0.4647 H       
  40 H40            6.4936     0.1224     0.4544 H       
  41 H41            6.4212     3.1610    -1.6024 H       
  42 H42            7.2163     3.2465    -3.9291 H       
  43 H43            7.5558    -1.0238    -3.9535 H       
  44 H44            6.7682    -1.0906    -1.6237 H       
  45 H45            6.4243     2.4205    -6.4752 H       
  46 H46            8.2941     3.1194    -9.0833 H       
  47 H47            8.1805     1.4622    -9.7227 H       
  48 H48            6.7259     2.2775    -9.1002 H       
  49 H49            9.6970    -1.3682    -5.2485 H       
  50 H50           11.0224    -0.2520    -5.6552 H       
  51 H51           10.0537     0.0145    -4.1858 H       
  52 H52           -2.5651     5.0615     2.1863 H       
  53 H53           -3.6947     5.5922     0.0654 H       
  54 H54           -2.6007     5.0829    -2.0782 H       
  55 H55           -1.0909     5.3531     3.6448 H       
  56 H56           -1.8455     3.7410     3.6426 H       
  57 H57           -0.2914     3.9951     4.4724 H       
@<TRIPOS>BOND
   1    1    2 ar
   2    1    6 ar
   3    2    3 ar
   4    2   35 1
   5    3    4 ar
   6    3   36 1
   7    4    7 1
   8    4    5 ar
   9    5    6 ar
  10    5    9 1
  11    6   17 1
  12    7    8 1
  13    7   37 1
  14    7   38 1
  15    8    9 am
  16    8   10 1
  17    9   18 2
  18   10   11 1
  19   10   39 1
  20   10   40 1
  21   11   12 ar
  22   11   16 ar
  23   12   13 ar
  24   12   41 1
  25   13   14 ar
  26   13   42 1
  27   14   15 ar
  28   14   21 1
  29   15   16 ar
  30   15   43 1
  31   16   44 1
  32   17   19 1
  33   19   27 ar
  34   19   31 ar
  35   20   21 2
  36   20   24 1
  37   20   45 1
  38   21   22 1
  39   22   23 2
  40   22   26 1
  41   23   24 1
  42   24   25 1
  43   25   46 1
  44   25   47 1
  45   25   48 1
  46   26   49 1
  47   26   50 1
  48   26   51 1
  49   27   28 ar
  50   27   33 1
  51   28   29 ar
  52   28   52 1
  53   29   30 ar
  54   29   53 1
  55   30   31 ar
  56   30   54 1
  57   31   32 1
  58   33   34 1
  59   34   55 1
  60   34   56 1
  61   34   57 1

#	End of record

