#	Name: ASD01141026
#	Creating user name:	WinNT
#	Creation time:	15. 06. 2019 19:01

#	Modifying user name:	WinNT
#	Modification time:	15. 06. 2019 19:01

#	Program:	/corina/corina34_cracker 3.40 0067  02.08.2006

@<TRIPOS>MOLECULE
ASD01141026
  46   49    0    0    0
SMALL
NO_CHARGES


@<TRIPOS>ATOM
   1 P1            -0.0180     1.4758     0.0102 P.3     
   2 O2             0.0021    -0.0041     0.0020 O.2     
   3 O3             1.4924     2.0330    -0.0013 O.3     
   4 O4            -0.7967     2.0091    -1.2942 O.3     
   5 O5            -0.7716     1.9950     1.3348 O.3     
   6 C6             2.2672     1.5508     1.0058 C.ar    
   7 C7             2.9971     0.3852     0.8238 C.ar    
   8 C8             3.7838    -0.1029     1.8490 C.ar    
   9 C9             3.8441     0.5692     3.0558 C.ar    
  10 C10            3.1173     1.7309     3.2399 C.ar    
  11 C11            2.3339     2.2265     2.2156 C.ar    
  12 C12           -3.6229    -0.1706    -1.9250 C.2     
  13 C13           -4.7338     0.4141    -1.1011 C.3     
  14 C14           -4.1730     1.3943    -0.0683 C.3     
  15 C15           -3.2256     2.3682    -0.7842 C.3     
  16 N16           -2.1412     1.5735    -1.3805 N.pl3   
  17 N17           -2.4630     0.3777    -2.0361 N.2     
  18 C18           -3.8705    -1.4383    -2.6371 C.ar    
  19 C19           -2.8627    -2.0147    -3.4139 C.ar    
  20 C20           -3.1008    -3.2013    -4.0773 C.ar    
  21 C21           -4.3368    -3.8201    -3.9738 C.ar    
  22 C22           -5.3392    -3.2529    -3.2057 C.ar    
  23 C23           -5.1116    -2.0704    -2.5328 C.ar    
  24 Cl24          -1.8502    -3.9198    -5.0434 Cl      
  25 Cl25          -4.6293    -5.3122    -4.8116 Cl      
  26 C26           -0.9548     3.3804     1.6335 C.3     
  27 C27           -1.8456     3.7305     2.7975 C.2     
  28 C28           -0.3557     3.9081     2.9387 C.3     
  29 O29           -2.9527     3.8108     3.2731 O.2     
  30 H30            2.9500    -0.1404    -0.1185 H       
  31 H31            4.3520    -1.0105     1.7079 H       
  32 H32            4.4598     0.1860     3.8561 H       
  33 H33            3.1655     2.2537     4.1837 H       
  34 H34            1.7701     3.1365     2.3582 H       
  35 H35           -5.4301     0.9388    -1.7553 H       
  36 H36           -5.2621    -0.3886    -0.5867 H       
  37 H37           -4.9907     1.9499     0.3909 H       
  38 H38           -3.6242     0.8456     0.6971 H       
  39 H39           -3.7657     2.9026    -1.5657 H       
  40 H40           -2.8131     3.0777    -0.0668 H       
  41 H41           -1.8996    -1.5328    -3.4955 H       
  42 H42           -6.3003    -3.7396    -3.1297 H       
  43 H43           -5.8931    -1.6318    -1.9301 H       
  44 H44           -0.9621     4.0502     0.7737 H       
  45 H45            0.1788     3.1991     3.5710 H       
  46 H46            0.0328     4.9265     2.9396 H       
@<TRIPOS>BOND
   1    1    2 2
   2    1    3 1
   3    1    4 1
   4    1    5 1
   5    3    6 1
   6    4   16 1
   7    5   26 1
   8    6    7 ar
   9    6   11 ar
  10    7    8 ar
  11    7   30 1
  12    8    9 ar
  13    8   31 1
  14    9   10 ar
  15    9   32 1
  16   10   11 ar
  17   10   33 1
  18   11   34 1
  19   12   13 1
  20   12   17 2
  21   12   18 1
  22   13   14 1
  23   13   35 1
  24   13   36 1
  25   14   15 1
  26   14   37 1
  27   14   38 1
  28   15   16 1
  29   15   39 1
  30   15   40 1
  31   16   17 1
  32   18   19 ar
  33   18   23 ar
  34   19   20 ar
  35   19   41 1
  36   20   21 ar
  37   20   24 1
  38   21   22 ar
  39   21   25 1
  40   22   23 ar
  41   22   42 1
  42   23   43 1
  43   26   27 1
  44   26   28 1
  45   26   44 1
  46   27   28 1
  47   27   29 2
  48   28   45 1
  49   28   46 1

#	End of record

