#	Name: ASD01420346
#	Creating user name:	WinNT
#	Creation time:	15. 06. 2019 19:20

#	Modifying user name:	WinNT
#	Modification time:	15. 06. 2019 19:20

#	Program:	/corina/corina34_cracker 3.40 0067  02.08.2006

@<TRIPOS>MOLECULE
ASD01420346
  24   24    0    0    0
SMALL
NO_CHARGES


@<TRIPOS>ATOM
   1 C1            -0.0180     1.4762     0.0102 C.3     
   2 N2             0.0021    -0.0041     0.0020 N.3     
   3 C3             1.2737    -0.3386    -0.6784 C.3     
   4 C4             2.1991     0.8266    -0.4104 C.ar    
   5 C5             3.5709     0.9522    -0.5084 C.ar    
   6 C6             4.1806     2.1587    -0.1971 C.ar    
   7 C7             3.4099     3.2373     0.2126 C.ar    
   8 C8             2.0382     3.1074     0.3093 C.ar    
   9 C9             1.4320     1.9046    -0.0014 C.ar    
  10 O10            5.5304     2.2838    -0.2926 O.3     
  11 C11            1.2011     4.2789     0.7542 C.3     
  12 H12           -0.5283     1.8508    -0.8772 H       
  13 H13           -0.5112     1.8412     0.9111 H       
  14 H14           -0.0126    -0.3711     0.9418 H       
  15 H15            1.6927    -1.2554    -0.2638 H       
  16 H16            1.1092    -0.4500    -1.7502 H       
  17 H17            4.1689     0.1113    -0.8271 H       
  18 H18            3.8822     4.1776     0.4559 H       
  19 H19            5.8376     2.5791    -1.1607 H       
  20 H20            0.9018     4.8630    -0.1161 H       
  21 H21            0.3128     3.9154     1.2708 H       
  22 H22            1.7832     4.9057     1.4297 H       
  23 Br23          10.8376     9.9057     6.4297 Br      
  24 H24           10.8376    11.4157     6.4297 H       
@<TRIPOS>BOND
   1    1    2 1
   2    1    9 1
   3    1   12 1
   4    1   13 1
   5    2    3 1
   6    2   14 1
   7    3    4 1
   8    3   15 1
   9    3   16 1
  10    4    5 ar
  11    4    9 ar
  12    5    6 ar
  13    5   17 1
  14    6    7 ar
  15    6   10 1
  16    7    8 ar
  17    7   18 1
  18    8    9 ar
  19    8   11 1
  20   10   19 1
  21   11   20 1
  22   11   21 1
  23   11   22 1
  24   23   24 1

#	End of record

