#	Name: ASD00842075
#	Creating user name:	WinNT
#	Creation time:	15. 06. 2019 18:43

#	Modifying user name:	WinNT
#	Modification time:	15. 06. 2019 18:43

#	Program:	/corina/corina34_cracker 3.40 0067  02.08.2006

@<TRIPOS>MOLECULE
ASD00842075
  89   94    0    0    0
SMALL
NO_CHARGES


@<TRIPOS>ATOM
   1 F1             6.0978    -1.6103    -1.9649 F       
   2 C2             1.0027     1.5588    -0.3007 C.ar    
   3 C3             1.3113     0.2347    -0.5760 C.ar    
   4 C4             1.2463    -0.7147     0.4337 C.ar    
   5 C5             0.8745    -0.3396     1.7100 C.ar    
   6 C6             0.5669     0.9810     1.9818 C.ar    
   7 C7             0.6314     1.9290     0.9777 C.ar    
   8 C8             1.5804    -2.1542     0.1380 C.3     
   9 C9             1.3156    -3.0201     1.3512 C.2     
  10 C10            0.7753    -2.6540    -1.0632 C.3     
  11 C11           -0.6939    -2.4351    -0.8094 C.2     
  12 N12           -1.6055    -2.8945    -1.6894 N.am    
  13 O13           -1.0560    -1.8457     0.1867 O.2     
  14 C14           -3.0357    -2.5956    -1.5201 C.3     
  15 C15           -3.5739    -2.0288    -2.8382 C.3     
  16 N16           -3.2586    -2.9576    -3.9318 N.3     
  17 C17           -1.8073    -3.0975    -4.1105 C.3     
  18 C18           -1.1960    -3.7029    -2.8479 C.3     
  19 C19           -3.9049    -2.5372    -5.1823 C.3     
  20 C20           -3.4555    -3.4535    -6.3237 C.3     
  21 C21           -4.1782    -3.0491    -7.6107 C.3     
  22 N22           -5.6293    -3.1583    -7.4137 N.3     
  23 C23           -6.0910    -2.2523    -6.3542 C.3     
  24 C24           -5.4254    -2.6329    -5.0298 C.3     
  25 H25           -6.1251    -2.9887    -8.2760 H       
  26 O26            0.2457    -3.1866     1.8977 O.2     
  27 N27            2.4883    -3.5701     1.7084 N.am    
  28 C28            3.0626    -2.3132    -0.1111 C.ar    
  29 C29            3.5338    -3.1758     0.8708 C.ar    
  30 C30            3.9136    -1.7894    -1.0580 C.ar    
  31 C31            5.2588    -2.1222    -1.0379 C.ar    
  32 C32            5.7404    -2.9816    -0.0634 C.ar    
  33 C33            4.8868    -3.5069     0.8863 C.ar    
  34 Cl34           7.4250    -3.3998    -0.0364 Cl      
  35 C35            2.4212    -6.2344     2.3950 C.ar    
  36 C36            1.1767    -6.6120     1.9116 C.ar    
  37 C37            3.4652    -7.1400     2.4013 C.ar    
  38 C38            3.2727    -8.4229     1.9262 C.ar    
  39 C39            2.0296    -8.8055     1.4416 C.ar    
  40 C40            0.9808    -7.8992     1.4347 C.ar    
  41 O41            1.8408   -10.0677     0.9748 O.3     
  42 O42            0.1504    -5.7212     1.9061 O.3     
  43 C43           -1.1029    -6.1786     1.3941 C.3     
  44 C44            2.9654   -10.9484     1.0126 C.3     
  45 S45            2.6729    -4.5968     2.9946 S.o2    
  46 O46            4.0382    -4.5159     3.3799 O.2     
  47 O47            1.5973    -4.3249     3.8826 O.2     
  48 O48            1.6764    -0.1320    -1.8326 O.3     
  49 C49            2.1531     0.3073    -4.1607 C.3     
  50 C50            1.6129     0.8735    -2.8460 C.3     
  51 H51            1.0570     2.3005    -1.0838 H       
  52 H52            0.8237    -1.0782     2.4963 H       
  53 H53            0.2758     1.2722     2.9802 H       
  54 H54            0.3907     2.9596     1.1924 H       
  55 H55            1.0756    -2.1049    -1.9557 H       
  56 H56            0.9642    -3.7174    -1.2101 H       
  57 H57           -3.5734    -3.5095    -1.2678 H       
  58 H58           -3.1645    -1.8604    -0.7257 H       
  59 H59           -4.6544    -1.9047    -2.7665 H       
  60 H60           -3.1087    -1.0631    -3.0357 H       
  61 H61           -1.6066    -3.7484    -4.9614 H       
  62 H62           -1.3667    -2.1168    -4.2903 H       
  63 H63           -0.1091    -3.7024    -2.9308 H       
  64 H64           -1.5559    -4.7238    -2.7201 H       
  65 H65           -3.6247    -1.5085    -5.4091 H       
  66 H66           -2.3790    -3.3574    -6.4653 H       
  67 H67           -3.7001    -4.4870    -6.0784 H       
  68 H68           -3.9224    -2.0200    -7.8628 H       
  69 H69           -3.8712    -3.7088    -8.4222 H       
  70 H70           -5.8262    -1.2270    -6.6123 H       
  71 H71           -7.1733    -2.3333    -6.2533 H       
  72 H72           -5.7010    -3.6535    -4.7641 H       
  73 H73           -5.7564    -1.9506    -4.2469 H       
  74 H74            3.5334    -1.1203    -1.8157 H       
  75 H75            5.2690    -4.1762     1.6429 H       
  76 H76            4.4332    -6.8442     2.7780 H       
  77 H77            4.0902    -9.1286     1.9315 H       
  78 H78            0.0127    -8.1951     1.0584 H       
  79 H79           -1.8333    -5.3713     1.4468 H       
  80 H80           -0.9798    -6.4900     0.3568 H       
  81 H81           -1.4515    -7.0234     1.9881 H       
  82 H82            2.6790   -11.9209     0.6122 H       
  83 H83            3.7736   -10.5317     0.4115 H       
  84 H84            3.3016   -11.0645     2.0429 H       
  85 H85            3.1575    -0.0852    -4.0018 H       
  86 H86            1.5003    -0.4941    -4.5067 H       
  87 H87            2.1865     1.0979    -4.9104 H       
  88 H88            0.5778     1.1863    -2.9832 H       
  89 H89            2.2147     1.7311    -2.5452 H       
@<TRIPOS>BOND
   1    1   31 1
   2    2    3 ar
   3    2    7 ar
   4    2   51 1
   5    3    4 ar
   6    3   48 1
   7    4    5 ar
   8    4    8 1
   9    5    6 ar
  10    5   52 1
  11    6    7 ar
  12    6   53 1
  13    7   54 1
  14    8    9 1
  15    8   10 1
  16    8   28 1
  17    9   26 2
  18    9   27 am
  19   10   11 1
  20   10   55 1
  21   10   56 1
  22   11   12 am
  23   11   13 2
  24   12   14 1
  25   12   18 1
  26   14   15 1
  27   14   57 1
  28   14   58 1
  29   15   16 1
  30   15   59 1
  31   15   60 1
  32   16   17 1
  33   16   19 1
  34   17   18 1
  35   17   61 1
  36   17   62 1
  37   18   63 1
  38   18   64 1
  39   19   20 1
  40   19   24 1
  41   19   65 1
  42   20   21 1
  43   20   66 1
  44   20   67 1
  45   21   22 1
  46   21   68 1
  47   21   69 1
  48   22   23 1
  49   22   25 1
  50   23   24 1
  51   23   70 1
  52   23   71 1
  53   24   72 1
  54   24   73 1
  55   27   45 am
  56   27   29 1
  57   28   29 ar
  58   28   30 ar
  59   29   33 ar
  60   30   31 ar
  61   30   74 1
  62   31   32 ar
  63   32   33 ar
  64   32   34 1
  65   33   75 1
  66   35   36 ar
  67   35   37 ar
  68   35   45 1
  69   36   42 1
  70   36   40 ar
  71   37   38 ar
  72   37   76 1
  73   38   39 ar
  74   38   77 1
  75   39   40 ar
  76   39   41 1
  77   40   78 1
  78   41   44 1
  79   42   43 1
  80   43   79 1
  81   43   80 1
  82   43   81 1
  83   44   82 1
  84   44   83 1
  85   44   84 1
  86   45   46 2
  87   45   47 2
  88   48   50 1
  89   49   50 1
  90   49   85 1
  91   49   86 1
  92   49   87 1
  93   50   88 1
  94   50   89 1

#	End of record

