#	Name: ASD04840013
#	Creating user name:	WinNT
#	Creation time:	15. 06. 2019 20:52

#	Modifying user name:	WinNT
#	Modification time:	15. 06. 2019 20:52

#	Program:	/corina/corina34_cracker 3.40 0067  02.08.2006

@<TRIPOS>MOLECULE
ASD04840013
  35   37    0    0    0
SMALL
NO_CHARGES


@<TRIPOS>ATOM
   1 O1            -0.0161     1.3381     0.0094 O.3     
   2 C2             0.0021    -0.0041     0.0020 C.2     
   3 O3             1.0565    -0.5939    -0.0112 O.2     
   4 C4            -1.2926    -0.7753     0.0102 C.3     
   5 C5            -2.0994    -0.4154    -1.2107 C.2     
   6 O6            -1.6674     0.3852    -2.0059 O.2     
   7 O7            -3.2980    -0.9842    -1.4147 O.3     
   8 C8            -0.9927    -2.2755    -0.0007 C.3     
   9 C9            -2.2809    -3.0463     0.1313 C.ar    
  10 C10           -2.6005    -4.0020    -0.8240 C.ar    
  11 C11           -3.7782    -4.7139    -0.7127 C.ar    
  12 Cl12          -4.2087    -5.9163    -1.8886 Cl      
  13 C13           -4.6185    -4.4381     0.3797 C.ar    
  14 C14           -4.2230    -3.4508     1.3094 C.ar    
  15 N15           -3.0737    -2.8022     1.1510 N.ar    
  16 C16           -5.1059    -3.1693     2.4465 C.ar    
  17 C17           -4.7769    -2.2063     3.4022 C.ar    
  18 C18           -5.6256    -1.9725     4.4468 C.ar    
  19 C19           -6.8137    -2.6828     4.5692 C.ar    
  20 C20           -7.1621    -3.6298     3.6510 C.ar    
  21 C21           -6.3130    -3.8938     2.5671 C.ar    
  22 C22           -6.6491    -4.8704     1.6009 C.ar    
  23 C23           -5.8385    -5.1290     0.5543 C.ar    
  24 H24            0.8394     1.7888     0.0037 H       
  25 H25           -1.8592    -0.5245     0.9070 H       
  26 H26           -3.7785    -0.7219    -2.2118 H       
  27 H27           -0.5045    -2.5416    -0.9382 H       
  28 H28           -0.3354    -2.5207     0.8336 H       
  29 H29           -1.9308    -4.1875    -1.6507 H       
  30 H30           -3.8557    -1.6491     3.3164 H       
  31 H31           -5.3702    -1.2277     5.1860 H       
  32 H32           -7.4703    -2.4825     5.4030 H       
  33 H33           -8.0885    -4.1745     3.7589 H       
  34 H34           -7.5740    -5.4187     1.7021 H       
  35 H35           -6.1274    -5.8814    -0.1646 H       
@<TRIPOS>BOND
   1    1    2 1
   2    1   24 1
   3    2    3 2
   4    2    4 1
   5    4    5 1
   6    4    8 1
   7    4   25 1
   8    5    6 2
   9    5    7 1
  10    7   26 1
  11    8    9 1
  12    8   27 1
  13    8   28 1
  14    9   10 ar
  15    9   15 ar
  16   10   11 ar
  17   10   29 1
  18   11   12 1
  19   11   13 ar
  20   13   14 ar
  21   13   23 ar
  22   14   15 ar
  23   14   16 ar
  24   16   17 ar
  25   16   21 ar
  26   17   18 ar
  27   17   30 1
  28   18   19 ar
  29   18   31 1
  30   19   20 ar
  31   19   32 1
  32   20   21 ar
  33   20   33 1
  34   21   22 ar
  35   22   23 ar
  36   22   34 1
  37   23   35 1

#	End of record

