#	Name: ASD01884517
#	Creating user name:	WinNT
#	Creation time:	15. 06. 2019 19:48

#	Modifying user name:	WinNT
#	Modification time:	15. 06. 2019 19:48

#	Program:	/corina/corina34_cracker 3.40 0067  02.08.2006

@<TRIPOS>MOLECULE
ASD01884517
  65   67    0    0    0
SMALL
NO_CHARGES


@<TRIPOS>ATOM
   1 C1            -0.0168     1.3884     0.0097 C.2     
   2 C2             0.0021    -0.0041     0.0020 C.2     
   3 C3            -1.2095    -0.6965     0.0104 C.2     
   4 C4            -2.3831    -0.0157     0.0252 C.2     
   5 N5            -2.4093     1.3392     0.0327 N.am    
   6 C6            -1.2693     2.0558     0.0312 C.2     
   7 O7            -1.3129     3.2741     0.0383 O.2     
   8 C8            -3.6983     2.0352     0.0483 C.3     
   9 C9            -4.1273     2.2662     1.4744 C.ar    
  10 C10           -3.7545     3.4263     2.1279 C.ar    
  11 C11           -4.1464     3.6404     3.4352 C.ar    
  12 C12           -4.9147     2.6903     4.0923 C.ar    
  13 C13           -5.2875     1.5272     3.4343 C.ar    
  14 C14           -4.8977     1.3204     2.1252 C.ar    
  15 C15            1.2059     2.1337     0.0020 C.1     
  16 N16            2.1759     2.7249    -0.0041 N.1     
  17 C17            1.3105    -0.7515    -0.0155 C.3     
  18 N18            1.6901    -1.1066     1.3585 N.3     
  19 C19            2.8290    -2.0352     1.3670 C.3     
  20 C20            3.2431    -2.3172     2.8131 C.3     
  21 N21            2.1012    -2.8822     3.5456 N.3     
  22 C22            0.9623    -1.9536     3.5371 C.3     
  23 C23            0.5482    -1.6716     2.0910 C.3     
  24 C24            2.4622    -3.2199     4.8523 C.ar    
  25 C25            3.7591    -3.0084     5.3022 C.ar    
  26 N26            4.1032    -3.3259     6.5345 N.ar    
  27 C27            3.2416    -3.8515     7.3829 C.ar    
  28 C28            1.9324    -4.0923     7.0087 C.ar    
  29 C29            1.5252    -3.7684     5.7252 C.ar    
  30 C30            3.6900    -4.1951     8.7800 C.3     
  31 O31           -5.3012     2.8985     5.3784 O.3     
  32 C32           -6.0908     1.8776     5.9919 C.3     
  33 F33           -5.3726     0.6771     6.0047 F       
  34 F34           -6.3981     2.2513     7.3045 F       
  35 F35           -7.2748     1.7050     5.2669 F       
  36 H36           -1.2130    -1.7765     0.0046 H       
  37 H37           -3.3137    -0.5638     0.0308 H       
  38 H38           -3.5999     2.9937    -0.4613 H       
  39 H39           -4.4456     1.4275    -0.4619 H       
  40 H40           -3.1561     4.1654     1.6161 H       
  41 H41           -3.8547     4.5465     3.9453 H       
  42 H42           -5.8856     0.7861     3.9437 H       
  43 H43           -5.1876     0.4151     1.6125 H       
  44 H44            1.2023    -1.6595    -0.6087 H       
  45 H45            2.0835    -0.1207    -0.4544 H       
  46 H46            2.5411    -2.9683     0.8826 H       
  47 H47            3.6659    -1.5892     0.8295 H       
  48 H48            4.0692    -3.0283     2.8228 H       
  49 H49            3.5569    -1.3883     3.2893 H       
  50 H50            0.1254    -2.3996     4.0746 H       
  51 H51            1.2502    -1.0205     4.0215 H       
  52 H52           -0.2779    -0.9605     2.0813 H       
  53 H53            0.2344    -2.6005     1.6148 H       
  54 H54            4.4930    -2.5800     4.6358 H       
  55 H55            1.2342    -4.5238     7.7107 H       
  56 H56            0.5088    -3.9456     5.4059 H       
  57 H57            3.5349    -3.3362     9.4329 H       
  58 H58            3.1113    -5.0416     9.1495 H       
  59 H59            4.7483    -4.4560     8.7680 H       
  60 C60           10.2755    11.3585    15.3160 C.3     
  61 O61           10.2948     9.9297    15.3082 O.3     
  62 H62           11.2981    11.7358    15.3083 H       
  63 H63            9.7483    11.7196    14.4329 H       
  64 H64            9.7653    11.7100    16.2128 H       
  65 H65           10.7345     9.5465    14.5368 H       
@<TRIPOS>BOND
   1    1    2 2
   2    1   15 1
   3    1    6 1
   4    2    3 1
   5    2   17 1
   6    3    4 2
   7    3   36 1
   8    4    5 1
   9    4   37 1
  10    5    8 1
  11    5    6 am
  12    6    7 2
  13    8    9 1
  14    8   38 1
  15    8   39 1
  16    9   10 ar
  17    9   14 ar
  18   10   11 ar
  19   10   40 1
  20   11   12 ar
  21   11   41 1
  22   12   31 1
  23   12   13 ar
  24   13   14 ar
  25   13   42 1
  26   14   43 1
  27   15   16 3
  28   17   18 1
  29   17   44 1
  30   17   45 1
  31   18   19 1
  32   18   23 1
  33   19   20 1
  34   19   46 1
  35   19   47 1
  36   20   21 1
  37   20   48 1
  38   20   49 1
  39   21   22 1
  40   21   24 1
  41   22   23 1
  42   22   50 1
  43   22   51 1
  44   23   52 1
  45   23   53 1
  46   24   25 ar
  47   24   29 ar
  48   25   26 ar
  49   25   54 1
  50   26   27 ar
  51   27   28 ar
  52   27   30 1
  53   28   29 ar
  54   28   55 1
  55   29   56 1
  56   30   57 1
  57   30   58 1
  58   30   59 1
  59   31   32 1
  60   32   33 1
  61   32   34 1
  62   32   35 1
  63   60   61 1
  64   60   62 1
  65   60   63 1
  66   60   64 1
  67   61   65 1

#	End of record

