#	Name: ASD05390020
#	Creating user name:	WinNT
#	Creation time:	15. 06. 2019 20:59

#	Modifying user name:	WinNT
#	Modification time:	15. 06. 2019 20:59

#	Program:	/corina/corina34_cracker 3.40 0067  02.08.2006

@<TRIPOS>MOLECULE
ASD05390020
  18   18    0    0    0
SMALL
NO_CHARGES


@<TRIPOS>ATOM
   1 C1            -0.0168     1.3847     0.0097 C.ar    
   2 C2             0.0021    -0.0041     0.0020 C.ar    
   3 C3             1.2163    -0.6791    -0.0132 C.ar    
   4 C4             2.3998     0.0321    -0.0207 C.ar    
   5 C5             1.1708     2.0900     0.0021 C.ar    
   6 C6             2.3774     1.4150    -0.0126 C.ar    
   7 N7            -1.1970    -0.7204     0.0101 N.pl3   
   8 C8            -1.3315     2.1212     0.0199 C.3     
   9 O9            -1.0885     3.5294     0.0264 O.3     
  10 H10            1.2344    -1.7590    -0.0188 H       
  11 H11            3.3440    -0.4920    -0.0325 H       
  12 H12            1.1569     3.1699     0.0077 H       
  13 H13            3.3046     1.9689    -0.0181 H       
  14 H14           -2.0441    -0.2480     0.0210 H       
  15 H15           -1.1826    -1.6903     0.0047 H       
  16 H16           -1.9038     1.8554    -0.8688 H       
  17 H17           -1.8954     1.8457     0.9111 H       
  18 H18           -1.8922     4.0672     0.0331 H       
@<TRIPOS>BOND
   1    1    2 ar
   2    1    5 ar
   3    1    8 1
   4    2    3 ar
   5    2    7 1
   6    3    4 ar
   7    3   10 1
   8    4    6 ar
   9    4   11 1
  10    5    6 ar
  11    5   12 1
  12    6   13 1
  13    7   14 1
  14    7   15 1
  15    8    9 1
  16    8   16 1
  17    8   17 1
  18    9   18 1

#	End of record

