#	Name: ASD08150622
#	Creating user name:	WinNT
#	Creation time:	15. 06. 2019 21:16

#	Modifying user name:	WinNT
#	Modification time:	15. 06. 2019 21:16

#	Program:	/corina/corina34_cracker 3.40 0067  02.08.2006

@<TRIPOS>MOLECULE
ASD08150622
  72   77    0    0    0
SMALL
NO_CHARGES


@<TRIPOS>ATOM
   1 N1            -0.8670    -0.3222    -0.9717 N.am    
   2 C2            -0.1018    -0.2909    -2.0800 C.2     
   3 C3             1.1046    -1.0167    -2.1471 C.2     
   4 C4             1.5136    -1.7616    -1.0885 C.2     
   5 C5             0.7110    -1.7968     0.0791 C.ar    
   6 C6             1.0891    -2.5528     1.2051 C.ar    
   7 N7             0.3470    -2.5831     2.2811 N.ar    
   8 C8            -0.8062    -1.9040     2.3768 C.ar    
   9 C9            -1.2646    -1.1166     1.2921 C.ar    
  10 C10           -0.4846    -1.0626     0.1131 C.ar    
  11 C11           -2.4682    -0.4133     1.4017 C.ar    
  12 C12           -3.2016    -0.4948     2.5742 C.ar    
  13 C13           -2.7413    -1.2756     3.6436 C.ar    
  14 C14           -1.5727    -1.9653     3.5521 C.ar    
  15 O15           -0.4579     0.3739    -3.0381 O.2     
  16 C16           -4.4794     0.2481     2.6988 C.ar    
  17 C17           -2.0591     0.4127    -0.9277 C.ar    
  18 C18           -2.0297     1.7656    -0.6139 C.ar    
  19 C19           -3.2037     2.4897    -0.5706 C.ar    
  20 C20           -4.4152     1.8655    -0.8412 C.ar    
  21 C21           -4.4444     0.5128    -1.1554 C.ar    
  22 C22           -3.2693    -0.2101    -1.2034 C.ar    
  23 N23           -5.6046     2.5987    -0.7969 N.3     
  24 C24           -5.5445    -0.2772     3.4354 C.ar    
  25 C25           -6.0211     3.0082    -2.1448 C.3     
  26 C26           -7.4120     3.6476    -2.0738 C.3     
  27 N27           -6.6667     0.4147     3.5229 N.ar    
  28 C28           -6.7891     1.5906     2.9240 C.ar    
  29 N29           -5.8019     2.1216     2.2169 N.ar    
  30 C30           -4.6467     1.4935     2.0874 C.ar    
  31 N31           -7.9812     2.2833     3.0398 N.pl3   
  32 N32           -7.3787     4.7292    -1.0777 N.am    
  33 C33           -6.8440     4.4280     0.2590 C.3     
  34 C34           -5.4755     3.7579     0.0962 C.3     
  35 C35           -7.8267     5.9635    -1.3815 C.2     
  36 C36           -7.7833     7.0570    -0.3455 C.3     
  37 O37           -8.2648     6.1941    -2.4886 O.2     
  38 C38           -8.3463     8.3481    -0.9429 C.3     
  39 C39           -5.7583    -0.1646    -1.4485 C.3     
  40 F40           -5.5503    -1.5396    -1.6011 F       
  41 F41           -6.6443     0.0582    -0.3890 F       
  42 F42           -6.3000     0.3588    -2.6274 F       
  43 O43           -8.3052     9.3851     0.0395 O.3     
  44 C44           -8.8112    10.6404    -0.4188 C.3     
  45 H45            1.7055    -0.9804    -3.0438 H       
  46 H46            2.4370    -2.3196    -1.1354 H       
  47 H47            2.0089    -3.1184     1.1795 H       
  48 H48           -2.8232     0.1891     0.5786 H       
  49 H49           -3.3225    -1.3303     4.5522 H       
  50 H50           -1.2333    -2.5623     4.3857 H       
  51 H51           -1.0880     2.2508    -0.4035 H       
  52 H52           -3.1809     3.5413    -0.3259 H       
  53 H53           -3.2915    -1.2609    -1.4517 H       
  54 H54           -5.4518    -1.2349     3.9258 H       
  55 H55           -5.3084     3.7310    -2.5418 H       
  56 H56           -6.0551     2.1348    -2.7960 H       
  57 H57           -7.6774     4.0559    -3.0489 H       
  58 H58           -8.1449     2.8978    -1.7758 H       
  59 H59           -3.8464     1.9321     1.5100 H       
  60 H60           -8.7127     1.9071     3.5539 H       
  61 H61           -8.0854     3.1451     2.6070 H       
  62 H62           -6.7339     5.3522     0.8262 H       
  63 H63           -7.5223     3.7532     0.7812 H       
  64 H64           -5.1138     3.4282     1.0701 H       
  65 H65           -4.7704     4.4702    -0.3321 H       
  66 H66           -8.3822     6.7644     0.5170 H       
  67 H67           -6.7520     7.2207    -0.0330 H       
  68 H68           -7.7474     8.6408    -1.8053 H       
  69 H69           -9.3776     8.1844    -1.2554 H       
  70 H70           -9.8522    10.5242    -0.7205 H       
  71 H71           -8.7455    11.3739     0.3847 H       
  72 H72           -8.2220    10.9806    -1.2704 H       
@<TRIPOS>BOND
   1    1    2 am
   2    1   10 1
   3    1   17 1
   4    2    3 1
   5    2   15 2
   6    3    4 2
   7    3   45 1
   8    4    5 1
   9    4   46 1
  10    5    6 ar
  11    5   10 ar
  12    6    7 ar
  13    6   47 1
  14    7    8 ar
  15    8    9 ar
  16    8   14 ar
  17    9   10 ar
  18    9   11 ar
  19   11   12 ar
  20   11   48 1
  21   12   13 ar
  22   12   16 1
  23   13   14 ar
  24   13   49 1
  25   14   50 1
  26   16   24 ar
  27   16   30 ar
  28   17   18 ar
  29   17   22 ar
  30   18   19 ar
  31   18   51 1
  32   19   20 ar
  33   19   52 1
  34   20   21 ar
  35   20   23 1
  36   21   22 ar
  37   21   39 1
  38   22   53 1
  39   23   25 1
  40   23   34 1
  41   24   27 ar
  42   24   54 1
  43   25   26 1
  44   25   55 1
  45   25   56 1
  46   26   32 1
  47   26   57 1
  48   26   58 1
  49   27   28 ar
  50   28   29 ar
  51   28   31 1
  52   29   30 ar
  53   30   59 1
  54   31   60 1
  55   31   61 1
  56   32   33 1
  57   32   35 am
  58   33   34 1
  59   33   62 1
  60   33   63 1
  61   34   64 1
  62   34   65 1
  63   35   36 1
  64   35   37 2
  65   36   38 1
  66   36   66 1
  67   36   67 1
  68   38   43 1
  69   38   68 1
  70   38   69 1
  71   39   40 1
  72   39   41 1
  73   39   42 1
  74   43   44 1
  75   44   70 1
  76   44   71 1
  77   44   72 1

#	End of record

