#	Name: ASD08070250
#	Creating user name:	WinNT
#	Creation time:	15. 06. 2019 21:14

#	Modifying user name:	WinNT
#	Modification time:	15. 06. 2019 21:14

#	Program:	/corina/corina34_cracker 3.40 0067  02.08.2006

@<TRIPOS>MOLECULE
ASD08070250
  36   38    0    0    0
SMALL
NO_CHARGES


@<TRIPOS>ATOM
   1 N1            -0.0649     1.3600    -0.1939 N.am    
   2 C2            -0.0294     0.0128    -0.2103 C.2     
   3 O3             1.0190    -0.5651    -0.4234 O.2     
   4 N4            -1.1558    -0.6938     0.0094 N.am    
   5 C5            -1.1402    -2.0906    -0.1041 C.ar    
   6 C6            -0.0171    -2.8066     0.2876 C.ar    
   7 C7            -0.0025    -4.1830     0.1760 C.ar    
   8 C8             1.0667     2.2665    -0.4132 C.3     
   9 C9            -2.2500    -2.7593    -0.6028 C.ar    
  10 C10           -2.2341    -4.1357    -0.7139 C.ar    
  11 C11           -1.1095    -4.8501    -0.3277 C.ar    
  12 C12            0.5511     3.6789    -0.3006 C.ar    
  13 C13           -0.8024     3.6399    -0.0310 C.ar    
  14 C14           -1.2438     2.1999     0.0405 C.3     
  15 C15            1.1967     4.8977    -0.4208 C.ar    
  16 C16            0.4889     6.0745    -0.2710 C.ar    
  17 C17           -0.8665     6.0354    -0.0011 C.ar    
  18 C18           -1.5114     4.8196     0.1182 C.ar    
  19 O19           -1.0942    -6.2053    -0.4382 O.3     
  20 C20            0.0966    -6.8767    -0.0219 C.3     
  21 H21           -1.9774    -0.2356     0.2460 H       
  22 H22            0.8451    -2.2873     0.6792 H       
  23 H23            0.8711    -4.7401     0.4807 H       
  24 H24            1.8322     2.0913     0.3426 H       
  25 H25            1.4834     2.1034    -1.4071 H       
  26 H26           -3.1256    -2.2032    -0.9035 H       
  27 H27           -3.0973    -4.6560    -1.1019 H       
  28 H28           -1.9999     2.0071    -0.7207 H       
  29 H29           -1.6508     1.9869     1.0290 H       
  30 H30            2.2555     4.9285    -0.6317 H       
  31 H31            0.9940     7.0245    -0.3644 H       
  32 H32           -1.4208     6.9549     0.1162 H       
  33 H33           -2.5702     4.7893     0.3291 H       
  34 H34           -0.0239    -7.9509    -0.1623 H       
  35 H35            0.9392    -6.5248    -0.6173 H       
  36 H36            0.2830    -6.6666     1.0312 H       
@<TRIPOS>BOND
   1    1    2 am
   2    1    8 1
   3    1   14 1
   4    2    3 2
   5    2    4 am
   6    4    5 1
   7    4   21 1
   8    5    6 ar
   9    5    9 ar
  10    6    7 ar
  11    6   22 1
  12    7   11 ar
  13    7   23 1
  14    8   12 1
  15    8   24 1
  16    8   25 1
  17    9   10 ar
  18    9   26 1
  19   10   11 ar
  20   10   27 1
  21   11   19 1
  22   12   13 ar
  23   12   15 ar
  24   13   14 1
  25   13   18 ar
  26   14   28 1
  27   14   29 1
  28   15   16 ar
  29   15   30 1
  30   16   17 ar
  31   16   31 1
  32   17   18 ar
  33   17   32 1
  34   18   33 1
  35   19   20 1
  36   20   34 1
  37   20   35 1
  38   20   36 1

#	End of record

