#	Name: ASD01208506
#	Creating user name:	WinNT
#	Creation time:	15. 06. 2019 19:09

#	Modifying user name:	WinNT
#	Modification time:	15. 06. 2019 19:09

#	Program:	/corina/corina34_cracker 3.40 0067  02.08.2006

@<TRIPOS>MOLECULE
ASD01208506
  22   23    0    0    0
SMALL
NO_CHARGES


@<TRIPOS>ATOM
   1 C1            -0.0928     1.2265    -0.0962 C.ar    
   2 C2             1.0058     2.0234    -0.3753 C.ar    
   3 C3             2.2693     1.4625    -0.3618 C.ar    
   4 C4             2.3876     0.0988    -0.0636 C.ar    
   5 C5             1.2323    -0.6353     0.2064 C.ar    
   6 N6             0.0497    -0.0565     0.1815 N.ar    
   7 Cl7           -1.6809     1.9275    -0.1047 Cl      
   8 C8             3.7143    -0.5516    -0.0360 C.2     
   9 O9             3.7973    -1.7583     0.0845 O.2     
  10 N10            4.8324     0.1932    -0.1445 N.am    
  11 C11            6.2807    -0.0591    -0.1064 C.3     
  12 C12            6.4641     1.3824     0.3882 C.3     
  13 C13            5.1409     1.6150    -0.3596 C.3     
  14 H14            0.8763     3.0715    -0.6014 H       
  15 H15            3.1429     2.0604    -0.5760 H       
  16 H16            1.3085    -1.6875     0.4374 H       
  17 H17            6.5713    -0.8103     0.6281 H       
  18 H18            6.7159    -0.2395    -1.0893 H       
  19 H19            6.3957     1.4958     1.4701 H       
  20 H20            7.3186     1.8994    -0.0484 H       
  21 H21            5.2756     1.8760    -1.4093 H       
  22 H22            4.4603     2.2902     0.1592 H       
@<TRIPOS>BOND
   1    1    2 ar
   2    1    6 ar
   3    1    7 1
   4    2    3 ar
   5    2   14 1
   6    3    4 ar
   7    3   15 1
   8    4    5 ar
   9    4    8 1
  10    5    6 ar
  11    5   16 1
  12    8    9 2
  13    8   10 am
  14   10   11 1
  15   10   13 1
  16   11   12 1
  17   11   17 1
  18   11   18 1
  19   12   13 1
  20   12   19 1
  21   12   20 1
  22   13   21 1
  23   13   22 1

#	End of record

