#	Name: ASD01230063
#	Creating user name:	WinNT
#	Creation time:	15. 06. 2019 19:11

#	Modifying user name:	WinNT
#	Modification time:	15. 06. 2019 19:11

#	Program:	/corina/corina34_cracker 3.40 0067  02.08.2006

@<TRIPOS>MOLECULE
ASD01230063
  30   32    0    0    0
SMALL
NO_CHARGES


@<TRIPOS>ATOM
   1 C1            -0.0167     1.3804     0.0096 C.ar    
   2 C2             0.0021    -0.0041     0.0020 C.ar    
   3 C3             1.2077    -0.6847    -0.0127 C.ar    
   4 C4             2.3972     0.0143    -0.0199 C.ar    
   5 C5             2.3838     1.4082    -0.0128 C.ar    
   6 C6             1.1672     2.0887     0.0021 C.ar    
   7 Cl7           -1.4911    -0.8895     0.0116 Cl      
   8 C8             3.6592     2.1645    -0.0200 C.ar    
   9 N9             4.8256     1.5229    -0.0333 N.ar    
  10 C10            5.9638     2.1949    -0.0401 C.ar    
  11 N11            5.9912     3.5183    -0.0342 N.ar    
  12 C12            4.8711     4.2233    -0.0210 C.ar    
  13 C13            3.6556     3.5619    -0.0187 C.ar    
  14 N14            7.1678     1.4910    -0.0536 N.pl3   
  15 C15            8.4294     2.0314    -0.0621 C.2     
  16 C16            7.3143     0.1388    -0.0548 C.2     
  17 N17            8.5885    -0.1404    -0.0692 N.2     
  18 C18            9.2945     1.0006    -0.0741 C.2     
  19 C19            4.9189     5.7295    -0.0143 C.3     
  20 F20            6.2459     6.1545    -0.1390 F       
  21 F21            4.1680     6.2246    -1.0859 F       
  22 F22            4.3871     6.2076     1.1881 F       
  23 H23           -0.9598     1.9067     0.0170 H       
  24 H24            1.2171    -1.7647    -0.0183 H       
  25 H25            3.3371    -0.5175    -0.0307 H       
  26 H26            1.1516     3.1686     0.0074 H       
  27 H27            2.7266     4.1125    -0.0081 H       
  28 H28            8.6797     3.0819    -0.0600 H       
  29 H29            6.5107    -0.5826    -0.0451 H       
  30 H30           10.3717     1.0783    -0.0853 H       
@<TRIPOS>BOND
   1    1    2 ar
   2    1    6 ar
   3    1   23 1
   4    2    3 ar
   5    2    7 1
   6    3    4 ar
   7    3   24 1
   8    4    5 ar
   9    4   25 1
  10    5    6 ar
  11    5    8 1
  12    6   26 1
  13    8    9 ar
  14    8   13 ar
  15    9   10 ar
  16   10   11 ar
  17   10   14 1
  18   11   12 ar
  19   12   19 1
  20   12   13 ar
  21   13   27 1
  22   14   15 1
  23   14   16 1
  24   15   18 2
  25   15   28 1
  26   16   17 2
  27   16   29 1
  28   17   18 1
  29   18   30 1
  30   19   20 1
  31   19   21 1
  32   19   22 1

#	End of record

