#	Name: ASD00844088
#	Creating user name:	WinNT
#	Creation time:	15. 06. 2019 18:49

#	Modifying user name:	WinNT
#	Modification time:	15. 06. 2019 18:49

#	Program:	/corina/corina34_cracker 3.40 0067  02.08.2006

@<TRIPOS>MOLECULE
ASD00844088
  82   87    0    0    0
SMALL
NO_CHARGES


@<TRIPOS>ATOM
   1 F1            -0.1126    -3.1351     4.7194 F       
   2 N2            -0.0159     1.3183     0.0093 N.ar    
   3 C3             0.0021    -0.0041     0.0020 C.ar    
   4 C4             1.2069    -0.6955    -0.0132 C.ar    
   5 C5             2.3925     0.0180    -0.0207 C.ar    
   6 C6             2.3308     1.4049    -0.0127 C.ar    
   7 C7             1.0980     2.0259     0.0025 C.ar    
   8 C8             1.2224    -2.2024    -0.0209 C.3     
   9 C9             0.4763    -2.7343    -1.2260 C.2     
  10 O10            2.5880    -2.6958    -0.0097 O.3     
  11 C11            3.3814    -2.3221    -1.0313 C.2     
  12 N12            4.6600    -2.7452    -1.0812 N.am    
  13 O13            2.9446    -1.6033    -1.9082 O.2     
  14 C14            5.5380    -2.3458    -2.1895 C.3     
  15 C15            6.1423    -3.6053    -2.8182 C.3     
  16 C16            6.8368    -4.4299    -1.7320 C.3     
  17 C17            5.8107    -4.8595    -0.6810 C.3     
  18 C18            5.2042    -3.6096    -0.0251 C.3     
  19 N19            7.4461    -5.6219    -2.3370 N.3     
  20 C20            8.2232    -6.3774    -1.3445 C.3     
  21 C21            8.7741    -7.6496    -1.9929 C.3     
  22 N22            9.6094    -7.2864    -3.1461 N.3     
  23 C23            8.8323    -6.5309    -4.1385 C.3     
  24 C24            8.2815    -5.2587    -3.4902 C.3     
  25 H25           10.4239    -6.7676    -2.8535 H       
  26 O26            0.7562    -2.5398    -2.3900 O.2     
  27 N27           -0.5539    -3.4626    -0.7639 N.am    
  28 C28            0.4503    -2.7460     1.1593 C.ar    
  29 C29           -0.5978    -3.4898     0.6316 C.ar    
  30 C30            0.6153    -2.6252     2.5208 C.ar    
  31 C31           -0.2711    -3.2506     3.3828 C.ar    
  32 C32           -1.3213    -3.9958     2.8683 C.ar    
  33 C33           -1.4865    -4.1167     1.5019 C.ar    
  34 F34           -2.1867    -4.6064     3.7070 F       
  35 C35           -1.0180    -5.8565    -2.0399 C.ar    
  36 C36           -1.3481    -6.8953    -1.1892 C.ar    
  37 C37           -0.2005    -6.0866    -3.1310 C.ar    
  38 C38            0.2887    -7.3555    -3.3737 C.ar    
  39 C39           -0.0410    -8.3994    -2.5216 C.ar    
  40 C40           -0.8611    -8.1659    -1.4272 C.ar    
  41 O41            0.4387    -9.6487    -2.7584 O.3     
  42 H42           -1.9868    -6.7131    -0.3376 H       
  43 C43            0.0580   -10.6748    -1.8396 C.3     
  44 S44           -1.6462    -4.2384    -1.7372 S.o2    
  45 O45           -2.8263    -4.4044    -0.9633 O.2     
  46 O46           -1.6244    -3.5595    -2.9854 O.2     
  47 O47           -1.1673    -0.6919     0.0099 O.3     
  48 C48           -2.3720     0.0766     0.0260 C.3     
  49 C49           -3.5777    -0.8652     0.0330 C.3     
  50 F50           -3.5507    -1.6659    -1.1140 F       
  51 F51           -3.5280    -1.6782     1.1704 F       
  52 H52            3.3442    -0.4925    -0.0322 H       
  53 H53            3.2375     1.9916    -0.0178 H       
  54 H54            1.0444     3.1046     0.0084 H       
  55 H55            4.9585    -1.8056    -2.9382 H       
  56 H56            6.3362    -1.7071    -1.8114 H       
  57 H57            5.3510    -4.1991    -3.2757 H       
  58 H58            6.8692    -3.3195    -3.5786 H       
  59 H59            7.6115    -3.8271    -1.2581 H       
  60 H60            5.0225    -5.4415    -1.1586 H       
  61 H61            6.3015    -5.4663     0.0799 H       
  62 H62            5.9767    -3.0764     0.5291 H       
  63 H63            4.4032    -3.9049     0.6527 H       
  64 H64            9.0503    -5.7641    -0.9868 H       
  65 H65            7.5799    -6.6455    -0.5064 H       
  66 H66            9.3749    -8.1970    -1.2666 H       
  67 H67            7.9463    -8.2756    -2.3262 H       
  68 H68            9.4756    -6.2627    -4.9766 H       
  69 H69            8.0052    -7.1442    -4.4962 H       
  70 H70            7.6806    -4.7112    -4.2164 H       
  71 H71            9.1092    -4.6327    -3.1568 H       
  72 H72            1.4351    -2.0439     2.9166 H       
  73 H73           -2.3067    -4.6983     1.1077 H       
  74 H74            0.0556    -5.2736    -3.7942 H       
  75 H75            0.9270    -7.5347    -4.2263 H       
  76 H76           -1.1194    -8.9771    -0.7626 H       
  77 H77            0.5078   -11.6200    -2.1437 H       
  78 H78            0.4034   -10.4133    -0.8394 H       
  79 H79           -1.0274   -10.7739    -1.8347 H       
  80 H80           -2.3931     0.7004     0.9196 H       
  81 H81           -2.4108     0.7099    -0.8602 H       
  82 H82           -4.4966    -0.2790     0.0452 H       
@<TRIPOS>BOND
   1    1   31 1
   2    2    3 ar
   3    2    7 ar
   4    3    4 ar
   5    3   47 1
   6    4    5 ar
   7    4    8 1
   8    5    6 ar
   9    5   52 1
  10    6    7 ar
  11    6   53 1
  12    7   54 1
  13    8    9 1
  14    8   10 1
  15    8   28 1
  16    9   26 2
  17    9   27 am
  18   10   11 1
  19   11   12 am
  20   11   13 2
  21   12   14 1
  22   12   18 1
  23   14   15 1
  24   14   55 1
  25   14   56 1
  26   15   16 1
  27   15   57 1
  28   15   58 1
  29   16   17 1
  30   16   19 1
  31   16   59 1
  32   17   18 1
  33   17   60 1
  34   17   61 1
  35   18   62 1
  36   18   63 1
  37   19   20 1
  38   19   24 1
  39   20   21 1
  40   20   64 1
  41   20   65 1
  42   21   22 1
  43   21   66 1
  44   21   67 1
  45   22   23 1
  46   22   25 1
  47   23   24 1
  48   23   68 1
  49   23   69 1
  50   24   70 1
  51   24   71 1
  52   27   44 am
  53   27   29 1
  54   28   29 ar
  55   28   30 ar
  56   29   33 ar
  57   30   31 ar
  58   30   72 1
  59   31   32 ar
  60   32   33 ar
  61   32   34 1
  62   33   73 1
  63   35   36 ar
  64   35   37 ar
  65   35   44 1
  66   36   42 1
  67   36   40 ar
  68   37   38 ar
  69   37   74 1
  70   38   39 ar
  71   38   75 1
  72   39   40 ar
  73   39   41 1
  74   40   76 1
  75   41   43 1
  76   43   77 1
  77   43   78 1
  78   43   79 1
  79   44   45 2
  80   44   46 2
  81   47   48 1
  82   48   49 1
  83   48   80 1
  84   48   81 1
  85   49   50 1
  86   49   51 1
  87   49   82 1

#	End of record

