#	Name: ASD01814085
#	Creating user name:	WinNT
#	Creation time:	15. 06. 2019 19:31

#	Modifying user name:	WinNT
#	Modification time:	15. 06. 2019 19:31

#	Program:	/corina/corina34_cracker 3.40 0067  02.08.2006

@<TRIPOS>MOLECULE
ASD01814085
  42   45    0    0    0
SMALL
NO_CHARGES


@<TRIPOS>ATOM
   1 C1             1.1549     2.2509    -0.5134 C.ar    
   2 C2             0.7786     0.9156    -0.4983 C.ar    
   3 C3             1.7214    -0.0801    -0.3469 C.ar    
   4 C4             3.0684     0.2526    -0.2070 C.ar    
   5 C5             3.4448     1.6060    -0.2229 C.ar    
   6 C6             2.4799     2.6015    -0.3768 C.ar    
   7 N7             4.0210    -0.7324    -0.0539 N.pl3   
   8 C8             5.3253    -0.4649     0.0853 C.2     
   9 C9             5.8156     0.8257     0.0857 C.2     
  10 C10            4.8727     1.9444    -0.0741 C.2     
  11 O11            5.2551     3.1013    -0.0806 O.2     
  12 C12            7.2549     1.0782     0.2423 C.2     
  13 O13            7.7214     2.3430     0.2411 O.3     
  14 O14            8.0248     0.1465     0.3728 O.2     
  15 C15            3.5871    -2.1316    -0.0427 C.3     
  16 C16            3.4445    -2.6248    -1.4595 C.ar    
  17 C17            4.5266    -2.5715    -2.3222 C.ar    
  18 C18            4.3976    -3.0243    -3.6232 C.ar    
  19 C19            3.1825    -3.5317    -4.0620 C.ar    
  20 C20            2.0998    -3.5833    -3.1936 C.ar    
  21 C21            2.2352    -3.1349    -1.8944 C.ar    
  22 N22            3.0482    -3.9907    -5.3792 N.pl3   
  23 F23            1.3400    -1.3761    -0.3337 F       
  24 C24            1.9399    -4.5058    -5.9444 C.2     
  25 N25            2.2203    -4.8149    -7.1850 N.2     
  26 C26            3.4955    -4.5127    -7.4494 C.2     
  27 N27            4.0412    -3.9986    -6.3722 N.2     
  28 F28            5.7085    -2.0770    -1.8934 F       
  29 N29            4.1391    -4.7067    -8.6722 N.pl3   
  30 H30            0.4058     3.0190    -0.6372 H       
  31 H31           -0.2634     0.6529    -0.6059 H       
  32 H32            2.7703     3.6416    -0.3892 H       
  33 H33            6.0171    -1.2860     0.2014 H       
  34 H34            8.6756     2.4591     0.3471 H       
  35 H35            4.3273    -2.7373     0.4801 H       
  36 H36            2.6272    -2.2103     0.4677 H       
  37 H37            5.2410    -2.9827    -4.2964 H       
  38 H38            1.1535    -3.9777    -3.5330 H       
  39 H39            1.3931    -3.1756    -1.2194 H       
  40 H40            0.9851    -4.6411    -5.4581 H       
  41 H41            3.6547    -5.0907    -9.4197 H       
  42 H42            5.0709    -4.4574    -8.7747 H       
@<TRIPOS>BOND
   1    1    2 ar
   2    1    6 ar
   3    1   30 1
   4    2    3 ar
   5    2   31 1
   6    3    4 ar
   7    3   23 1
   8    4    5 ar
   9    4    7 1
  10    5    6 ar
  11    5   10 1
  12    6   32 1
  13    7    8 1
  14    7   15 1
  15    8    9 2
  16    8   33 1
  17    9   10 1
  18    9   12 1
  19   10   11 2
  20   12   13 1
  21   12   14 2
  22   13   34 1
  23   15   16 1
  24   15   35 1
  25   15   36 1
  26   16   17 ar
  27   16   21 ar
  28   17   18 ar
  29   17   28 1
  30   18   19 ar
  31   18   37 1
  32   19   20 ar
  33   19   22 1
  34   20   21 ar
  35   20   38 1
  36   21   39 1
  37   22   24 1
  38   22   27 1
  39   24   25 2
  40   24   40 1
  41   25   26 1
  42   26   27 2
  43   26   29 1
  44   29   41 1
  45   29   42 1

#	End of record

