#	Name: ASD03330090
#	Creating user name:	WinNT
#	Creation time:	15. 06. 2019 20:36

#	Modifying user name:	WinNT
#	Modification time:	15. 06. 2019 20:36

#	Program:	/corina/corina34_cracker 3.40 0067  02.08.2006

@<TRIPOS>MOLECULE
ASD03330090
  75   78    0    0    0
SMALL
NO_CHARGES


@<TRIPOS>ATOM
   1 C1             1.4538     1.1917     0.0066 C.2     
   2 C2             1.1379    -0.0239     0.5352 C.2     
   3 C3             2.7701     1.5686     0.1743 C.2     
   4 C4             3.5408     0.6492     0.8487 C.2     
   5 S5             2.5570    -0.7413     1.2839 S.3     
   6 C6             4.9745     0.8065     1.1593 C.ar    
   7 C7             5.4401     0.5847     2.4591 C.ar    
   8 C8             5.8739     1.1721     0.1550 C.ar    
   9 C9             7.2129     1.3171     0.4517 C.ar    
  10 C10            7.6674     1.1007     1.7420 C.ar    
  11 C11            6.7826     0.7333     2.7421 C.ar    
  12 C12            3.3089     2.8545    -0.3296 C.ar    
  13 C13            3.1792     3.1855    -1.6782 C.ar    
  14 C14            3.9413     3.7375     0.5453 C.ar    
  15 C15            4.4416     4.9326     0.0746 C.ar    
  16 C16            4.3162     5.2581    -1.2715 C.ar    
  17 C17            3.6811     4.3817    -2.1446 C.ar    
  18 C18           -0.1898    -0.6422     0.4864 C.2     
  19 O19           -1.1830     0.0326     0.6855 O.2     
  20 N20           -0.3111    -1.9580     0.2212 N.am    
  21 C21           -1.6372    -2.5718     0.0686 C.3     
  22 C22            0.8805    -2.8048     0.0731 C.3     
  23 C23            0.7978    -3.5424    -1.2670 C.3     
  24 C24           -0.5277    -4.3034    -1.3449 C.3     
  25 C25           -1.6865    -3.3125    -1.2714 C.3     
  26 N26           -0.5959    -5.0387    -2.6148 N.3     
  27 Cl27           4.3320     0.1241     3.7136 Cl      
  28 C28           -0.6167    -5.2755    -0.1968 C.2     
  29 N29           -0.0299    -6.4851    -0.2910 N.am    
  30 O30           -1.2164    -4.9693     0.8119 O.2     
  31 C31           -3.2389    -7.2555    -4.1942 C.3     
  32 S32            4.9562     6.7866    -1.8703 S.3     
  33 C33            4.5506     6.7345    -3.6376 C.3     
  34 C34            5.0487     8.0137    -4.3132 C.3     
  35 C35            4.7066     7.9698    -5.8038 C.3     
  36 C36            5.2048     9.2490    -6.4793 C.3     
  37 Cl37           9.3547     1.2850     2.1059 Cl      
  38 O38            4.8852     9.2079    -7.8715 O.3     
  39 F39           -4.2429    -6.2877    -4.3062 F       
  40 F40           -3.4897    -8.0607    -3.0780 F       
  41 F41           -3.2243    -8.0479    -5.3471 F       
  42 C42           -1.8983    -5.7000    -2.7708 C.3     
  43 C43           -1.8824    -6.5666    -4.0317 C.3     
  44 H44            0.7317     1.8093    -0.5069 H       
  45 H45            5.5214     1.3406    -0.8518 H       
  46 H46            7.9089     1.5997    -0.3242 H       
  47 H47            7.1435     0.5665     3.7463 H       
  48 H48            2.6863     2.5050    -2.3567 H       
  49 H49            4.0385     3.4853     1.5910 H       
  50 H50            4.9310     5.6168     0.7519 H       
  51 H51            3.5848     4.6364    -3.1897 H       
  52 H52           -1.8095    -3.2765     0.8822 H       
  53 H53           -2.4030    -1.7963     0.0859 H       
  54 H54            1.7755    -2.1829     0.0933 H       
  55 H55            0.9177    -3.5288     0.8871 H       
  56 H56            0.8520    -2.8216    -2.0829 H       
  57 H57            1.6265    -4.2459    -1.3468 H       
  58 H58           -2.6310    -3.8508    -1.3503 H       
  59 H59           -1.6057    -2.5968    -2.0896 H       
  60 H60           -0.4037    -4.4297    -3.3960 H       
  61 H61            0.5116    -6.7025    -1.0658 H       
  62 H62           -0.1491    -7.1384     0.4161 H       
  63 H63            5.0322     5.8705    -4.0956 H       
  64 H64            3.4704     6.6558    -3.7603 H       
  65 H65            4.5671     8.8777    -3.8552 H       
  66 H66            6.1289     8.0924    -4.1905 H       
  67 H67            5.1882     7.1058    -6.2618 H       
  68 H68            3.6264     7.8910    -5.9265 H       
  69 H69            4.7232    10.1129    -6.0213 H       
  70 H70            6.2850     9.3277    -6.3566 H       
  71 H71            5.1722     9.9890    -8.3641 H       
  72 H72           -2.0937    -6.3274    -1.9012 H       
  73 H73           -2.6806    -4.9460    -2.8581 H       
  74 H74           -1.1001    -7.3207    -3.9444 H       
  75 H75           -1.6870    -5.9393    -4.9013 H       
@<TRIPOS>BOND
   1    1    2 2
   2    1    3 1
   3    1   44 1
   4    2   18 1
   5    2    5 1
   6    3    4 2
   7    3   12 1
   8    4    5 1
   9    4    6 1
  10    6    7 ar
  11    6    8 ar
  12    7   27 1
  13    7   11 ar
  14    8    9 ar
  15    8   45 1
  16    9   10 ar
  17    9   46 1
  18   10   11 ar
  19   10   37 1
  20   11   47 1
  21   12   13 ar
  22   12   14 ar
  23   13   17 ar
  24   13   48 1
  25   14   15 ar
  26   14   49 1
  27   15   16 ar
  28   15   50 1
  29   16   17 ar
  30   16   32 1
  31   17   51 1
  32   18   19 2
  33   18   20 am
  34   20   21 1
  35   20   22 1
  36   21   25 1
  37   21   52 1
  38   21   53 1
  39   22   23 1
  40   22   54 1
  41   22   55 1
  42   23   24 1
  43   23   56 1
  44   23   57 1
  45   24   25 1
  46   24   26 1
  47   24   28 1
  48   25   58 1
  49   25   59 1
  50   26   42 1
  51   26   60 1
  52   28   29 am
  53   28   30 2
  54   29   61 1
  55   29   62 1
  56   31   39 1
  57   31   40 1
  58   31   41 1
  59   31   43 1
  60   32   33 1
  61   33   34 1
  62   33   63 1
  63   33   64 1
  64   34   35 1
  65   34   65 1
  66   34   66 1
  67   35   36 1
  68   35   67 1
  69   35   68 1
  70   36   38 1
  71   36   69 1
  72   36   70 1
  73   38   71 1
  74   42   43 1
  75   42   72 1
  76   42   73 1
  77   43   74 1
  78   43   75 1

#	End of record

