#	Name: ASD01881965
#	Creating user name:	WinNT
#	Creation time:	15. 06. 2019 19:43

#	Modifying user name:	WinNT
#	Modification time:	15. 06. 2019 19:43

#	Program:	/corina/corina34_cracker 3.40 0067  02.08.2006

@<TRIPOS>MOLECULE
ASD01881965
  50   53    0    0    0
SMALL
NO_CHARGES


@<TRIPOS>ATOM
   1 N1            -0.0161     1.3329     0.0094 N.am    
   2 C2             0.0021    -0.0041     0.0020 C.2     
   3 C3             1.2764    -0.7999     0.0232 C.3     
   4 N4             2.4085     0.0552    -0.3578 N.3     
   5 C5             2.3967     1.2959     0.4340 C.3     
   6 C6             1.1986     2.1432     0.0021 C.3     
   7 O7            -1.0543    -0.5993    -0.0224 O.2     
   8 C8            -1.3124     2.0152     0.0191 C.3     
   9 C9             3.6832    -0.6578    -0.2002 C.3     
  10 C10            3.7478    -1.8142    -1.1999 C.3     
  11 C11            5.0754    -2.5567    -1.0357 C.3     
  12 O12            5.1357    -3.6368    -1.9695 O.3     
  13 N13            9.5507    -6.8756    -2.1163 N.pl3   
  14 N14            9.0968    -7.7089    -3.1494 N.2     
  15 N15            7.9310    -7.3215    -3.5309 N.2     
  16 C16            7.5358    -6.2499    -2.8150 C.ar    
  17 C17            8.5594    -5.9456    -1.9008 C.ar    
  18 C18            6.3771    -5.4613    -2.8326 C.ar    
  19 C19            6.2588    -4.4034    -1.9550 C.ar    
  20 C20            7.2815    -4.1145    -1.0548 C.ar    
  21 C21            8.4174    -4.8736    -1.0271 C.ar    
  22 C22           10.8261    -6.9790    -1.4028 C.3     
  23 C23           11.8843    -6.1437    -2.1263 C.3     
  24 C24           13.2615    -6.0263    -1.4702 C.3     
  25 C25           13.0821    -6.8848    -2.7238 C.3     
  26 Br26           4.9836    -5.8459    -4.0515 Br      
  27 H27            1.4412    -1.1924     1.0266 H       
  28 H28            1.1968    -1.6292    -0.6796 H       
  29 H29            2.3093     1.0528     1.4930 H       
  30 H30            3.3187     1.8502     0.2588 H       
  31 H31            1.3710     2.5274    -1.0033 H       
  32 H32            1.0797     2.9792     0.6914 H       
  33 H33           -2.1126     1.2751     0.0188 H       
  34 H34           -1.3905     2.6343     0.9129 H       
  35 H35           -1.3988     2.6440    -0.8671 H       
  36 H36            4.5090     0.0291    -0.3853 H       
  37 H37            3.7571    -1.0499     0.8142 H       
  38 H38            2.9219    -2.5011    -1.0148 H       
  39 H39            3.6738    -1.4221    -2.2143 H       
  40 H40            5.9012    -1.8698    -1.2208 H       
  41 H41            5.1493    -2.9488    -0.0214 H       
  42 H42            7.1762    -3.2831    -0.3734 H       
  43 H43            9.2048    -4.6413    -0.3254 H       
  44 H44           10.7041    -6.6084    -0.3850 H       
  45 H45           11.1430    -8.0215    -1.3743 H       
  46 H46           11.5087    -5.2751    -2.6670 H       
  47 H47           13.7921    -5.0804    -1.5797 H       
  48 H48           13.4136    -6.5440    -0.5231 H       
  49 H49           13.1161    -7.9674    -2.6015 H       
  50 H50           13.4946    -6.5038    -3.6580 H       
@<TRIPOS>BOND
   1    1    2 am
   2    1    6 1
   3    1    8 1
   4    2    3 1
   5    2    7 2
   6    3    4 1
   7    3   27 1
   8    3   28 1
   9    4    5 1
  10    4    9 1
  11    5    6 1
  12    5   29 1
  13    5   30 1
  14    6   31 1
  15    6   32 1
  16    8   33 1
  17    8   34 1
  18    8   35 1
  19    9   10 1
  20    9   36 1
  21    9   37 1
  22   10   11 1
  23   10   38 1
  24   10   39 1
  25   11   12 1
  26   11   40 1
  27   11   41 1
  28   12   19 1
  29   13   14 1
  30   13   17 1
  31   13   22 1
  32   14   15 2
  33   15   16 1
  34   16   17 ar
  35   16   18 ar
  36   17   21 ar
  37   18   19 ar
  38   18   26 1
  39   19   20 ar
  40   20   21 ar
  41   20   42 1
  42   21   43 1
  43   22   23 1
  44   22   44 1
  45   22   45 1
  46   23   24 1
  47   23   25 1
  48   23   46 1
  49   24   25 1
  50   24   47 1
  51   24   48 1
  52   25   49 1
  53   25   50 1

#	End of record

