#	Name: ASD01884223
#	Creating user name:	WinNT
#	Creation time:	15. 06. 2019 19:47

#	Modifying user name:	WinNT
#	Modification time:	15. 06. 2019 19:47

#	Program:	/corina/corina34_cracker 3.40 0067  02.08.2006

@<TRIPOS>MOLECULE
ASD01884223
  35   38    0    0    0
SMALL
NO_CHARGES


@<TRIPOS>ATOM
   1 C1            -0.0168     1.3909     0.0097 C.ar    
   2 C2             0.0021    -0.0041     0.0020 C.ar    
   3 C3            -1.1687    -0.7210     0.0093 C.ar    
   4 C4            -2.4131    -0.0704     0.0242 C.ar    
   5 C5            -2.4160     1.3263     0.0317 C.ar    
   6 C6            -1.2419     2.0535     0.0308 C.ar    
   7 C7             1.2523     2.1591     0.0017 C.ar    
   8 N8            -3.6712    -0.6450     0.0326 N.am    
   9 C9            -4.7415     0.1550     0.0466 C.2     
  10 S10           -4.1170     1.8126     0.0499 S.3     
  11 O11           -5.9098    -0.1865     0.0551 O.2     
  12 C12           -3.8273    -2.1016     0.0257 C.3     
  13 C13           -3.8682    -2.6170     1.4657 C.3     
  14 C14           -4.1447    -4.1071     1.6751 C.3     
  15 C15           -2.7407    -3.5485     1.9149 C.3     
  16 C16            2.2618     1.8530     0.9150 C.ar    
  17 C17            3.4427     2.5719     0.9027 C.ar    
  18 C18            3.6243     3.5923    -0.0122 C.ar    
  19 C19            2.6251     3.9008    -0.9211 C.ar    
  20 C20            1.4428     3.1850    -0.9216 C.ar    
  21 F21            2.0854     0.8564     1.8099 F       
  22 F22            2.8088     4.8998    -1.8119 F       
  23 H23            0.9478    -0.5255    -0.0101 H       
  24 H24           -1.1322    -1.8003     0.0032 H       
  25 H25           -1.2736     3.1330     0.0371 H       
  26 H26           -4.7556    -2.3652    -0.4811 H       
  27 H27           -2.9859    -2.5547    -0.4986 H       
  28 H28           -4.2710    -1.9220     2.2024 H       
  29 H29           -4.7290    -4.3925     2.5499 H       
  30 H30           -4.2974    -4.7203     0.7870 H       
  31 H31           -1.9697    -3.7942     1.1846 H       
  32 H32           -2.4013    -3.4663     2.9475 H       
  33 H33            4.2246     2.3361     1.6094 H       
  34 H34            4.5484     4.1513    -0.0182 H       
  35 H35            0.6647     3.4260    -1.6307 H       
@<TRIPOS>BOND
   1    1    2 ar
   2    1    7 1
   3    1    6 ar
   4    2    3 ar
   5    2   23 1
   6    3    4 ar
   7    3   24 1
   8    4    5 ar
   9    4    8 1
  10    5    6 ar
  11    5   10 1
  12    6   25 1
  13    7   16 ar
  14    7   20 ar
  15    8    9 am
  16    8   12 1
  17    9   10 1
  18    9   11 2
  19   12   13 1
  20   12   26 1
  21   12   27 1
  22   13   14 1
  23   13   15 1
  24   13   28 1
  25   14   15 1
  26   14   29 1
  27   14   30 1
  28   15   31 1
  29   15   32 1
  30   16   17 ar
  31   16   21 1
  32   17   18 ar
  33   17   33 1
  34   18   19 ar
  35   18   34 1
  36   19   20 ar
  37   19   22 1
  38   20   35 1

#	End of record

