#	Name: ASD05060092
#	Creating user name:	WinNT
#	Creation time:	15. 06. 2019 20:56

#	Modifying user name:	WinNT
#	Modification time:	15. 06. 2019 20:56

#	Program:	/corina/corina34_cracker 3.40 0067  02.08.2006

@<TRIPOS>MOLECULE
ASD05060092
  22   23    0    0    0
SMALL
NO_CHARGES


@<TRIPOS>ATOM
   1 S1            -0.0211     1.7014     0.0114 S.3     
   2 C2             0.0021    -0.0041     0.0020 C.2     
   3 C3             1.2540    -0.4701    -0.0124 C.2     
   4 C4             2.2392     0.4976    -0.0166 C.2     
   5 C5             1.7354     1.7770    -0.0050 C.2     
   6 C6             2.5072     2.9644    -0.0060 C.2     
   7 O7             3.7223     2.9003    -0.0184 O.2     
   8 O8             1.8950     4.1671     0.0068 O.3     
   9 N9             3.6054     0.2069    -0.0303 N.pl3   
  10 C10            4.2746    -0.4076    -1.0379 C.2     
  11 C11            5.5822    -0.5180    -0.6953 C.2     
  12 C12            5.7454     0.0457     0.5716 C.2     
  13 C13            4.5027     0.5022     0.9770 C.2     
  14 C14            4.2065     1.1479     2.1981 C.2     
  15 O15            5.0891     1.3514     3.0071 O.2     
  16 H16           -0.8806    -0.6263     0.0074 H       
  17 H17            1.4791    -1.5264    -0.0199 H       
  18 H18            2.5038     4.9184     0.0050 H       
  19 H19            3.8369    -0.7528    -1.9630 H       
  20 H20            6.3605    -0.9641    -1.2967 H       
  21 H21            6.6681     0.1164     1.1285 H       
  22 H22            3.1952     1.4606     2.4121 H       
@<TRIPOS>BOND
   1    1    2 1
   2    1    5 1
   3    2    3 2
   4    2   16 1
   5    3    4 1
   6    3   17 1
   7    4    5 2
   8    4    9 1
   9    5    6 1
  10    6    7 2
  11    6    8 1
  12    8   18 1
  13    9   10 1
  14    9   13 1
  15   10   11 2
  16   10   19 1
  17   11   12 1
  18   11   20 1
  19   12   13 2
  20   12   21 1
  21   13   14 1
  22   14   15 2
  23   14   22 1

#	End of record

