#	Name: ASD00960040
#	Creating user name:	WinNT
#	Creation time:	15. 06. 2019 18:53

#	Modifying user name:	WinNT
#	Modification time:	15. 06. 2019 18:53

#	Program:	/corina/corina34_cracker 3.40 0067  02.08.2006

@<TRIPOS>MOLECULE
ASD00960040
  35   37    0    0    0
SMALL
NO_CHARGES


@<TRIPOS>ATOM
   1 F1             1.3189    -0.4764    -0.0131 F       
   2 C2            -0.0189     1.5409     0.0105 C.3     
   3 C3             0.0021    -0.0041     0.0020 C.3     
   4 C4            -0.6985    -0.3962     1.3218 C.3     
   5 O5            -1.5292     0.7387     1.6500 O.3     
   6 C6            -0.7297     1.8993     1.3344 C.3     
   7 C7            -1.6237     3.1262     1.1437 C.3     
   8 C8            -1.5461    -1.6259     1.1205 C.2     
   9 C9            -1.1024    -2.9091     1.1905 C.2     
  10 N10           -2.8640    -1.6291     0.8485 N.pl3   
  11 C11           -3.2856    -2.9414     0.7333 C.2     
  12 C12           -2.1876    -3.7531     0.9462 C.2     
  13 N13           -3.8104    -0.6094     0.6752 N.2     
  14 C14           -5.0524    -0.9089     0.4125 C.2     
  15 N15           -5.4727    -2.1680     0.2988 N.2     
  16 C16           -4.6468    -3.1908     0.4472 C.2     
  17 O17           -2.2379     3.4662     2.3884 O.3     
  18 N18           -5.1089    -4.4855     0.3235 N.pl3   
  19 Cl19          -2.1622    -5.4886     0.9151 Cl      
  20 C20           -0.7736    -0.5441    -1.2011 C.3     
  21 O21            1.3126     2.0597     0.0006 O.3     
  22 *22            1.4358     3.3108    -0.6380 Du      
  23 H23           -0.5818     1.9199    -0.8424 H       
  24 H24            0.0385    -0.5666     2.1065 H       
  25 H25            0.0026     2.0810     2.1211 H       
  26 H26           -1.0207     3.9646     0.7951 H       
  27 H27           -2.3953     2.9025     0.4070 H       
  28 H28           -0.0894    -3.2206     1.3980 H       
  29 H29           -5.7653    -0.1080     0.2831 H       
  30 H30           -2.8202     4.2368     2.3421 H       
  31 H31           -6.0444    -4.6499     0.1267 H       
  32 H32           -4.4981    -5.2311     0.4335 H       
  33 H33           -0.3020    -0.2000    -2.1216 H       
  34 H34           -0.7699    -1.6338    -1.1764 H       
  35 H35           -1.8014    -0.1833    -1.1625 H       
@<TRIPOS>BOND
   1    1    3 1
   2    2    3 1
   3    2   21 1
   4    2    6 1
   5    2   23 1
   6    3   20 1
   7    3    4 1
   8    4    5 1
   9    4    8 1
  10    4   24 1
  11    5    6 1
  12    6    7 1
  13    6   25 1
  14    7   17 1
  15    7   26 1
  16    7   27 1
  17    8    9 2
  18    8   10 1
  19    9   12 1
  20    9   28 1
  21   10   11 1
  22   10   13 1
  23   11   12 2
  24   11   16 1
  25   12   19 1
  26   13   14 2
  27   14   15 1
  28   14   29 1
  29   15   16 2
  30   16   18 1
  31   17   30 1
  32   18   31 1
  33   18   32 1
  34   20   33 1
  35   20   34 1
  36   20   35 1
  37   21   22 1

#	End of record

