#	Name: ASD00170444
#	Creating user name:	WinNT
#	Creation time:	15. 06. 2019 18:32

#	Modifying user name:	WinNT
#	Modification time:	15. 06. 2019 18:32

#	Program:	/corina/corina34_cracker 3.40 0067  02.08.2006

@<TRIPOS>MOLECULE
ASD00170444
  50   52    0    0    0
SMALL
NO_CHARGES


@<TRIPOS>ATOM
   1 C1             0.9975     0.5320    -0.3748 C.2     
   2 C2             0.6358    -0.7438    -0.0002 C.2     
   3 C3            -0.7797    -0.8731     0.2515 C.2     
   4 C4            -1.4500     0.2715     0.0697 C.2     
   5 S5            -0.3613     1.5596    -0.4140 S.3     
   6 C6            -1.4349    -2.1627     0.6741 C.3     
   7 N7             2.2847     0.9251    -0.6717 N.pl3   
   8 C8             1.5856    -1.8499     0.1286 C.2     
   9 C9             1.9828    -2.6262    -1.0655 C.ar    
  10 O10            2.0488    -2.1308     1.2192 O.2     
  11 C11            2.9042    -3.6687    -0.9491 C.ar    
  12 C12            3.2703    -4.3894    -2.0662 C.ar    
  13 C13            2.7260    -4.0809    -3.3020 C.ar    
  14 C14            1.8115    -3.0477    -3.4237 C.ar    
  15 C15            1.4336    -2.3233    -2.3129 C.ar    
  16 Cl16           3.1923    -4.9924    -4.7039 Cl      
  17 C17           -2.9073     0.4297     0.2561 C.ar    
  18 C18           -3.5140    -0.0016     1.4372 C.ar    
  19 C19           -4.8749     0.1490     1.6048 C.ar    
  20 C20           -5.6385     0.7260     0.6055 C.ar    
  21 C21           -5.0437     1.1552    -0.5677 C.ar    
  22 C22           -3.6828     1.0163    -0.7457 C.ar    
  23 N23           -1.7177    -2.9803    -0.5131 N.3     
  24 C24           -2.0041    -4.3715    -0.1381 C.3     
  25 C25           -2.8213    -2.4081    -1.2957 C.3     
  26 C26           -3.2886    -4.4255     0.6482 C.2     
  27 O27           -2.1346    -5.1658    -1.3188 O.3     
  28 C28           -0.9036    -5.3858    -2.0103 C.3     
  29 H29           -3.4055    -3.8187     1.5339 H       
  30 O30           -4.1872    -5.1473     0.2879 O.2     
  31 H31           -0.7669    -2.7084     1.3404 H       
  32 H32           -2.3672    -1.9430     1.1944 H       
  33 H33            3.0211     0.3055    -0.5507 H       
  34 H34            2.4542     1.8214    -1.0016 H       
  35 H35            3.3295    -3.9099     0.0139 H       
  36 H36            3.9832    -5.1959    -1.9775 H       
  37 H37            1.3907    -2.8115    -4.3899 H       
  38 H38            0.7202    -1.5182    -2.4089 H       
  39 H39           -2.9191    -0.4525     2.2178 H       
  40 H40           -5.3455    -0.1845     2.5179 H       
  41 H41           -6.7036     0.8416     0.7418 H       
  42 H42           -5.6455     1.6045    -1.3439 H       
  43 H43           -3.2197     1.3517    -1.6619 H       
  44 H44           -1.1881    -4.7587     0.4720 H       
  45 H45           -2.5537    -1.4024    -1.6197 H       
  46 H46           -3.0098    -3.0330    -2.1687 H       
  47 H47           -3.7193    -2.3645    -0.6795 H       
  48 H48           -0.1731    -5.8147    -1.3244 H       
  49 H49           -1.0705    -6.0732    -2.8397 H       
  50 H50           -0.5281    -4.4374    -2.3945 H       
@<TRIPOS>BOND
   1    1    2 2
   2    1    7 1
   3    1    5 1
   4    2    3 1
   5    2    8 1
   6    3    4 2
   7    3    6 1
   8    4    5 1
   9    4   17 1
  10    6   23 1
  11    6   31 1
  12    6   32 1
  13    7   33 1
  14    7   34 1
  15    8    9 1
  16    8   10 2
  17    9   11 ar
  18    9   15 ar
  19   11   12 ar
  20   11   35 1
  21   12   13 ar
  22   12   36 1
  23   13   14 ar
  24   13   16 1
  25   14   15 ar
  26   14   37 1
  27   15   38 1
  28   17   18 ar
  29   17   22 ar
  30   18   19 ar
  31   18   39 1
  32   19   20 ar
  33   19   40 1
  34   20   21 ar
  35   20   41 1
  36   21   22 ar
  37   21   42 1
  38   22   43 1
  39   23   24 1
  40   23   25 1
  41   24   26 1
  42   24   27 1
  43   24   44 1
  44   25   45 1
  45   25   46 1
  46   25   47 1
  47   26   29 1
  48   26   30 2
  49   27   28 1
  50   28   48 1
  51   28   49 1
  52   28   50 1

#	End of record

