#	Name: ASD02198311
#	Creating user name:	WinNT
#	Creation time:	15. 06. 2019 20:19

#	Modifying user name:	WinNT
#	Modification time:	15. 06. 2019 20:19

#	Program:	/corina/corina34_cracker 3.40 0067  02.08.2006

@<TRIPOS>MOLECULE
ASD02198311
  47   49    0    0    0
SMALL
NO_CHARGES


@<TRIPOS>ATOM
   1 C1             0.5361     1.5416     0.0721 C.2     
   2 C2             0.7023     0.1711     0.1410 C.2     
   3 S3             2.1149     2.2851     0.3138 S.3     
   4 C4             2.8336     0.7440     0.4802 C.2     
   5 N5             1.9430    -0.1976     0.3595 N.2     
   6 N6            -0.3420    -0.7283    -0.0059 N.pl3   
   7 C7            -0.6763     2.2212    -0.1563 C.2     
   8 C8            -0.7259     3.6957    -0.0637 C.ar    
   9 O9            -1.6851     1.5932    -0.4304 O.2     
  10 N10            4.1749     0.5272     0.7110 N.pl3   
  11 C11            4.6405    -0.7628     0.9494 C.ar    
  12 C12            5.9499    -1.1006     0.6189 C.ar    
  13 C13           -1.6591     4.4134    -0.8153 C.ar    
  14 C14            0.1564     4.3743     0.7799 C.ar    
  15 C15            0.1069     5.7483     0.8638 C.ar    
  16 C16           -0.8198     6.4592     0.1109 C.ar    
  17 C17           -1.7026     5.7873    -0.7260 C.ar    
  18 C18            6.4133    -2.3750     0.8529 C.ar    
  19 C19            5.5672    -3.3311     1.4236 C.ar    
  20 C20            4.2526    -2.9882     1.7547 C.ar    
  21 C21            3.7973    -1.7105     1.5229 C.ar    
  22 O22           -0.8660     7.8133     0.1966 O.3     
  23 C23           -1.8427     8.4811    -0.6047 C.3     
  24 C24            6.0600    -4.6975     1.6752 C.2     
  25 O25            5.2435    -5.6176     2.2252 O.3     
  26 O26            7.2025    -4.9941     1.3866 O.2     
  27 C27            5.7960    -6.9424     2.4444 C.3     
  28 C28            4.7294    -7.8425     3.0712 C.3     
  29 H29           -1.2423    -0.4043    -0.1656 H       
  30 H30           -0.1726    -1.6817     0.0510 H       
  31 H31            4.7945     1.2735     0.7073 H       
  32 H32            6.6028    -0.3618     0.1782 H       
  33 H33           -2.3455     3.8918    -1.4658 H       
  34 H34            0.8764     3.8224     1.3659 H       
  35 H35            0.7889     6.2737     1.5160 H       
  36 H36           -2.4212     6.3432    -1.3100 H       
  37 H37            7.4290    -2.6367     0.5956 H       
  38 H38            3.5965    -3.7243     2.1953 H       
  39 H39            2.7821    -1.4450     1.7784 H       
  40 H40           -1.6623     8.2602    -1.6567 H       
  41 H41           -2.8385     8.1359    -0.3265 H       
  42 H42           -1.7724     9.5566    -0.4420 H       
  43 H43            6.1143    -7.3655     1.4916 H       
  44 H44            6.6524    -6.8725     3.1151 H       
  45 H45            4.4111    -7.4194     4.0240 H       
  46 H46            3.8730    -7.9124     2.4005 H       
  47 H47            5.1442    -8.8370     3.2357 H       
@<TRIPOS>BOND
   1    1    2 2
   2    1    3 1
   3    1    7 1
   4    2    6 1
   5    2    5 1
   6    3    4 1
   7    4    5 2
   8    4   10 1
   9    6   29 1
  10    6   30 1
  11    7    8 1
  12    7    9 2
  13    8   13 ar
  14    8   14 ar
  15   10   11 1
  16   10   31 1
  17   11   12 ar
  18   11   21 ar
  19   12   18 ar
  20   12   32 1
  21   13   17 ar
  22   13   33 1
  23   14   15 ar
  24   14   34 1
  25   15   16 ar
  26   15   35 1
  27   16   17 ar
  28   16   22 1
  29   17   36 1
  30   18   19 ar
  31   18   37 1
  32   19   20 ar
  33   19   24 1
  34   20   21 ar
  35   20   38 1
  36   21   39 1
  37   22   23 1
  38   23   40 1
  39   23   41 1
  40   23   42 1
  41   24   25 1
  42   24   26 2
  43   25   27 1
  44   27   28 1
  45   27   43 1
  46   27   44 1
  47   28   45 1
  48   28   46 1
  49   28   47 1

#	End of record

