#	Name: ASD07020004
#	Creating user name:	WinNT
#	Creation time:	15. 06. 2019 21:08

#	Modifying user name:	WinNT
#	Modification time:	15. 06. 2019 21:08

#	Program:	/corina/corina34_cracker 3.40 0067  02.08.2006

@<TRIPOS>MOLECULE
ASD07020004
  55   59    0    0    0
SMALL
NO_CHARGES


@<TRIPOS>ATOM
   1 C1            -0.0159     1.3248     0.0093 C.ar    
   2 N2             0.0021    -0.0041     0.0020 N.ar    
   3 C3             1.1495    -0.6626    -0.0125 C.ar    
   4 N4             2.3126    -0.0322    -0.0202 N.ar    
   5 C5             2.3704     1.2916    -0.0136 C.ar    
   6 C6             1.1964     2.0187     0.0015 C.ar    
   7 N7             1.1324    -2.0571    -0.0193 N.pl3   
   8 C8             2.2256    -2.8868    -0.0342 C.2     
   9 C9             1.7570    -4.1484    -0.0360 C.2     
  10 C10            0.0294    -2.8527    -0.0067 C.2     
  11 C11            3.7026     1.9960    -0.0226 C.3     
  12 N12           -1.2190     2.0116     0.0188 N.3     
  13 C13           -1.3415     2.8827    -1.1702 C.3     
  14 C14           -2.1170     4.1389    -0.7320 C.3     
  15 C15           -2.3942     3.9368     0.7755 C.3     
  16 C16           -1.3066     2.9158     1.1940 C.3     
  17 C17           -1.7366     2.1535     2.4207 C.2     
  18 O18           -1.9565     0.9629     2.3488 O.2     
  19 N19           -1.8767     2.7947     3.5979 N.am    
  20 C20           -2.2947     2.0536     4.7905 C.3     
  21 C21           -2.3758     3.0094     5.9825 C.3     
  22 C22           -2.8058     2.2470     7.2092 C.ar    
  23 C23           -1.8558     1.6706     8.0311 C.ar    
  24 C24           -2.2454     0.9697     9.1577 C.ar    
  25 C25           -3.5900     0.8438     9.4651 C.ar    
  26 C26           -4.5475     1.4251     8.6369 C.ar    
  27 C27           -4.1497     2.1305     7.5133 C.ar    
  28 O28           -4.2280     0.2163    10.4959 O.3     
  29 C29           -5.5593     0.7644    10.5146 C.3     
  30 O30           -5.7850     1.1617     9.1492 O.3     
  31 N31            0.4163    -4.0984    -0.0227 N.2     
  32 H32            1.2152     3.0985     0.0067 H       
  33 H33            3.2626    -2.5852    -0.0433 H       
  34 H34            2.3569    -5.0464    -0.0463 H       
  35 H35           -0.9948    -2.5106     0.0112 H       
  36 H36            4.0140     2.1714    -1.0523 H       
  37 H37            3.6128     2.9499     0.4973 H       
  38 H38            4.4447     1.3763     0.4809 H       
  39 H39           -0.3510     3.1639    -1.5281 H       
  40 H40           -1.8896     2.3633    -1.9562 H       
  41 H41           -1.5112     5.0314    -0.8889 H       
  42 H42           -3.0548     4.2156    -1.2821 H       
  43 H43           -2.2732     4.8739     1.3189 H       
  44 H44           -3.3910     3.5246     0.9325 H       
  45 H45           -0.3540     3.4171     1.3655 H       
  46 H46           -1.7008     3.7469     3.6554 H       
  47 H47           -3.2734     1.6065     4.6160 H       
  48 H48           -1.5693     1.2683     5.0031 H       
  49 H49           -1.3972     3.4564     6.1570 H       
  50 H50           -3.1013     3.7946     5.7698 H       
  51 H51           -0.8069     1.7675     7.7927 H       
  52 H52           -1.5009     0.5201     9.7979 H       
  53 H53           -4.8897     2.5860     6.8719 H       
  54 H54           -6.2814     0.0061    10.8172 H       
  55 H55           -5.6086     1.6280    11.1779 H       
@<TRIPOS>BOND
   1    1    2 ar
   2    1    6 ar
   3    1   12 1
   4    2    3 ar
   5    3    4 ar
   6    3    7 1
   7    4    5 ar
   8    5    6 ar
   9    5   11 1
  10    6   32 1
  11    7    8 1
  12    7   10 1
  13    8    9 2
  14    8   33 1
  15    9   31 1
  16    9   34 1
  17   10   31 2
  18   10   35 1
  19   11   36 1
  20   11   37 1
  21   11   38 1
  22   12   13 1
  23   12   16 1
  24   13   14 1
  25   13   39 1
  26   13   40 1
  27   14   15 1
  28   14   41 1
  29   14   42 1
  30   15   16 1
  31   15   43 1
  32   15   44 1
  33   16   17 1
  34   16   45 1
  35   17   18 2
  36   17   19 am
  37   19   20 1
  38   19   46 1
  39   20   21 1
  40   20   47 1
  41   20   48 1
  42   21   22 1
  43   21   49 1
  44   21   50 1
  45   22   23 ar
  46   22   27 ar
  47   23   24 ar
  48   23   51 1
  49   24   25 ar
  50   24   52 1
  51   25   26 ar
  52   25   28 1
  53   26   27 ar
  54   26   30 1
  55   27   53 1
  56   28   29 1
  57   29   30 1
  58   29   54 1
  59   29   55 1

#	End of record

