#	Name: ASD00731048
#	Creating user name:	WinNT
#	Creation time:	15. 06. 2019 18:37

#	Modifying user name:	WinNT
#	Modification time:	15. 06. 2019 18:37

#	Program:	/corina/corina34_cracker 3.40 0067  02.08.2006

@<TRIPOS>MOLECULE
ASD00731048
 232  234    0    0    0
SMALL
NO_CHARGES


@<TRIPOS>ATOM
   1 C1            -1.2452     0.1140    -0.3484 C.2     
   2 O2            -1.6360    -1.0080    -0.5917 O.2     
   3 N3             0.9866    -0.8102    -0.5806 N.am    
   4 C4             0.2261     0.4317    -0.4203 C.3     
   5 C5             0.4918     1.3502    -1.6148 C.3     
   6 C6             1.9830     1.6869    -1.6775 C.3     
   7 O7             0.1016     0.6891    -2.8201 O.3     
   8 C8            -4.2502     1.9036    -0.8569 C.2     
   9 O9            -3.6005     2.8209    -1.3122 O.2     
  10 N10           -2.1275     1.0782    -0.0192 N.am    
  11 C11           -3.5659     0.8074    -0.0817 C.3     
  12 C12           -4.1368     0.7529     1.3367 C.3     
  13 C13           -3.5115    -0.3954     2.0861 C.2     
  14 O14           -2.6631    -1.0726     1.5555 O.2     
  15 O15           -3.8970    -0.6658     3.3431 O.3     
  16 C16           -7.6924     3.0215    -1.3719 C.2     
  17 O17           -8.1225     2.2701    -0.5226 O.2     
  18 N18           -5.5844     1.8648    -1.0441 N.am    
  19 C19           -6.2497     2.9305    -1.7977 C.3     
  20 C20           -6.1782     2.6183    -3.2938 C.3     
  21 C21           -4.7188     2.6490    -3.7520 C.3     
  22 C22           -4.6473     2.3368    -5.2481 C.3     
  23 N23           -3.2499     2.3662    -5.6869 N.pl3   
  24 C24           -2.9367     2.1138    -7.0016 C.2     
  25 N25           -1.6934     2.1399    -7.3920 N.2     
  26 N26           -3.9350     1.8339    -7.9045 N.pl3   
  27 C27          -10.7172     4.7493    -2.5137 C.2     
  28 O28          -10.1879     5.3912    -3.3962 O.2     
  29 N29           -8.5047     3.9378    -1.9348 N.am    
  30 C30           -9.8757     4.1009    -1.4449 C.3     
  31 C31           -9.8692     4.9837    -0.1953 C.3     
  32 C32          -11.2811     5.0490     0.3903 C.3     
  33 C33          -11.6813     3.6674     0.9119 C.3     
  34 C34          -11.3097     6.0566     1.5413 C.3     
  35 C35          -14.2606     5.4383    -3.0910 C.2     
  36 O36          -14.5488     5.2214    -1.9330 O.2     
  37 N37          -12.0582     4.6160    -2.4889 N.am    
  38 C38          -12.8676     5.1485    -3.5878 C.3     
  39 C39          -12.9331     4.1195    -4.7181 C.3     
  40 C40          -11.5350     3.9180    -5.3060 C.3     
  41 C41          -11.6005     2.8890    -6.4364 C.3     
  42 N42          -10.2618     2.6961    -6.9993 N.pl3   
  43 C43          -10.0723     1.8116    -8.0347 C.2     
  44 N44           -8.8812     1.6400    -8.5355 N.2     
  45 N45          -11.1391     1.1082    -8.5418 N.pl3   
  46 C46          -17.5065     6.1680    -4.6057 C.2     
  47 O47          -17.1038     5.9200    -5.7225 O.2     
  48 N48          -15.1861     5.9384    -3.9334 N.am    
  49 C49          -16.5402     6.2201    -3.4505 C.3     
  50 C50          -16.5765     7.6126    -2.8176 C.3     
  51 C51          -20.9637     7.1933    -5.2055 C.2     
  52 O52          -21.0318     7.7813    -4.1470 O.2     
  53 N53          -18.8183     6.3970    -4.3978 N.am    
  54 C54          -19.7577     6.3464    -5.5208 C.3     
  55 C55          -20.1973     4.8994    -5.7532 C.3     
  56 C56          -19.0112     4.0778    -6.1882 C.2     
  57 C57          -18.6542     3.7975    -7.4515 C.2     
  58 N58          -17.5236     3.0268    -7.4567 N.pl3   
  59 C59          -17.1150     2.7862    -6.1640 C.ar    
  60 C60          -16.0524     2.0791    -5.6115 C.ar    
  61 C61          -15.9072     2.0210    -4.2425 C.ar    
  62 C62          -16.8114     2.6618    -3.4070 C.ar    
  63 C63          -17.8629     3.3618    -3.9285 C.ar    
  64 C64          -18.0256     3.4389    -5.3128 C.ar    
  65 C65          -24.3222     7.6236    -6.5834 C.2     
  66 O66          -24.1983     6.6752    -7.3290 O.2     
  67 N67          -21.9666     7.2973    -6.0999 N.am    
  68 C68          -23.1390     8.1206    -5.7934 C.3     
  69 C69          -22.8516     9.5763    -6.1666 C.3     
  70 C70          -21.7317    10.1194    -5.2767 C.3     
  71 S71          -21.3910    11.8453    -5.7191 S.3     
  72 C72          -20.0596    12.3044    -4.5758 C.3     
  73 C73          -27.6545     8.8740    -7.4173 C.2     
  74 O74          -27.4197     9.9705    -6.9552 O.2     
  75 N75          -25.5180     8.2332    -6.4613 N.am    
  76 C76          -26.6682     7.7502    -7.2293 C.3     
  77 C77          -27.3407     6.6026    -6.4731 C.3     
  78 C78          -26.3952     5.4319    -6.3924 C.ar    
  79 C79          -25.5250     5.3186    -5.3243 C.ar    
  80 C80          -24.6576     4.2448    -5.2503 C.ar    
  81 C81          -24.6607     3.2841    -6.2442 C.ar    
  82 C82          -25.5315     3.3969    -7.3119 C.ar    
  83 C83          -26.4019     4.4684    -7.3836 C.ar    
  84 C84          -30.6592     9.8356    -7.0779 C.2     
  85 O85          -30.5164     9.0613    -6.1614 O.2     
  86 N86          -28.7975     8.6606    -8.0988 N.am    
  87 C87          -29.7562     9.7531    -8.2816 C.3     
  88 C88          -30.5968     9.4900    -9.5326 C.3     
  89 C89          -31.5112    10.6885    -9.7940 C.3     
  90 C90          -32.2605    10.4806   -11.1116 C.3     
  91 C91          -31.4476     8.2360    -9.3210 C.3     
  92 O92          -31.6220    10.7694    -7.0239 O.3     
  93 C93            2.2710    -0.8708    -0.1767 C.2     
  94 O94            2.7972     0.1027     0.3195 O.2     
  95 C95           18.5507    -9.8361     2.2279 C.3     
  96 C96           17.7565    -8.5391     2.3953 C.3     
  97 C97           16.3368    -8.7378     1.8608 C.3     
  98 C98           15.5426    -7.4408     2.0283 C.3     
  99 C99           14.1228    -7.6396     1.4937 C.3     
 100 C100          13.3287    -6.3426     1.6612 C.3     
 101 C101          11.9089    -6.5413     1.1267 C.3     
 102 C102          11.1147    -5.2443     1.2941 C.3     
 103 C103           9.6950    -5.4431     0.7596 C.3     
 104 C104           8.9008    -4.1461     0.9270 C.3     
 105 C105           7.4811    -4.3448     0.3925 C.3     
 106 C106           6.6869    -3.0478     0.5599 C.3     
 107 C107           5.2671    -3.2465     0.0254 C.3     
 108 C108           4.4729    -1.9496     0.1929 C.3     
 109 C109           3.0532    -2.1483    -0.3416 C.3     
 110 H110           0.5657    -1.5888    -0.9775 H       
 111 H111           0.5353     0.9311     0.4979 H       
 112 H112          -0.0837     2.2690    -1.5017 H       
 113 H113           2.5509     0.7823    -1.8947 H       
 114 H114           2.1567     2.4224    -2.4630 H       
 115 H115           2.3037     2.0959    -0.7194 H       
 116 H116          -0.8337     0.4454    -2.8500 H       
 117 H117          -1.8101     1.9515     0.2592 H       
 118 H118          -3.7344    -0.1483    -0.5782 H       
 119 H119          -3.9162     1.6870     1.8533 H       
 120 H120          -5.2164     0.6104     1.2887 H       
 121 H121          -3.4674    -1.4121     3.7831 H       
 122 H122          -6.1041     1.1311    -0.6800 H       
 123 H123          -5.7521     3.8800    -1.6005 H       
 124 H124          -6.5964     1.6289    -3.4789 H       
 125 H125          -6.7488     3.3635    -3.8481 H       
 126 H126          -4.3005     3.6384    -3.5669 H       
 127 H127          -4.1482     1.9038    -3.1977 H       
 128 H128          -5.0655     1.3474    -5.4332 H       
 129 H129          -5.2179     3.0820    -5.8024 H       
 130 H130          -2.5455     2.5636    -5.0499 H       
 131 H131          -1.4724     1.9619    -8.3195 H       
 132 H132          -4.8602     1.8145    -7.6140 H       
 133 H133          -3.7140     1.6559    -8.8321 H       
 134 H134          -8.1815     4.4894    -2.6644 H       
 135 H135         -10.2917     3.1242    -1.1976 H       
 136 H136          -9.1883     4.5619     0.5440 H       
 137 H137          -9.5395     5.9879    -0.4617 H       
 138 H138         -11.9815     5.3619    -0.3840 H       
 139 H139         -12.7134     3.6959     1.2611 H       
 140 H140         -11.5893     2.9355     0.1095 H       
 141 H141         -11.0263     3.3867     1.7366 H       
 142 H142         -11.0246     7.0408     1.1698 H       
 143 H143         -12.3156     6.1031     1.9586 H       
 144 H144         -10.6093     5.7436     2.3157 H       
 145 H145         -12.4873     4.1675    -1.7435 H       
 146 H146         -12.4158     6.0682    -3.9594 H       
 147 H147         -13.3023     3.1719    -4.3259 H       
 148 H148         -13.6066     4.4774    -5.4968 H       
 149 H149         -11.1658     4.8656    -5.6983 H       
 150 H150         -10.8615     3.5600    -4.5273 H       
 151 H151         -11.9697     1.9414    -6.0441 H       
 152 H152         -12.2739     3.2470    -7.2151 H       
 153 H153          -9.5090     3.1924    -6.6415 H       
 154 H154          -8.7476     1.0160    -9.2660 H       
 155 H155         -12.0255     1.2359    -8.1691 H       
 156 H156         -11.0055     0.4842    -9.2723 H       
 157 H157         -14.9556     6.1119    -4.8596 H       
 158 H158         -16.8228     5.4754    -2.7065 H       
 159 H159         -16.2939     8.3574    -3.5616 H       
 160 H160         -17.5840     7.8222    -2.4582 H       
 161 H161         -15.8776     7.6503    -1.9820 H       
 162 H162         -19.1404     6.5954    -3.5046 H       
 163 H163         -19.2712     6.7270    -6.4189 H       
 164 H164         -20.6032     4.4900    -4.8281 H       
 165 H165         -20.9623     4.8722    -6.5291 H       
 166 H166         -19.1815     4.1306    -8.3331 H       
 167 H167         -17.0765     2.6988    -8.2526 H       
 168 H168         -15.3438     1.5768    -6.2533 H       
 169 H169         -15.0816     1.4711    -3.8154 H       
 170 H170         -16.6832     2.6065    -2.3360 H       
 171 H171         -18.5627     3.8575    -3.2721 H       
 172 H172         -21.9121     6.8270    -6.9465 H       
 173 H173         -23.3602     8.0555    -4.7280 H       
 174 H174         -22.5440     9.6297    -7.2109 H       
 175 H175         -23.7522    10.1730    -6.0221 H       
 176 H176         -22.0393    10.0659    -4.2323 H       
 177 H177         -20.8311     9.5226    -5.4212 H       
 178 H178         -19.7690    13.3398    -4.7536 H       
 179 H179         -20.4090    12.1963    -3.5490 H       
 180 H180         -19.2008    11.6530    -4.7379 H       
 181 H181         -25.6170     8.9918    -5.8649 H       
 182 H182         -26.3316     7.3954    -8.2034 H       
 183 H183         -27.5977     6.9321    -5.4664 H       
 184 H184         -28.2467     6.3023    -6.9995 H       
 185 H185         -25.5226     6.0693    -4.5478 H       
 186 H186         -23.9773     4.1567    -4.4162 H       
 187 H187         -23.9826     2.4455    -6.1868 H       
 188 H188         -25.5337     2.6464    -8.0886 H       
 189 H189         -27.0848     4.5546    -8.2159 H       
 190 H190         -28.9852     7.7836    -8.4684 H       
 191 H191         -29.2176    10.6937    -8.3970 H       
 192 H192         -29.9382     9.3420   -10.3884 H       
 193 H193         -32.2288    10.7826    -8.9789 H       
 194 H194         -30.9113    11.5964    -9.8565 H       
 195 H195         -32.8604     9.5727   -11.0491 H       
 196 H196         -32.9119    11.3344   -11.2978 H       
 197 H197         -31.5429    10.3865   -11.9267 H       
 198 H198         -32.1062     8.3840    -8.4652 H       
 199 H199         -32.0464     8.0486   -10.2122 H       
 200 H200         -30.7961     7.3822    -9.1348 H       
 201 H201         -32.1761    10.7832    -6.2315 H       
 202 H202          19.5622    -9.6945     2.6087 H       
 203 H203          18.0617   -10.6359     2.7840 H       
 204 H204          18.5940   -10.1018     1.1717 H       
 205 H205          17.7132    -8.2734     3.4516 H       
 206 H206          18.2455    -7.7393     1.8392 H       
 207 H207          16.3801    -9.0036     0.8046 H       
 208 H208          15.8478    -9.5376     2.4170 H       
 209 H209          15.4993    -7.1751     3.0845 H       
 210 H210          16.0316    -6.6410     1.4721 H       
 211 H211          14.1661    -7.9053     0.4375 H       
 212 H212          13.6339    -8.4394     2.0499 H       
 213 H213          13.2854    -6.0768     2.7174 H       
 214 H214          13.8176    -5.5428     1.1050 H       
 215 H215          11.9522    -6.8071     0.0704 H       
 216 H216          11.4199    -7.3411     1.6828 H       
 217 H217          11.0714    -4.9786     2.3503 H       
 218 H218          11.6037    -4.4445     0.7380 H       
 219 H219           9.7383    -5.7088    -0.2966 H       
 220 H220           9.2060    -6.2429     1.3157 H       
 221 H221           8.8575    -3.8803     1.9832 H       
 222 H222           9.3898    -3.3463     0.3709 H       
 223 H223           7.5244    -4.6105    -0.6637 H       
 224 H224           6.9921    -5.1446     0.9486 H       
 225 H225           6.6436    -2.7821     1.6162 H       
 226 H226           7.1759    -2.2480     0.0038 H       
 227 H227           5.3104    -3.5123    -1.0308 H       
 228 H228           4.7781    -4.0464     0.5816 H       
 229 H229           4.4296    -1.6838     1.2491 H       
 230 H230           4.9619    -1.1497    -0.3633 H       
 231 H231           2.5642    -2.9481     0.2145 H       
 232 H232           3.0965    -2.4140    -1.3979 H       
@<TRIPOS>BOND
   1    1    2 2
   2    1    4 1
   3    1   10 am
   4    3   93 am
   5    3    4 1
   6    3  110 1
   7    4    5 1
   8    4  111 1
   9    5    6 1
  10    5    7 1
  11    5  112 1
  12    6  113 1
  13    6  114 1
  14    6  115 1
  15    7  116 1
  16    8    9 2
  17    8   11 1
  18    8   18 am
  19   10   11 1
  20   10  117 1
  21   11   12 1
  22   11  118 1
  23   12   13 1
  24   12  119 1
  25   12  120 1
  26   13   14 2
  27   13   15 1
  28   15  121 1
  29   16   17 2
  30   16   19 1
  31   16   29 am
  32   18   19 1
  33   18  122 1
  34   19   20 1
  35   19  123 1
  36   20   21 1
  37   20  124 1
  38   20  125 1
  39   21   22 1
  40   21  126 1
  41   21  127 1
  42   22   23 1
  43   22  128 1
  44   22  129 1
  45   23   24 1
  46   23  130 1
  47   24   25 2
  48   24   26 1
  49   25  131 1
  50   26  132 1
  51   26  133 1
  52   27   28 2
  53   27   30 1
  54   27   37 am
  55   29   30 1
  56   29  134 1
  57   30   31 1
  58   30  135 1
  59   31   32 1
  60   31  136 1
  61   31  137 1
  62   32   33 1
  63   32   34 1
  64   32  138 1
  65   33  139 1
  66   33  140 1
  67   33  141 1
  68   34  142 1
  69   34  143 1
  70   34  144 1
  71   35   36 2
  72   35   38 1
  73   35   48 am
  74   37   38 1
  75   37  145 1
  76   38   39 1
  77   38  146 1
  78   39   40 1
  79   39  147 1
  80   39  148 1
  81   40   41 1
  82   40  149 1
  83   40  150 1
  84   41   42 1
  85   41  151 1
  86   41  152 1
  87   42   43 1
  88   42  153 1
  89   43   44 2
  90   43   45 1
  91   44  154 1
  92   45  155 1
  93   45  156 1
  94   46   47 2
  95   46   49 1
  96   46   53 am
  97   48   49 1
  98   48  157 1
  99   49   50 1
 100   49  158 1
 101   50  159 1
 102   50  160 1
 103   50  161 1
 104   51   52 2
 105   51   54 1
 106   51   67 am
 107   53   54 1
 108   53  162 1
 109   54   55 1
 110   54  163 1
 111   55   56 1
 112   55  164 1
 113   55  165 1
 114   56   57 2
 115   56   64 1
 116   57   58 1
 117   57  166 1
 118   58   59 1
 119   58  167 1
 120   59   60 ar
 121   59   64 ar
 122   60   61 ar
 123   60  168 1
 124   61   62 ar
 125   61  169 1
 126   62   63 ar
 127   62  170 1
 128   63   64 ar
 129   63  171 1
 130   65   66 2
 131   65   68 1
 132   65   75 am
 133   67   68 1
 134   67  172 1
 135   68   69 1
 136   68  173 1
 137   69   70 1
 138   69  174 1
 139   69  175 1
 140   70   71 1
 141   70  176 1
 142   70  177 1
 143   71   72 1
 144   72  178 1
 145   72  179 1
 146   72  180 1
 147   73   74 2
 148   73   76 1
 149   73   86 am
 150   75   76 1
 151   75  181 1
 152   76   77 1
 153   76  182 1
 154   77   78 1
 155   77  183 1
 156   77  184 1
 157   78   79 ar
 158   78   83 ar
 159   79   80 ar
 160   79  185 1
 161   80   81 ar
 162   80  186 1
 163   81   82 ar
 164   81  187 1
 165   82   83 ar
 166   82  188 1
 167   83  189 1
 168   84   85 2
 169   84   87 1
 170   84   92 1
 171   86   87 1
 172   86  190 1
 173   87   88 1
 174   87  191 1
 175   88   89 1
 176   88   91 1
 177   88  192 1
 178   89   90 1
 179   89  193 1
 180   89  194 1
 181   90  195 1
 182   90  196 1
 183   90  197 1
 184   91  198 1
 185   91  199 1
 186   91  200 1
 187   92  201 1
 188   93   94 2
 189   93  109 1
 190   95   96 1
 191   95  202 1
 192   95  203 1
 193   95  204 1
 194   96   97 1
 195   96  205 1
 196   96  206 1
 197   97   98 1
 198   97  207 1
 199   97  208 1
 200   98   99 1
 201   98  209 1
 202   98  210 1
 203   99  100 1
 204   99  211 1
 205   99  212 1
 206  100  101 1
 207  100  213 1
 208  100  214 1
 209  101  102 1
 210  101  215 1
 211  101  216 1
 212  102  103 1
 213  102  217 1
 214  102  218 1
 215  103  104 1
 216  103  219 1
 217  103  220 1
 218  104  105 1
 219  104  221 1
 220  104  222 1
 221  105  106 1
 222  105  223 1
 223  105  224 1
 224  106  107 1
 225  106  225 1
 226  106  226 1
 227  107  108 1
 228  107  227 1
 229  107  228 1
 230  108  109 1
 231  108  229 1
 232  108  230 1
 233  109  231 1
 234  109  232 1

#	End of record

