#	Name: ASD01730022
#	Creating user name:	WinNT
#	Creation time:	15. 06. 2019 19:23

#	Modifying user name:	WinNT
#	Modification time:	15. 06. 2019 19:23

#	Program:	/corina/corina34_cracker 3.40 0067  02.08.2006

@<TRIPOS>MOLECULE
ASD01730022
  31   32    0    0    0
SMALL
NO_CHARGES


@<TRIPOS>ATOM
   1 N1             1.2018    -0.6778     0.0116 N.pl3   
   2 C2             0.0030    -0.0047     0.0059 C.2     
   3 N3            -1.1799    -0.7048    -0.0943 N.pl3   
   4 N4            -0.0148     1.2951     0.0951 N.2     
   5 S5            -2.5828    -3.0678    -0.5774 S.3     
   6 C6            -1.1588    -2.0722    -0.3101 C.2     
   7 N7            -0.0935    -2.7945    -0.3442 N.2     
   8 C8            -0.2348    -4.1177    -0.5661 C.ar    
   9 C9            -1.5694    -4.5013    -0.7289 C.ar    
  10 C10            0.7647    -5.1097    -0.6482 C.ar    
  11 C11            0.4289    -6.4190    -0.8831 C.ar    
  12 C12           -0.9022    -6.7897    -1.0437 C.ar    
  13 C13           -1.8967    -5.8337    -0.9669 C.ar    
  14 O14           -1.2240    -8.0902    -1.2767 O.3     
  15 C15           -0.1440    -9.0236    -1.3444 C.3     
  16 F16            0.5521    -9.0202    -0.1309 F       
  17 F17           -0.6497   -10.3050    -1.5884 F       
  18 F18            0.7229    -8.6594    -2.3803 F       
  19 C19            2.4616     0.0696    -0.0110 C.3     
  20 C20            3.6364    -0.9105     0.0010 C.3     
  21 H21            1.2135    -1.6474     0.0347 H       
  22 H22           -2.0272    -0.2395    -0.0136 H       
  23 H23           -0.8543     1.7750     0.0182 H       
  24 H24            1.8023    -4.8364    -0.5256 H       
  25 H25            1.2045    -7.1681    -0.9443 H       
  26 H26           -2.9305    -6.1205    -1.0914 H       
  27 H27            2.5062     0.6793    -0.9134 H       
  28 H28            2.5174     0.7143     0.8662 H       
  29 H29            3.5918    -1.5202     0.9034 H       
  30 H30            3.5806    -1.5552    -0.8762 H       
  31 H31            4.5737    -0.3544    -0.0158 H       
@<TRIPOS>BOND
   1    1    2 1
   2    1   19 1
   3    1   21 1
   4    2    3 1
   5    2    4 2
   6    3    6 1
   7    3   22 1
   8    4   23 1
   9    5    6 1
  10    5    9 1
  11    6    7 2
  12    7    8 1
  13    8    9 ar
  14    8   10 ar
  15    9   13 ar
  16   10   11 ar
  17   10   24 1
  18   11   12 ar
  19   11   25 1
  20   12   13 ar
  21   12   14 1
  22   13   26 1
  23   14   15 1
  24   15   16 1
  25   15   17 1
  26   15   18 1
  27   19   20 1
  28   19   27 1
  29   19   28 1
  30   20   29 1
  31   20   30 1
  32   20   31 1

#	End of record

