#	Name: ASD01231341
#	Creating user name:	WinNT
#	Creation time:	15. 06. 2019 19:15

#	Modifying user name:	WinNT
#	Modification time:	15. 06. 2019 19:15

#	Program:	/corina/corina34_cracker 3.40 0067  02.08.2006

@<TRIPOS>MOLECULE
ASD01231341
  45   48    0    0    0
SMALL
NO_CHARGES


@<TRIPOS>ATOM
   1 C1             0.7606    -0.6607    -0.2107 C.3     
   2 C2             0.6325    -1.8553     0.7366 C.3     
   3 C3             1.6277    -2.9419     0.3245 C.3     
   4 S4             0.9877    -1.3221     2.4337 S.o2    
   5 O5             0.6193    -2.3334     3.3615 O.2     
   6 O6             2.2599    -0.6928     2.5027 O.2     
   7 N7            -0.0899    -0.0968     2.7159 N.am    
   8 C8            -1.5270    -0.3791     2.7523 C.3     
   9 C9            -1.9918    -0.6048     4.2067 C.3     
  10 C10           -2.4401     0.8088     4.6344 C.3     
  11 C11           -2.8354     1.5048     3.3495 C.ar    
  12 C12           -3.5932     2.6447     3.1447 C.ar    
  13 C13           -3.8277     3.1034     1.8577 C.ar    
  14 C14           -3.2999     2.4164     0.7736 C.ar    
  15 C15           -2.5445     1.2805     0.9812 C.ar    
  16 C16           -2.3107     0.8221     2.2677 C.ar    
  17 O17           -4.5726     4.2223     1.6584 O.3     
  18 O18           -7.6325     6.4006     5.8954 O.3     
  19 N19           -6.5092     6.8566     5.9755 N.2     
  20 C20           -5.7793     6.3686     5.0060 C.ar    
  21 C21           -6.7318     5.4831     4.2884 C.ar    
  22 N22           -7.8355     5.6271     4.9808 N.2     
  23 C23           -6.2766     4.7772     3.1614 C.ar    
  24 C24           -4.9876     4.9147     2.7502 C.ar    
  25 C25           -4.0689     5.7464     3.4132 C.ar    
  26 C26           -4.4175     6.4652     4.5089 C.ar    
  27 H27            1.7743    -0.2633    -0.1593 H       
  28 H28            0.5472    -0.9810    -1.2304 H       
  29 H29            0.0516     0.1135     0.0829 H       
  30 H30           -0.3812    -2.2527     0.6852 H       
  31 H31            2.6414    -2.5446     0.3759 H       
  32 H32            1.5364    -3.7930     0.9994 H       
  33 H33            1.4142    -3.2623    -0.6952 H       
  34 H34            0.2304     0.8078     2.8572 H       
  35 H35           -1.7558    -1.2529     2.1423 H       
  36 H36           -2.8275    -1.3036     4.2423 H       
  37 H37           -1.1666    -0.9539     4.8274 H       
  38 H38           -3.2939     0.7468     5.3092 H       
  39 H39           -1.6163     1.3381     5.1132 H       
  40 H40           -4.0031     3.1780     3.9897 H       
  41 H41           -3.4804     2.7700    -0.2308 H       
  42 H42           -2.1343     0.7459     0.1372 H       
  43 H43           -6.9496     4.1267     2.6226 H       
  44 H44           -3.0577     5.8146     3.0400 H       
  45 H45           -3.6957     7.0986     5.0030 H       
@<TRIPOS>BOND
   1    1    2 1
   2    1   27 1
   3    1   28 1
   4    1   29 1
   5    2    3 1
   6    2    4 1
   7    2   30 1
   8    3   31 1
   9    3   32 1
  10    3   33 1
  11    4    5 2
  12    4    6 2
  13    4    7 am
  14    7    8 1
  15    7   34 1
  16    8    9 1
  17    8   16 1
  18    8   35 1
  19    9   10 1
  20    9   36 1
  21    9   37 1
  22   10   11 1
  23   10   38 1
  24   10   39 1
  25   11   12 ar
  26   11   16 ar
  27   12   13 ar
  28   12   40 1
  29   13   14 ar
  30   13   17 1
  31   14   15 ar
  32   14   41 1
  33   15   16 ar
  34   15   42 1
  35   17   24 1
  36   18   19 1
  37   18   22 1
  38   19   20 2
  39   20   21 ar
  40   20   26 ar
  41   21   22 2
  42   21   23 ar
  43   23   24 ar
  44   23   43 1
  45   24   25 ar
  46   25   26 ar
  47   25   44 1
  48   26   45 1

#	End of record

