#	Name: ASD05490062
#	Creating user name:	WinNT
#	Creation time:	15. 06. 2019 21:01

#	Modifying user name:	WinNT
#	Modification time:	15. 06. 2019 21:01

#	Program:	/corina/corina34_cracker 3.40 0067  02.08.2006

@<TRIPOS>MOLECULE
ASD05490062
  71   75    0    0    0
SMALL
NO_CHARGES


@<TRIPOS>ATOM
   1 N1             0.3825     2.0346     0.3303 N.pl3   
   2 O2             4.9049     3.5958     0.6584 O.3     
   3 N3             3.0962     5.0290     0.6664 N.ar    
   4 C4             1.7905     5.2723     0.6180 C.ar    
   5 C5             3.5648     3.7913     0.6056 C.ar    
   6 N6             2.7707     2.7406     0.4958 N.ar    
   7 C7             1.4515     2.8925     0.4410 C.ar    
   8 C8             0.9089     4.1858     0.5012 C.ar    
   9 N9             1.3097     6.5697     0.6820 N.pl3   
  10 C10           -0.7535     2.7948     0.3199 C.2     
  11 N11           -0.4414     4.0595     0.4257 N.2     
  12 C12            5.7260     4.7593     0.7779 C.3     
  13 C13            7.1975     4.3426     0.8222 C.3     
  14 O14            7.5623     3.7489    -0.4254 O.3     
  15 C15            8.9246     3.3221    -0.4897 C.3     
  16 C16            0.4492     0.5742     0.2345 C.3     
  17 C17            0.4025    -0.0225     1.6176 C.ar    
  18 C18           -0.8156    -0.3460     2.1876 C.ar    
  19 C19           -0.8642    -0.8928     3.4540 C.ar    
  20 C20            0.3166    -1.1192     4.1581 C.ar    
  21 C21            1.5409    -0.7919     3.5788 C.ar    
  22 C22            1.5781    -0.2501     2.3099 C.ar    
  23 C23            0.2706    -1.7064     5.5201 C.ar    
  24 C24            1.4514    -1.9328     6.2242 C.ar    
  25 C25           -0.9541    -2.0280     6.1018 C.ar    
  26 C26           -0.9911    -2.5739     7.3689 C.ar    
  27 C27            0.1846    -2.8014     8.0613 C.ar    
  28 C28            1.4027    -2.4792     7.4907 C.ar    
  29 C29            0.8242    -5.5806     8.6309 C.3     
  30 C30            1.2668    -6.8809     9.3271 C.3     
  31 N31            1.1387    -4.4668     9.5517 N.3     
  32 C32            1.1434    -5.0571    10.9147 C.3     
  33 C33            1.8173    -6.4359    10.7015 C.3     
  34 C34            0.1377    -3.3969     9.4449 C.3     
  35 C35            0.4406    -2.3101    10.4783 C.3     
  36 O36           -2.0136     2.3097     0.2233 O.3     
  37 C37           -3.0785     3.2624     0.2396 C.3     
  38 H38            1.9281     7.3126     0.7630 H       
  39 H39            0.3547     6.7354     0.6458 H       
  40 H40            5.5588     5.4116    -0.0792 H       
  41 H41            5.4713     5.2912     1.6945 H       
  42 H42            7.8184     5.2202     1.0023 H       
  43 H43            7.3468     3.6210     1.6254 H       
  44 H44            9.5812     4.1786    -0.3369 H       
  45 H45            9.1096     2.5793     0.2862 H       
  46 H46            9.1219     2.8829    -1.4676 H       
  47 H47           -0.3970     0.2092    -0.3475 H       
  48 H48            1.3790     0.2843    -0.2550 H       
  49 H49           -1.7302    -0.1700     1.6410 H       
  50 H50           -1.8159    -1.1443     3.8984 H       
  51 H51            2.4591    -0.9653     4.1202 H       
  52 H52            2.5265     0.0037     1.8598 H       
  53 H53            2.4031    -1.6816     5.7796 H       
  54 H54           -1.8726    -1.8500     5.5624 H       
  55 H55           -1.9397    -2.8236     7.8208 H       
  56 H56            2.3176    -2.6590     8.0357 H       
  57 H57            1.3707    -5.4553     7.6962 H       
  58 H58           -0.2479    -5.6100     8.4362 H       
  59 H59            0.4151    -7.5483     9.4589 H       
  60 H60            2.0481    -7.3731     8.7480 H       
  61 H61            1.7306    -4.4434    11.5977 H       
  62 H62            0.1254    -5.1796    11.2844 H       
  63 H63            1.5187    -7.1360    11.4817 H       
  64 H64            2.9020    -6.3339    10.6678 H       
  65 H65           -0.8547    -3.8079     9.6301 H       
  66 H66           -0.2383    -1.4700    10.3318 H       
  67 H67            0.3065    -2.7150    11.4814 H       
  68 H68            1.4695    -1.9709    10.3580 H       
  69 H69           -3.0511     3.8221     1.1745 H       
  70 H70           -2.9641     3.9496    -0.5988 H       
  71 H71           -4.0327     2.7423     0.1554 H       
@<TRIPOS>BOND
   1    1   16 1
   2    1    7 1
   3    1   10 1
   4    2   12 1
   5    2    5 1
   6    3    4 ar
   7    3    5 ar
   8    4    9 1
   9    4    8 ar
  10    5    6 ar
  11    6    7 ar
  12    7    8 ar
  13    8   11 1
  14    9   38 1
  15    9   39 1
  16   10   11 2
  17   10   36 1
  18   12   13 1
  19   12   40 1
  20   12   41 1
  21   13   14 1
  22   13   42 1
  23   13   43 1
  24   14   15 1
  25   15   44 1
  26   15   45 1
  27   15   46 1
  28   16   17 1
  29   16   47 1
  30   16   48 1
  31   17   18 ar
  32   17   22 ar
  33   18   19 ar
  34   18   49 1
  35   19   20 ar
  36   19   50 1
  37   20   21 ar
  38   20   23 1
  39   21   22 ar
  40   21   51 1
  41   22   52 1
  42   23   24 ar
  43   23   25 ar
  44   24   28 ar
  45   24   53 1
  46   25   26 ar
  47   25   54 1
  48   26   27 ar
  49   26   55 1
  50   27   28 ar
  51   27   34 1
  52   28   56 1
  53   29   30 1
  54   29   31 1
  55   29   57 1
  56   29   58 1
  57   30   33 1
  58   30   59 1
  59   30   60 1
  60   31   32 1
  61   31   34 1
  62   32   33 1
  63   32   61 1
  64   32   62 1
  65   33   63 1
  66   33   64 1
  67   34   35 1
  68   34   65 1
  69   35   66 1
  70   35   67 1
  71   35   68 1
  72   36   37 1
  73   37   69 1
  74   37   70 1
  75   37   71 1

#	End of record

