#	Name: ASD03430832
#	Creating user name:	WinNT
#	Creation time:	15. 06. 2019 20:41

#	Modifying user name:	WinNT
#	Modification time:	15. 06. 2019 20:41

#	Program:	/corina/corina34_cracker 3.40 0067  02.08.2006

@<TRIPOS>MOLECULE
ASD03430832
  67   72    0    0    0
SMALL
NO_CHARGES


@<TRIPOS>ATOM
   1 C1            -0.0166     1.3731     0.0096 C.ar    
   2 C2             0.0021    -0.0041     0.0020 C.ar    
   3 C3             1.2042    -0.6801    -0.0037 C.ar    
   4 C4             2.4064     0.0226     0.0069 C.ar    
   5 C5             2.3789     1.4121     0.0039 C.ar    
   6 C6             1.1699     2.0972     0.0022 C.ar    
   7 O7             3.4725    -0.8269     0.0325 O.3     
   8 C8             1.5601    -2.1417    -0.0330 C.3     
   9 C9             3.0504    -2.1336    -0.4017 C.3     
  10 C10            0.4369    -3.8650     1.0109 C.ar    
  11 C11            1.3140    -2.8180     1.2832 C.ar    
  12 C12            0.7430    -2.9080    -1.0329 C.2     
  13 N13            0.1236    -3.8915    -0.3499 N.am    
  14 O14            0.6571    -2.6857    -2.2222 O.2     
  15 C15            1.7632    -2.5964     2.5654 C.ar    
  16 C16            1.3449    -3.4168     3.5984 C.ar    
  17 C17            0.4739    -4.4591     3.3397 C.ar    
  18 C18            0.0205    -4.6852     2.0566 C.ar    
  19 C19           -2.2076    -4.3423    -0.9361 C.3     
  20 C20           -1.1514     2.3780     0.0353 C.3     
  21 C21           -0.4169     3.6802     0.4334 C.3     
  22 O22            0.9269     3.4375    -0.0164 O.3     
  23 C23           -3.1247    -5.3103    -1.6871 C.3     
  24 C24           -4.5534    -4.7577    -1.6872 C.3     
  25 C25           -4.1000    -3.6500     0.5401 C.3     
  26 C26           -2.6763    -4.2150     0.5152 C.3     
  27 C27           -0.7732    -4.8739    -0.9637 C.3     
  28 N28           -4.9592    -4.4958    -0.2996 N.am    
  29 O29           -6.4579    -4.7729     1.4670 O.3     
  30 C30           -7.6970    -5.3713     1.9307 C.3     
  31 C31           -7.6004    -6.8942     1.8202 C.3     
  32 C32           -7.9375    -4.9801     3.3901 C.3     
  33 C33           -8.8586    -4.8702     1.0702 C.3     
  34 C34           -6.0982    -5.0211     0.1936 C.2     
  35 O35           -6.8005    -5.7188    -0.5111 O.2     
  36 H36           -0.9264    -0.5557     0.0009 H       
  37 H37            3.3066     1.9651     0.0036 H       
  38 H38            3.1836    -2.2456    -1.4777 H       
  39 H39            3.5871    -2.9132     0.1390 H       
  40 H40            2.4432    -1.7815     2.7654 H       
  41 H41            1.6983    -3.2437     4.6042 H       
  42 H42            0.1473    -5.0993     4.1458 H       
  43 H43           -0.6595    -5.5014     1.8622 H       
  44 H44           -2.2414    -3.3641    -1.4157 H       
  45 H45           -1.6088     2.4743    -0.9494 H       
  46 H46           -1.8955     2.1061     0.7839 H       
  47 H47           -0.8473     4.5392    -0.0813 H       
  48 H48           -0.4426     3.8232     1.5137 H       
  49 H49           -2.7764    -5.4185    -2.7143 H       
  50 H50           -3.1104    -6.2820    -1.1934 H       
  51 H51           -4.5864    -3.8302    -2.2588 H       
  52 H52           -5.2279    -5.4885    -2.1334 H       
  53 H53           -4.4753    -3.6499     1.5634 H       
  54 H54           -4.0960    -2.6321     0.1501 H       
  55 H55           -2.6663    -5.1970     0.9882 H       
  56 H56           -2.0089    -3.5436     1.0555 H       
  57 H57           -0.4699    -5.0476    -1.9962 H       
  58 H58           -0.7219    -5.8100    -0.4076 H       
  59 H59           -6.7729    -7.2513     2.4332 H       
  60 H60           -8.5306    -7.3435     2.1682 H       
  61 H61           -7.4291    -7.1730     0.7804 H       
  62 H62           -8.0063    -3.8951     3.4688 H       
  63 H63           -8.8677    -5.4293     3.7381 H       
  64 H64           -7.1099    -5.3371     4.0031 H       
  65 H65           -8.6873    -5.1489     0.0305 H       
  66 H66           -9.7888    -5.3194     1.4182 H       
  67 H67           -8.9274    -3.7852     1.1489 H       
@<TRIPOS>BOND
   1    1    2 ar
   2    1    6 ar
   3    1   20 1
   4    2    3 ar
   5    2   36 1
   6    3    4 ar
   7    3    8 1
   8    4    5 ar
   9    4    7 1
  10    5    6 ar
  11    5   37 1
  12    6   22 1
  13    7    9 1
  14    8    9 1
  15    8   11 1
  16    8   12 1
  17    9   38 1
  18    9   39 1
  19   10   11 ar
  20   10   13 1
  21   10   18 ar
  22   11   15 ar
  23   12   13 am
  24   12   14 2
  25   13   27 1
  26   15   16 ar
  27   15   40 1
  28   16   17 ar
  29   16   41 1
  30   17   18 ar
  31   17   42 1
  32   18   43 1
  33   19   23 1
  34   19   26 1
  35   19   27 1
  36   19   44 1
  37   20   21 1
  38   20   45 1
  39   20   46 1
  40   21   22 1
  41   21   47 1
  42   21   48 1
  43   23   24 1
  44   23   49 1
  45   23   50 1
  46   24   28 1
  47   24   51 1
  48   24   52 1
  49   25   26 1
  50   25   28 1
  51   25   53 1
  52   25   54 1
  53   26   55 1
  54   26   56 1
  55   27   57 1
  56   27   58 1
  57   28   34 am
  58   29   30 1
  59   29   34 1
  60   30   31 1
  61   30   32 1
  62   30   33 1
  63   31   59 1
  64   31   60 1
  65   31   61 1
  66   32   62 1
  67   32   63 1
  68   32   64 1
  69   33   65 1
  70   33   66 1
  71   33   67 1
  72   34   35 2

#	End of record

