#	Name: ASD02500279
#	Creating user name:	WinNT
#	Creation time:	15. 06. 2019 20:22

#	Modifying user name:	WinNT
#	Modification time:	15. 06. 2019 20:22

#	Program:	/corina/corina34_cracker 3.40 0067  02.08.2006

@<TRIPOS>MOLECULE
ASD02500279
  67   71    0    0    0
SMALL
NO_CHARGES


@<TRIPOS>ATOM
   1 N1            -5.1419     4.9621     0.7195 N.ar    
   2 C2            -6.3483     5.4429     0.5415 C.ar    
   3 C3            -7.4215     5.0431     1.3351 C.ar    
   4 C4            -7.2298     4.1265     2.3293 C.ar    
   5 C5            -5.9329     3.6119     2.5173 C.ar    
   6 C6            -5.6593     2.6672     3.5190 C.ar    
   7 C7            -4.3913     2.1938     3.6692 C.ar    
   8 C8            -3.3609     2.6350     2.8419 C.ar    
   9 C9            -3.5908     3.5500     1.8608 C.ar    
  10 C10           -4.8864     4.0622     1.6745 C.ar    
  11 S11           -2.2690     4.0912     0.8290 S.o2    
  12 O12           -2.3040     5.5117     0.8440 O.2     
  13 O13           -1.1267     3.3378     1.2119 O.2     
  14 N14           -2.6354     3.6307    -0.7189 N.am    
  15 C15           -2.6605     2.2794    -1.0562 C.ar    
  16 C16           -2.2796     1.8734    -2.3369 C.ar    
  17 C17           -2.3042     0.5350    -2.6717 C.ar    
  18 C18           -2.7109    -0.4121    -1.7265 C.ar    
  19 C19           -3.0908     0.0001    -0.4468 C.ar    
  20 C20           -3.0592     1.3368    -0.1156 C.ar    
  21 C21           -2.7391    -1.8440    -2.0803 C.2     
  22 O22           -3.1754    -2.1952    -3.1596 O.2     
  23 N23           -2.2814    -2.7631    -1.2072 N.am    
  24 C24           -2.2143    -4.1826    -1.5819 C.3     
  25 C25           -0.7783    -4.6779    -1.3704 C.3     
  26 N26           -0.3368    -4.2784    -0.0268 N.am    
  27 C27           -0.4038    -2.8589     0.3479 C.3     
  28 C28           -1.8346    -2.3628     0.1345 C.3     
  29 C29            0.1210    -5.1975     0.8463 C.2     
  30 C30            0.6646    -4.7687     2.1562 C.ar    
  31 C31            0.4837    -5.5532     3.3006 C.ar    
  32 C32            1.0059    -5.1191     4.5022 C.ar    
  33 N33            1.6684    -3.9817     4.5831 N.ar    
  34 C34            1.8634    -3.2087     3.5285 C.ar    
  35 C35            1.3760    -3.5738     2.2806 C.ar    
  36 O36            0.0880    -6.3777     0.5591 O.2     
  37 O37            2.5519    -2.0476     3.6661 O.3     
  38 C38            3.0324    -1.7293     4.9737 C.3     
  39 O39           -1.8850     2.7970    -3.2541 O.3     
  40 C40           -1.5091     2.3106    -4.5442 C.3     
  41 H41           -6.5148     6.1685    -0.2409 H       
  42 H42           -8.4039     5.4579     1.1645 H       
  43 H43           -8.0502     3.8056     2.9541 H       
  44 H44           -6.4497     2.3182     4.1670 H       
  45 H45           -4.1817     1.4671     4.4401 H       
  46 H46           -2.3635     2.2450     2.9815 H       
  47 H47           -2.8326     4.3020    -1.3908 H       
  48 H48           -2.0102     0.2195    -3.6619 H       
  49 H49           -3.4052    -0.7300     0.2844 H       
  50 H50           -3.3489     1.6536     0.8754 H       
  51 H51           -2.8959    -4.7587    -0.9561 H       
  52 H52           -2.4904    -4.2977    -2.6300 H       
  53 H53           -0.7495    -5.7641    -1.4571 H       
  54 H54           -0.1234    -4.2313    -2.1186 H       
  55 H55           -0.1277    -2.7438     1.3960 H       
  56 H56            0.2778    -2.2828    -0.2780 H       
  57 H57           -1.8599    -1.2764     0.2195 H       
  58 H58           -2.4885    -2.8064     0.8853 H       
  59 H59           -0.0577    -6.4860     3.2445 H       
  60 H60            0.8696    -5.7196     5.3895 H       
  61 H61            1.5410    -2.9416     1.4207 H       
  62 H62            3.7095    -2.5133     5.3127 H       
  63 H63            3.5637    -0.7781     4.9440 H       
  64 H64            2.1904    -1.6539     5.6618 H       
  65 H65           -1.2166     3.1484    -5.1772 H       
  66 H66           -0.6704     1.6218    -4.4426 H       
  67 H67           -2.3535     1.7907    -4.9967 H       
@<TRIPOS>BOND
   1    1    2 ar
   2    1   10 ar
   3    2    3 ar
   4    2   41 1
   5    3    4 ar
   6    3   42 1
   7    4    5 ar
   8    4   43 1
   9    5    6 ar
  10    5   10 ar
  11    6    7 ar
  12    6   44 1
  13    7    8 ar
  14    7   45 1
  15    8    9 ar
  16    8   46 1
  17    9   10 ar
  18    9   11 1
  19   11   12 2
  20   11   13 2
  21   11   14 am
  22   14   15 1
  23   14   47 1
  24   15   16 ar
  25   15   20 ar
  26   16   17 ar
  27   16   39 1
  28   17   18 ar
  29   17   48 1
  30   18   19 ar
  31   18   21 1
  32   19   20 ar
  33   19   49 1
  34   20   50 1
  35   21   22 2
  36   21   23 am
  37   23   24 1
  38   23   28 1
  39   24   25 1
  40   24   51 1
  41   24   52 1
  42   25   26 1
  43   25   53 1
  44   25   54 1
  45   26   27 1
  46   26   29 am
  47   27   28 1
  48   27   55 1
  49   27   56 1
  50   28   57 1
  51   28   58 1
  52   29   30 1
  53   29   36 2
  54   30   31 ar
  55   30   35 ar
  56   31   32 ar
  57   31   59 1
  58   32   33 ar
  59   32   60 1
  60   33   34 ar
  61   34   35 ar
  62   34   37 1
  63   35   61 1
  64   37   38 1
  65   38   62 1
  66   38   63 1
  67   38   64 1
  68   39   40 1
  69   40   65 1
  70   40   66 1
  71   40   67 1

#	End of record

