#	Name: ASD03091927
#	Creating user name:	WinNT
#	Creation time:	15. 06. 2019 20:31

#	Modifying user name:	WinNT
#	Modification time:	15. 06. 2019 20:31

#	Program:	/corina/corina34_cracker 3.40 0067  02.08.2006

@<TRIPOS>MOLECULE
ASD03091927
  55   58    0    0    0
SMALL
NO_CHARGES


@<TRIPOS>ATOM
   1 C1            -0.0168     1.3903     0.0097 C.ar    
   2 C2            -1.2525     2.0635     0.0193 C.ar    
   3 C3            -2.4524     1.3091     0.0019 C.ar    
   4 C4            -2.3951    -0.0983    -0.0259 C.ar    
   5 C5            -1.1964    -0.7350    -0.0252 C.ar    
   6 C6             0.0021    -0.0041     0.0020 C.ar    
   7 O7             1.1547     2.0667     0.0021 O.3     
   8 C8             2.2699     1.4671     0.6600 C.3     
   9 N9             2.4110     0.0636     0.2686 N.am    
  10 C10            1.3116    -0.6841     0.0241 C.2     
  11 C11           -3.6706    -0.9004    -0.0559 C.3     
  12 C12           -4.1462    -1.0345    -1.4796 C.ar    
  13 C13           -3.7320    -2.1035    -2.2604 C.ar    
  14 O14            1.3992    -1.8812    -0.1718 O.2     
  15 C15           -3.6852     1.9817     0.0130 C.ar    
  16 C16           -1.3193     3.4656     0.0468 C.ar    
  17 C17            3.7440    -0.5307     0.1413 C.3     
  18 C18            4.1661    -1.1289     1.4848 C.3     
  19 C19            5.6033    -1.7003     1.3913 C.3     
  20 C20            6.0442    -1.6343     2.8790 C.3     
  21 C21            5.3283    -0.3602     3.3766 C.3     
  22 O22            4.2349    -0.1029     2.4878 O.3     
  23 C23           -5.0046    -0.0973    -2.0211 C.ar    
  24 C24           -4.1944    -2.1867    -3.5640 C.ar    
  25 C25           -5.0482    -1.2071    -4.0402 C.ar    
  26 N26           -5.4260    -0.2075    -3.2661 N.ar    
  27 Cl27          -5.6351    -1.2989    -5.6714 Cl      
  28 C28           -2.5330     4.0835     0.0573 C.ar    
  29 C29           -3.7125     3.3430     0.0402 C.ar    
  30 H30           -1.1642    -1.8143    -0.0457 H       
  31 H31            3.1777     2.0074     0.3917 H       
  32 H32            2.1240     1.5257     1.7386 H       
  33 H33           -3.4868    -1.8908     0.3606 H       
  34 H34           -4.4328    -0.3932     0.5356 H       
  35 H35           -3.0645    -2.8532    -1.8618 H       
  36 H36           -4.6084     1.4214    -0.0002 H       
  37 H37           -0.4122     4.0517     0.0603 H       
  38 H38            3.7212    -1.3156    -0.6148 H       
  39 H39            4.4579     0.2381    -0.1544 H       
  40 H40            3.4666    -1.9080     1.7878 H       
  41 H41            5.5945    -2.7285     1.0294 H       
  42 H42            6.2363    -1.0711     0.7657 H       
  43 H43            5.6985    -2.5119     3.4253 H       
  44 H44            7.1260    -1.5276     2.9586 H       
  45 H45            4.9536    -0.5176     4.3879 H       
  46 H46            6.0207     0.4816     3.3644 H       
  47 H47           -5.3349     0.7354    -1.4177 H       
  48 H48           -3.8921    -3.0052    -4.2003 H       
  49 H49           -2.5814     5.1622     0.0793 H       
  50 H50           -4.6629     3.8560     0.0487 H       
  51 C51           12.6532    11.2520    10.2710 C.3     
  52 H52           12.6680    10.1622    10.2650 H       
  53 H53           13.6758    11.6293    10.2633 H       
  54 H54           12.1260    11.6131     9.3879 H       
  55 H55           12.1430    11.6036    11.1678 H       
@<TRIPOS>BOND
   1    1    6 ar
   2    1    7 1
   3    1    2 ar
   4    2    3 ar
   5    2   16 ar
   6    3    4 ar
   7    3   15 ar
   8    4    5 ar
   9    4   11 1
  10    5    6 ar
  11    5   30 1
  12    6   10 1
  13    7    8 1
  14    8    9 1
  15    8   31 1
  16    8   32 1
  17    9   10 am
  18    9   17 1
  19   10   14 2
  20   11   12 1
  21   11   33 1
  22   11   34 1
  23   12   13 ar
  24   12   23 ar
  25   13   24 ar
  26   13   35 1
  27   15   29 ar
  28   15   36 1
  29   16   28 ar
  30   16   37 1
  31   17   18 1
  32   17   38 1
  33   17   39 1
  34   18   22 1
  35   18   19 1
  36   18   40 1
  37   19   20 1
  38   19   41 1
  39   19   42 1
  40   20   21 1
  41   20   43 1
  42   20   44 1
  43   21   22 1
  44   21   45 1
  45   21   46 1
  46   23   26 ar
  47   23   47 1
  48   24   25 ar
  49   24   48 1
  50   25   26 ar
  51   25   27 1
  52   28   29 ar
  53   28   49 1
  54   29   50 1
  55   51   52 1
  56   51   53 1
  57   51   54 1
  58   51   55 1

#	End of record

