#	Name: ASD01001108
#	Creating user name:	WinNT
#	Creation time:	15. 06. 2019 18:55

#	Modifying user name:	WinNT
#	Modification time:	15. 06. 2019 18:55

#	Program:	/corina/corina34_cracker 3.40 0067  02.08.2006

@<TRIPOS>MOLECULE
ASD01001108
  36   37    0    0    0
SMALL
NO_CHARGES


@<TRIPOS>ATOM
   1 C1            -0.0222     1.3169     0.0227 C.2     
   2 C2             0.0002    -0.0082     0.0154 C.2     
   3 C3             1.3392    -0.5546    -0.0145 C.2     
   4 C4             2.3086     0.4152    -0.0292 C.2     
   5 S5             1.6068     1.9683    -0.0070 S.3     
   6 N6             3.6710     0.1668    -0.0576 N.am    
   7 C7             4.5432     1.1942    -0.0700 C.2     
   8 C8             1.6290    -1.9915    -0.0273 C.2     
   9 O9             2.3567    -2.4732     0.8211 O.2     
  10 N10            1.0896    -2.7792    -0.9786 N.am    
  11 C11            1.4556    -4.1959    -1.0508 C.3     
  12 C12            0.1373    -2.2188    -1.9405 C.3     
  13 C13            0.4941    -5.0157    -0.1880 C.3     
  14 C14            0.9016    -1.5794    -3.1015 C.3     
  15 C15            5.9843     0.9314    -0.1001 C.2     
  16 O16            4.1338     2.3403    -0.0563 O.2     
  17 C17            6.9641     1.8845    -0.1151 C.2     
  18 C18            8.2337     1.3585    -0.1425 C.2     
  19 C19            8.2944     0.0216    -0.1499 C.2     
  20 S20            6.7309    -0.6605    -0.1152 S.3     
  21 H21           -0.9214     1.9148     0.0398 H       
  22 H22           -0.8909    -0.6182     0.0306 H       
  23 H23            3.9974    -0.7466    -0.0686 H       
  24 H24            1.3947    -4.5347    -2.0850 H       
  25 H25            2.4740    -4.3272    -0.6849 H       
  26 H26           -0.5042    -3.0134    -2.3217 H       
  27 H27           -0.4743    -1.4629    -1.4480 H       
  28 H28            0.7664    -6.0698    -0.2417 H       
  29 H29            0.5551    -4.6769     0.8462 H       
  30 H30           -0.5242    -4.8844    -0.5539 H       
  31 H31            1.5432    -0.7849    -2.7203 H       
  32 H32            1.5132    -2.3354    -3.5940 H       
  33 H33            0.1931    -1.1624    -3.8172 H       
  34 H34            6.7608     2.9452    -0.1065 H       
  35 H35            9.1177     1.9787    -0.1574 H       
  36 H36            9.2109    -0.5494    -0.1712 H       
@<TRIPOS>BOND
   1    1    2 2
   2    1    5 1
   3    1   21 1
   4    2    3 1
   5    2   22 1
   6    3    4 2
   7    3    8 1
   8    4    5 1
   9    4    6 1
  10    6    7 am
  11    6   23 1
  12    7   15 1
  13    7   16 2
  14    8    9 2
  15    8   10 am
  16   10   11 1
  17   10   12 1
  18   11   13 1
  19   11   24 1
  20   11   25 1
  21   12   14 1
  22   12   26 1
  23   12   27 1
  24   13   28 1
  25   13   29 1
  26   13   30 1
  27   14   31 1
  28   14   32 1
  29   14   33 1
  30   15   17 2
  31   15   20 1
  32   17   18 1
  33   17   34 1
  34   18   19 2
  35   18   35 1
  36   19   20 1
  37   19   36 1

#	End of record

