#	Name: ASD04590548
#	Creating user name:	WinNT
#	Creation time:	15. 06. 2019 20:51

#	Modifying user name:	WinNT
#	Modification time:	15. 06. 2019 20:51

#	Program:	/corina/corina34_cracker 3.40 0067  02.08.2006

@<TRIPOS>MOLECULE
ASD04590548
  64   69    0    0    0
SMALL
NO_CHARGES


@<TRIPOS>ATOM
   1 N1             2.2726     1.4607    -0.0345 N.ar    
   2 C2             2.4120     0.1396    -0.0524 C.ar    
   3 C3             1.3006    -0.6695    -0.0269 C.ar    
   4 C4             0.0328    -0.0920    -0.0013 C.ar    
   5 C5            -0.0744     1.2849     0.0095 C.ar    
   6 C6             1.0899     2.0462    -0.0050 C.ar    
   7 N7             1.0070     3.4357     0.0118 N.pl3   
   8 C8             2.1603     4.1973     0.1095 C.ar    
   9 N9             2.0657     5.5137     0.0156 N.ar    
  10 C10            3.1500     6.2783     0.1044 C.ar    
  11 C11            4.3982     5.6537     0.3004 C.ar    
  12 C12            4.4478     4.2664     0.3931 C.ar    
  13 N13            3.3199     3.5813     0.2993 N.ar    
  14 N14            3.3486     7.6354     0.0448 N.pl3   
  15 C15            4.6917     7.9347     0.1952 C.ar    
  16 C16            5.3967     6.7289     0.3591 C.ar    
  17 C17            5.4052     9.1261     0.2108 C.ar    
  18 N18            6.7124     9.1224     0.3751 N.ar    
  19 C19            7.4041     8.0075     0.5316 C.ar    
  20 C20            6.7796     6.7783     0.5305 C.ar    
  21 C21            2.2885     8.6273    -0.1512 C.3     
  22 C22            1.2737     8.5213     0.9889 C.3     
  23 C23            0.1665     9.5571     0.7842 C.3     
  24 C24           -0.5360     9.2959    -0.5496 C.3     
  25 C25            0.4787     9.4019    -1.6898 C.3     
  26 C26            1.5860     8.3661    -1.4851 C.3     
  27 C27           -1.6432    10.3318    -0.7544 C.3     
  28 C28            3.8145    -0.4078    -0.1178 C.3     
  29 C29            3.8548    -1.8586     0.3591 C.3     
  30 N30            2.7664    -2.5880    -0.3122 N.am    
  31 C31            1.3918    -2.1736    -0.0105 C.3     
  32 C32            3.0225    -3.5957    -1.1699 C.2     
  33 C33            1.8850    -4.3219    -1.8404 C.3     
  34 O34            2.4082    -5.3397    -2.6963 O.3     
  35 O35            4.1685    -3.9179    -1.4020 O.2     
  36 H36           -0.8519    -0.7113     0.0096 H       
  37 H37           -1.0434     1.7613     0.0287 H       
  38 H38            0.1419     3.8707    -0.0449 H       
  39 H39            5.3890     3.7584     0.5428 H       
  40 H40            4.8840    10.0638     0.0867 H       
  41 H41            8.4749     8.0599     0.6624 H       
  42 H42            7.3509     5.8708     0.6586 H       
  43 H43            2.7230     9.6269    -0.1591 H       
  44 H44            0.8392     7.5217     0.9968 H       
  45 H45            1.7742     8.7074     1.9392 H       
  46 H46           -0.5564     9.4816     1.5965 H       
  47 H47            0.6011    10.5567     0.7764 H       
  48 H48           -0.9706     8.2963    -0.5418 H       
  49 H49           -0.0217     9.2158    -2.6401 H       
  50 H50            0.9133    10.4015    -1.6977 H       
  51 H51            2.3089     8.4416    -2.2974 H       
  52 H52            1.1514     7.3665    -1.4772 H       
  53 H53           -1.2087    11.3314    -0.7622 H       
  54 H54           -2.1437    10.1457    -1.7046 H       
  55 H55           -2.3661    10.2563     0.0579 H       
  56 H56            4.1709    -0.3587    -1.1467 H       
  57 H57            4.4649     0.1958     0.5152 H       
  58 H58            4.8139    -2.3058     0.0981 H       
  59 H59            3.7119    -1.8956     1.4391 H       
  60 H60            1.1096    -2.5435     0.9753 H       
  61 H61            0.7158    -2.5863    -0.7594 H       
  62 H62            1.2474    -4.7769    -1.0825 H       
  63 H63            1.3008    -3.6159    -2.4306 H       
  64 H64            1.7306    -5.8489    -3.1617 H       
@<TRIPOS>BOND
   1    1    2 ar
   2    1    6 ar
   3    2    3 ar
   4    2   28 1
   5    3    4 ar
   6    3   31 1
   7    4    5 ar
   8    4   36 1
   9    5    6 ar
  10    5   37 1
  11    6    7 1
  12    7    8 1
  13    7   38 1
  14    8    9 ar
  15    8   13 ar
  16    9   10 ar
  17   10   11 ar
  18   10   14 1
  19   11   12 ar
  20   11   16 1
  21   12   13 ar
  22   12   39 1
  23   14   15 1
  24   14   21 1
  25   15   16 ar
  26   15   17 ar
  27   16   20 ar
  28   17   18 ar
  29   17   40 1
  30   18   19 ar
  31   19   20 ar
  32   19   41 1
  33   20   42 1
  34   21   22 1
  35   21   26 1
  36   21   43 1
  37   22   23 1
  38   22   44 1
  39   22   45 1
  40   23   24 1
  41   23   46 1
  42   23   47 1
  43   24   25 1
  44   24   27 1
  45   24   48 1
  46   25   26 1
  47   25   49 1
  48   25   50 1
  49   26   51 1
  50   26   52 1
  51   27   53 1
  52   27   54 1
  53   27   55 1
  54   28   29 1
  55   28   56 1
  56   28   57 1
  57   29   30 1
  58   29   58 1
  59   29   59 1
  60   30   31 1
  61   30   32 am
  62   31   60 1
  63   31   61 1
  64   32   33 1
  65   32   35 2
  66   33   34 1
  67   33   62 1
  68   33   63 1
  69   34   64 1

#	End of record

