#	Name: ASD01810474
#	Creating user name:	WinNT
#	Creation time:	15. 06. 2019 19:24

#	Modifying user name:	WinNT
#	Modification time:	15. 06. 2019 19:24

#	Program:	/corina/corina34_cracker 3.40 0067  02.08.2006

@<TRIPOS>MOLECULE
ASD01810474
  76   80    0    0    0
SMALL
NO_CHARGES


@<TRIPOS>ATOM
   1 C1             0.0073     1.4725    -0.5284 C.2     
   2 C2             0.0813    -0.0007    -0.5216 C.ar    
   3 C3             1.1679    -0.6617    -1.1153 C.ar    
   4 C4             1.1955    -2.0297    -1.0852 C.ar    
   5 C5             0.1527    -2.7214    -0.4709 C.ar    
   6 N6            -0.8625    -2.0725     0.0828 N.ar    
   7 C7            -0.9253    -0.7573     0.0805 C.ar    
   8 O8             0.8917     2.1233    -1.0510 O.2     
   9 N9            -1.0432     2.0972     0.0397 N.am    
  10 N10            0.1771    -4.1054    -0.4390 N.3     
  11 C11           -1.0069    -4.6373     0.2500 C.3     
  12 C12           -0.9823    -6.1666     0.1943 C.3     
  13 N13            0.2530    -6.6572     0.8213 N.3     
  14 C14            1.4370    -6.1253     0.1322 C.3     
  15 C15            1.4124    -4.5960     0.1880 C.3     
  16 C16            0.2789    -8.1255     0.8552 C.3     
  17 C17           -1.0604     3.4928     0.1327 C.ar    
  18 C18           -2.2628     4.1818     0.0248 C.ar    
  19 C19           -2.2851     5.5607     0.1161 C.ar    
  20 C20           -1.1135     6.2629     0.3148 C.ar    
  21 C21            0.0990     5.5804     0.4249 C.ar    
  22 C22            0.1209     4.1883     0.3381 C.ar    
  23 C23           -1.1435     7.7664     0.4126 C.3     
  24 C24           -3.5464     3.4228    -0.1928 C.3     
  25 C25            1.3555     6.3302     0.6379 C.2     
  26 O26            1.6781     7.2085    -0.1379 O.2     
  27 N27            2.1432     6.0396     1.6923 N.am    
  28 C28            3.3487     6.8333     1.9673 C.3     
  29 C29            3.2912     7.3317     3.4147 C.3     
  30 C30            3.0962     6.1389     4.3535 C.3     
  31 C31            1.7721     5.4435     4.0292 C.3     
  32 C32            1.8093     4.9271     2.5920 C.3     
  33 F33            4.1509     5.2354     4.1843 F       
  34 C34            3.0733     6.6219     5.7808 C.ar    
  35 C35            3.2204     5.7164     6.8166 C.ar    
  36 C36            3.2003     6.1516     8.1255 C.ar    
  37 C37            3.0316     7.5094     8.4038 C.ar    
  38 C38            2.8842     8.4178     7.3536 C.ar    
  39 C39            2.9110     7.9694     6.0493 C.ar    
  40 C40            3.0094     7.9683     9.7601 C.1     
  41 N41            2.9917     8.3323    10.8361 N.1     
  42 H42            1.9639    -0.1035    -1.5856 H       
  43 H43            2.0174    -2.5682    -1.5334 H       
  44 H44           -1.7643    -0.2601     0.5446 H       
  45 H45           -1.7873     1.5789     0.3840 H       
  46 H46           -0.9996    -4.3111     1.2901 H       
  47 H47           -1.9085    -4.2700    -0.2402 H       
  48 H48           -1.8445    -6.5639     0.7298 H       
  49 H49           -1.0171    -6.4932    -0.8450 H       
  50 H50            2.3386    -6.4926     0.6225 H       
  51 H51            1.4297    -6.4515    -0.9078 H       
  52 H52            2.2746    -4.1987    -0.3476 H       
  53 H53            1.4472    -4.2694     1.2273 H       
  54 H54            0.2253    -8.5135    -0.1620 H       
  55 H55            1.2036    -8.4619     1.3241 H       
  56 H56           -0.5730    -8.4908     1.4287 H       
  57 H57           -3.2223     6.0906     0.0312 H       
  58 H58            1.0556     3.6546     0.4266 H       
  59 H59           -1.3681     8.0594     1.4381 H       
  60 H60           -0.1724     8.1687     0.1242 H       
  61 H61           -1.9117     8.1586    -0.2539 H       
  62 H62           -3.9870     3.1701     0.7717 H       
  63 H63           -4.2426     4.0411    -0.7594 H       
  64 H64           -3.3380     2.5082    -0.7479 H       
  65 H65            4.2341     6.2126     1.8295 H       
  66 H66            3.3879     7.6853     1.2887 H       
  67 H67            4.2231     7.8405     3.6616 H       
  68 H68            2.4571     8.0241     3.5282 H       
  69 H69            1.6227     4.6082     4.7134 H       
  70 H70            0.9523     6.1537     4.1369 H       
  71 H71            0.8332     4.5219     2.3254 H       
  72 H72            2.5666     4.1478     2.5061 H       
  73 H73            3.3508     4.6664     6.5999 H       
  74 H74            3.3145     5.4436     8.9331 H       
  75 H75            2.7533     9.4694     7.5619 H       
  76 H76            2.8012     8.6714     5.2359 H       
@<TRIPOS>BOND
   1    1    2 1
   2    1    8 2
   3    1    9 am
   4    2    3 ar
   5    2    7 ar
   6    3    4 ar
   7    3   42 1
   8    4    5 ar
   9    4   43 1
  10    5    6 ar
  11    5   10 1
  12    6    7 ar
  13    7   44 1
  14    9   17 1
  15    9   45 1
  16   10   11 1
  17   10   15 1
  18   11   12 1
  19   11   46 1
  20   11   47 1
  21   12   13 1
  22   12   48 1
  23   12   49 1
  24   13   14 1
  25   13   16 1
  26   14   15 1
  27   14   50 1
  28   14   51 1
  29   15   52 1
  30   15   53 1
  31   16   54 1
  32   16   55 1
  33   16   56 1
  34   17   18 ar
  35   17   22 ar
  36   18   19 ar
  37   18   24 1
  38   19   20 ar
  39   19   57 1
  40   20   21 ar
  41   20   23 1
  42   21   22 ar
  43   21   25 1
  44   22   58 1
  45   23   59 1
  46   23   60 1
  47   23   61 1
  48   24   62 1
  49   24   63 1
  50   24   64 1
  51   25   26 2
  52   25   27 am
  53   27   28 1
  54   27   32 1
  55   28   29 1
  56   28   65 1
  57   28   66 1
  58   29   30 1
  59   29   67 1
  60   29   68 1
  61   30   31 1
  62   30   33 1
  63   30   34 1
  64   31   32 1
  65   31   69 1
  66   31   70 1
  67   32   71 1
  68   32   72 1
  69   34   35 ar
  70   34   39 ar
  71   35   36 ar
  72   35   73 1
  73   36   37 ar
  74   36   74 1
  75   37   38 ar
  76   37   40 1
  77   38   39 ar
  78   38   75 1
  79   39   76 1
  80   40   41 3

#	End of record

