#	Name: ASD09200026
#	Creating user name:	WinNT
#	Creation time:	15. 06. 2019 21:21

#	Modifying user name:	WinNT
#	Modification time:	15. 06. 2019 21:21

#	Program:	/corina/corina34_cracker 3.40 0067  02.08.2006

@<TRIPOS>MOLECULE
ASD09200026
  46   49    0    0    0
SMALL
NO_CHARGES


@<TRIPOS>ATOM
   1 N1            -0.0162     1.3436     0.0094 N.am    
   2 C2             0.0021    -0.0041     0.0020 C.2     
   3 S3             1.2789    -0.9039    -0.0145 S.o     
   4 C4             0.4648    -2.4795    -0.0144 C.2     
   5 C5            -0.8518    -2.1595    -0.0003 C.2     
   6 N6            -1.0703    -0.8044     0.0133 N.am    
   7 C7            -1.9334    -3.1593     0.0050 C.ar    
   8 C8            -1.6200    -4.5222    -0.0041 C.ar    
   9 C9            -2.6555    -5.4660     0.0016 C.ar    
  10 C10           -4.0033    -5.0242     0.0165 C.ar    
  11 C11           -4.2871    -3.6416     0.0254 C.ar    
  12 C12           -3.2740    -2.7380     0.0251 C.ar    
  13 C13           -2.3786    -6.8468    -0.0078 C.ar    
  14 C14           -3.4068    -7.7446    -0.0023 C.ar    
  15 C15           -4.7288    -7.3155     0.0123 C.ar    
  16 C16           -5.0357    -5.9713     0.0217 C.ar    
  17 C17            1.2357     2.1156     0.0016 C.3     
  18 C18            1.1612     3.1524    -1.1243 C.3     
  19 N19           -0.0610     3.9524    -0.9688 N.3     
  20 C20           -1.2637     3.1194    -1.1013 C.3     
  21 C21           -1.2886     2.0812     0.0194 C.3     
  22 C22           -2.5094     4.0029    -1.0091 C.3     
  23 C23            2.3839     4.0695    -1.0555 C.3     
  24 H24            1.7141    -0.7883    -1.2818 H       
  25 H25            0.9127    -3.4622    -0.0237 H       
  26 H26           -1.9693    -0.4403     0.0242 H       
  27 H27           -0.5892    -4.8443    -0.0157 H       
  28 H28           -5.3123    -3.3020     0.0367 H       
  29 H29           -3.5012    -1.6822     0.0320 H       
  30 H30           -1.3560    -7.1942    -0.0195 H       
  31 H31           -3.1901    -8.8026    -0.0099 H       
  32 H32           -5.5258    -8.0443     0.0160 H       
  33 H33           -6.0667    -5.6501     0.0334 H       
  34 H34            1.3592     2.6225     0.9586 H       
  35 H35            2.0778     1.4458    -0.1725 H       
  36 H36            1.1421     2.6426    -2.0875 H       
  37 H37           -0.0594     4.4480    -0.0899 H       
  38 H38           -1.2490     2.6100    -2.0648 H       
  39 H39           -2.1158     1.3897    -0.1405 H       
  40 H40           -1.4069     2.5823     0.9801 H       
  41 H41           -2.4902     4.7427    -1.8093 H       
  42 H42           -3.4016     3.3844    -1.1074 H       
  43 H43           -2.5240     4.5109    -0.0448 H       
  44 H44            3.2906     3.4752    -1.1686 H       
  45 H45            2.3305     4.8068    -1.8565 H       
  46 H46            2.4016     4.5798    -0.0925 H       
@<TRIPOS>BOND
   1    1    2 am
   2    1   17 1
   3    1   21 1
   4    2    3 2
   5    2    6 am
   6    3    4 1
   7    3   24 1
   8    4    5 2
   9    4   25 1
  10    5    6 1
  11    5    7 1
  12    6   26 1
  13    7    8 ar
  14    7   12 ar
  15    8    9 ar
  16    8   27 1
  17    9   10 ar
  18    9   13 ar
  19   10   11 ar
  20   10   16 ar
  21   11   12 ar
  22   11   28 1
  23   12   29 1
  24   13   14 ar
  25   13   30 1
  26   14   15 ar
  27   14   31 1
  28   15   16 ar
  29   15   32 1
  30   16   33 1
  31   17   18 1
  32   17   34 1
  33   17   35 1
  34   18   19 1
  35   18   23 1
  36   18   36 1
  37   19   20 1
  38   19   37 1
  39   20   21 1
  40   20   22 1
  41   20   38 1
  42   21   39 1
  43   21   40 1
  44   22   41 1
  45   22   42 1
  46   22   43 1
  47   23   44 1
  48   23   45 1
  49   23   46 1

#	End of record

