#	Name: ASD01180016
#	Creating user name:	WinNT
#	Creation time:	15. 06. 2019 19:06

#	Modifying user name:	WinNT
#	Modification time:	15. 06. 2019 19:06

#	Program:	/corina/corina34_cracker 3.40 0067  02.08.2006

@<TRIPOS>MOLECULE
ASD01180016
  20   21    0    0    0
SMALL
NO_CHARGES


@<TRIPOS>ATOM
   1 N1            -0.0159     1.3186     0.0093 N.ar    
   2 C2             0.0021    -0.0041     0.0020 C.ar    
   3 C3             1.2246    -0.7012    -0.0134 C.ar    
   4 N4             2.3637    -0.0503    -0.0203 N.ar    
   5 C5             2.3661     1.2881    -0.0131 C.ar    
   6 C6             3.5720     2.0081    -0.0206 C.ar    
   7 C7             3.5466     3.3701    -0.0136 C.ar    
   8 C8             2.3358     4.0659     0.0011 C.ar    
   9 C9             1.1473     3.4020     0.0088 C.ar    
  10 C10            1.1343     1.9949     0.0019 C.ar    
  11 C11            1.2252    -2.2082    -0.0216 C.3     
  12 F12            1.2128    -2.6674    -1.3430 F       
  13 F13            2.3739    -2.6775     0.6245 F       
  14 F14            0.0894    -2.6786     0.6463 F       
  15 C15           -1.2312    -0.7318     0.0104 C.1     
  16 Cl16           2.3463     5.8019     0.0103 Cl      
  17 Cl17           5.0410     4.2536    -0.0224 Cl      
  18 N18           -2.2095    -1.3091     0.0170 N.1     
  19 H19            4.5161     1.4838    -0.0316 H       
  20 H20            0.2185     3.9529     0.0205 H       
@<TRIPOS>BOND
   1    1    2 ar
   2    1   10 ar
   3    2    3 ar
   4    2   15 1
   5    3    4 ar
   6    3   11 1
   7    4    5 ar
   8    5    6 ar
   9    5   10 ar
  10    6    7 ar
  11    6   19 1
  12    7    8 ar
  13    7   17 1
  14    8    9 ar
  15    8   16 1
  16    9   10 ar
  17    9   20 1
  18   11   12 1
  19   11   13 1
  20   11   14 1
  21   15   18 3

#	End of record

