#	Name: ASD07301209
#	Creating user name:	WinNT
#	Creation time:	15. 06. 2019 21:11

#	Modifying user name:	WinNT
#	Modification time:	15. 06. 2019 21:11

#	Program:	/corina/corina34_cracker 3.40 0067  02.08.2006

@<TRIPOS>MOLECULE
ASD07301209
  41   44    0    0    0
SMALL
NO_CHARGES


@<TRIPOS>ATOM
   1 C1            -0.0324     1.1803     0.0974 C.2     
   2 C2            -0.2882    -0.2651    -0.0247 C.2     
   3 C3             0.8395    -1.1180    -0.0875 C.2     
   4 C4             2.0694    -0.5475    -0.0311 C.2     
   5 N5             2.2079     0.7927     0.0819 N.pl3   
   6 N6             1.2146     1.6008     0.1415 N.2     
   7 O7            -1.4257    -0.7089    -0.0694 O.2     
   8 C8             3.5004     1.3243     0.1359 C.ar    
   9 C9             3.6895     2.7003     0.0978 C.ar    
  10 C10            4.9668     3.2218     0.1519 C.ar    
  11 C11            6.0575     2.3761     0.2433 C.ar    
  12 C12            5.8730     1.0063     0.2814 C.ar    
  13 C13            4.5977     0.4781     0.2336 C.ar    
  14 C14            5.1729     4.7141     0.1106 C.3     
  15 F15            5.0508     5.2376     1.4022 F       
  16 F16            6.4496     4.9950    -0.3876 F       
  17 F17            4.2095     5.2951    -0.7210 F       
  18 C18           -2.5773     3.6559     0.8635 C.2     
  19 N19           -2.9141     3.3463    -0.3574 N.2     
  20 C20           -2.0680     2.4155    -0.8362 C.2     
  21 C21           -1.1508     2.1382     0.1630 C.2     
  22 N22           -1.4943     2.9367     1.2303 N.pl3   
  23 C23           -2.1105     1.8011    -2.1832 C.ar    
  24 C24           -3.3364     1.5179    -2.7853 C.ar    
  25 C25           -3.3695     0.9459    -4.0405 C.ar    
  26 C26           -2.1901     0.6529    -4.7016 C.ar    
  27 C27           -0.9710     0.9314    -4.1096 C.ar    
  28 C28           -0.9249     1.5086    -2.8572 C.ar    
  29 H29            0.7248    -2.1882    -0.1770 H       
  30 H30            2.9493    -1.1722    -0.0767 H       
  31 H31            2.8384     3.3612     0.0257 H       
  32 H32            7.0556     2.7867     0.2847 H       
  33 H33            6.7268     0.3488     0.3525 H       
  34 H34            4.4540    -0.5917     0.2675 H       
  35 H35           -3.0838     4.3799     1.4846 H       
  36 H36           -1.0420     2.9759     2.0875 H       
  37 H37           -4.2578     1.7456    -2.2699 H       
  38 H38           -4.3181     0.7262    -4.5077 H       
  39 H39           -2.2211     0.2045    -5.6836 H       
  40 H40           -0.0537     0.7003    -4.6307 H       
  41 H41            0.0273     1.7297    -2.3980 H       
@<TRIPOS>BOND
   1    1    2 1
   2    1    6 2
   3    1   21 1
   4    2    3 1
   5    2    7 2
   6    3    4 2
   7    3   29 1
   8    4    5 1
   9    4   30 1
  10    5    6 1
  11    5    8 1
  12    8    9 ar
  13    8   13 ar
  14    9   10 ar
  15    9   31 1
  16   10   11 ar
  17   10   14 1
  18   11   12 ar
  19   11   32 1
  20   12   13 ar
  21   12   33 1
  22   13   34 1
  23   14   15 1
  24   14   16 1
  25   14   17 1
  26   18   19 2
  27   18   22 1
  28   18   35 1
  29   19   20 1
  30   20   21 2
  31   20   23 1
  32   21   22 1
  33   22   36 1
  34   23   24 ar
  35   23   28 ar
  36   24   25 ar
  37   24   37 1
  38   25   26 ar
  39   25   38 1
  40   26   27 ar
  41   26   39 1
  42   27   28 ar
  43   27   40 1
  44   28   41 1

#	End of record

