#	Name: ASD02038907
#	Creating user name:	WinNT
#	Creation time:	15. 06. 2019 20:17

#	Modifying user name:	WinNT
#	Modification time:	15. 06. 2019 20:17

#	Program:	/corina/corina34_cracker 3.40 0067  02.08.2006

@<TRIPOS>MOLECULE
ASD02038907
  50   50    0    0    0
SMALL
NO_CHARGES


@<TRIPOS>ATOM
   1 C1            -0.7385     0.9115     0.3642 C.2     
   2 C2            -0.3664    -0.4875    -0.0545 C.3     
   3 C3            -1.1201    -0.8544    -1.3344 C.3     
   4 C4            -0.8338    -2.3136    -1.6945 C.3     
   5 O5            -0.0663     1.8487     0.0042 O.2     
   6 O6            -1.8198     1.1169     1.1324 O.3     
   7 N7             1.0762    -0.5563    -0.3005 N.am    
   8 C8             1.7232    -1.7334    -0.1903 C.2     
   9 O9             1.1101    -2.7377     0.1131 O.2     
  10 O10            3.0490    -1.7966    -0.4164 O.3     
  11 C11            3.6798    -3.0972    -0.2796 C.3     
  12 C12            3.0468    -4.0777    -1.2690 C.3     
  13 C13            5.1762    -2.9716    -0.5727 C.3     
  14 C14            3.4811    -3.6128     1.1471 C.3     
  15 O15           -2.5459    -0.6787    -1.1237 O.3     
  16 C16           -3.1555     0.2753    -1.8448 C.2     
  17 O17           -2.5049     1.0023    -2.5576 O.2     
  18 C18           -4.6514     0.4396    -1.7655 C.3     
  19 C19           -2.0724     2.4801     1.5641 C.3     
  20 C20           -3.3784     2.5357     2.3139 C.ar    
  21 C21           -3.3935     2.3847     3.6879 C.ar    
  22 C22           -4.5915     2.4357     4.3758 C.ar    
  23 C23           -5.7744     2.6381     3.6897 C.ar    
  24 C24           -5.7592     2.7899     2.3158 C.ar    
  25 C25           -4.5607     2.7433     1.6284 C.ar    
  26 H26           -0.6336    -1.1870     0.7377 H       
  27 H27           -0.7907    -0.2080    -2.1479 H       
  28 H28           -1.1632    -2.9599    -0.8810 H       
  29 H29           -1.3707    -2.5749    -2.6063 H       
  30 H30            0.2366    -2.4454    -1.8527 H       
  31 H31            1.5656     0.2454    -0.5427 H       
  32 H32            3.1884    -3.7103    -2.2854 H       
  33 H33            3.5204    -5.0540    -1.1663 H       
  34 H34            1.9808    -4.1671    -1.0602 H       
  35 H35            5.6271    -2.2731     0.1322 H       
  36 H36            5.6498    -3.9480    -0.4700 H       
  37 H37            5.3178    -2.6043    -1.5891 H       
  38 H38            2.4150    -3.7023     1.3559 H       
  39 H39            3.9546    -4.5892     1.2499 H       
  40 H40            3.9320    -2.9143     1.8520 H       
  41 H41           -5.0522    -0.2402    -1.0136 H       
  42 H42           -4.8900     1.4670    -1.4905 H       
  43 H43           -5.0940     0.2109    -2.7350 H       
  44 H44           -1.2643     2.8101     2.2169 H       
  45 H45           -2.1255     3.1331     0.6930 H       
  46 H46           -2.4694     2.2266     4.2240 H       
  47 H47           -4.6034     2.3170     5.4492 H       
  48 H48           -6.7104     2.6772     4.2270 H       
  49 H49           -6.6834     2.9477     1.7797 H       
  50 H50           -4.5485     2.8656     0.5554 H       
@<TRIPOS>BOND
   1    1    2 1
   2    1    5 2
   3    1    6 1
   4    2    3 1
   5    2    7 1
   6    2   26 1
   7    3    4 1
   8    3   15 1
   9    3   27 1
  10    4   28 1
  11    4   29 1
  12    4   30 1
  13    6   19 1
  14    7    8 am
  15    7   31 1
  16    8    9 2
  17    8   10 1
  18   10   11 1
  19   11   12 1
  20   11   14 1
  21   11   13 1
  22   12   32 1
  23   12   33 1
  24   12   34 1
  25   13   35 1
  26   13   36 1
  27   13   37 1
  28   14   38 1
  29   14   39 1
  30   14   40 1
  31   15   16 1
  32   16   17 2
  33   16   18 1
  34   18   41 1
  35   18   42 1
  36   18   43 1
  37   19   20 1
  38   19   44 1
  39   19   45 1
  40   20   21 ar
  41   20   25 ar
  42   21   22 ar
  43   21   46 1
  44   22   23 ar
  45   22   47 1
  46   23   24 ar
  47   23   48 1
  48   24   25 ar
  49   24   49 1
  50   25   50 1

#	End of record

