#	Name: ASD01320021
#	Creating user name:	WinNT
#	Creation time:	15. 06. 2019 19:15

#	Modifying user name:	WinNT
#	Modification time:	15. 06. 2019 19:15

#	Program:	/corina/corina34_cracker 3.40 0067  02.08.2006

@<TRIPOS>MOLECULE
ASD01320021
  46   48    0    0    0
SMALL
NO_CHARGES


@<TRIPOS>ATOM
   1 C1             0.8471     1.3204     0.5554 C.ar    
   2 C2             0.6154    -0.0372     0.5067 C.ar    
   3 C3             1.6519    -0.9118     0.2108 C.ar    
   4 C4             2.9338    -0.4198    -0.0388 C.ar    
   5 C5             3.1725     0.9422     0.0086 C.ar    
   6 C6             2.1281     1.8208     0.3065 C.ar    
   7 O7             1.4183    -2.2488     0.1646 O.3     
   8 C8             0.1494    -2.6813     0.3750 C.ar    
   9 C9            -0.7804    -2.6251    -0.6559 C.ar    
  10 C10           -2.0805    -3.0678    -0.4421 C.ar    
  11 C11           -2.4463    -3.5716     0.8220 C.ar    
  12 C12           -1.5015    -3.6214     1.8459 C.ar    
  13 C13           -0.2130    -3.1841     1.6191 C.ar    
  14 N14            3.9779    -1.3042    -0.3366 N.am    
  15 C15            5.2459    -0.9840    -0.0107 C.2     
  16 C16            6.3316    -1.9665    -0.2130 C.ar    
  17 O17            5.4967     0.1128     0.4497 O.2     
  18 C18            7.6457    -1.6381     0.1234 C.ar    
  19 C19            8.6544    -2.5600    -0.0675 C.ar    
  20 C20            8.3655    -3.8074    -0.5913 C.ar    
  21 C21            7.0647    -4.1394    -0.9270 C.ar    
  22 C22            6.0462    -3.2290    -0.7362 C.ar    
  23 C23            2.3695     3.2314     0.3564 C.1     
  24 N24            2.5610     4.3505     0.3960 N.1     
  25 C25           -3.8239    -4.0441     1.0611 C.2     
  26 O26           -4.7656    -3.3116     0.8324 O.2     
  27 O27           -4.0371    -5.2881     1.5330 O.3     
  28 C28           -3.0746    -3.0100    -1.5352 C.2     
  29 O29           -4.1747    -3.5014    -1.3822 O.2     
  30 O30           -2.7601    -2.4122    -2.7006 O.3     
  31 N31           10.0486    -2.2134     0.2882 N.pl3   
  32 O32           10.3045    -1.1154     0.7491 O.2     
  33 O33           10.9400    -3.0262     0.1202 O.2     
  34 H34            0.0374     1.9984     0.7815 H       
  35 H35           -0.3753    -0.4218     0.6997 H       
  36 H36            4.1639     1.3250    -0.1839 H       
  37 H37           -0.4934    -2.2374    -1.6222 H       
  38 H38           -1.7775    -4.0067     2.8163 H       
  39 H39            0.5159    -3.2248     2.4151 H       
  40 H40            3.7886    -2.1472    -0.7775 H       
  41 H41            7.8726    -0.6645     0.5320 H       
  42 H42            9.1587    -4.5253    -0.7391 H       
  43 H43            6.8458    -5.1149    -1.3354 H       
  44 H44            5.0313    -3.4894    -0.9983 H       
  45 H45           -4.9565    -5.5527     1.6738 H       
  46 H46           -3.4426    -2.3992    -3.3856 H       
@<TRIPOS>BOND
   1    1    2 ar
   2    1    6 ar
   3    1   34 1
   4    2    3 ar
   5    2   35 1
   6    3    4 ar
   7    3    7 1
   8    4    5 ar
   9    4   14 1
  10    5    6 ar
  11    5   36 1
  12    6   23 1
  13    7    8 1
  14    8    9 ar
  15    8   13 ar
  16    9   10 ar
  17    9   37 1
  18   10   11 ar
  19   10   28 1
  20   11   12 ar
  21   11   25 1
  22   12   13 ar
  23   12   38 1
  24   13   39 1
  25   14   15 am
  26   14   40 1
  27   15   16 1
  28   15   17 2
  29   16   18 ar
  30   16   22 ar
  31   18   19 ar
  32   18   41 1
  33   19   20 ar
  34   19   31 1
  35   20   21 ar
  36   20   42 1
  37   21   22 ar
  38   21   43 1
  39   22   44 1
  40   23   24 3
  41   25   26 2
  42   25   27 1
  43   27   45 1
  44   28   29 2
  45   28   30 1
  46   30   46 1
  47   31   32 2
  48   31   33 2

#	End of record

