#	Name: ASD03330219
#	Creating user name:	WinNT
#	Creation time:	15. 06. 2019 20:36

#	Modifying user name:	WinNT
#	Modification time:	15. 06. 2019 20:36

#	Program:	/corina/corina34_cracker 3.40 0067  02.08.2006

@<TRIPOS>MOLECULE
ASD03330219
  57   59    0    0    0
SMALL
NO_CHARGES


@<TRIPOS>ATOM
   1 C1            -0.6674     0.5737     0.2358 C.3     
   2 N2            -0.5954    -0.8814     0.0428 N.3     
   3 C3            -0.0273    -1.2169    -1.2755 C.3     
   4 C4             1.2478    -0.4322    -1.4456 C.2     
   5 N5             1.5873     0.6364    -0.6678 N.pl3   
   6 C6             0.7448     1.1449     0.4181 C.3     
   7 C7             2.2506    -0.6108    -2.3406 C.2     
   8 N8             3.1865     0.3373    -2.1039 N.2     
   9 C9             2.7936     1.0886    -1.0995 C.2     
  10 C10            3.5392     2.2346    -0.5346 C.ar    
  11 C11            4.6004     2.7974    -1.2441 C.ar    
  12 C12            5.2921     3.8662    -0.7132 C.ar    
  13 C13            4.9346     4.3809     0.5227 C.ar    
  14 C14            3.8810     3.8253     1.2316 C.ar    
  15 C15            3.1797     2.7601     0.7073 C.ar    
  16 C16            2.3107    -1.6505    -3.3831 C.2     
  17 O17            1.4020    -2.4508    -3.4968 O.2     
  18 O18            5.7265    -2.2020    -5.3345 O.2     
  19 C19            4.8709    -3.0179    -5.6054 C.2     
  20 C20            3.4322    -2.7482    -5.2471 C.3     
  21 N21            3.3725    -1.7145    -4.2107 N.am    
  22 C22            2.6785    -2.2690    -6.4893 C.3     
  23 C23            2.7395    -3.3491    -7.5712 C.3     
  24 C24            1.2181    -1.9938    -6.1252 C.3     
  25 C25            3.3240    -0.9848    -7.0137 C.3     
  26 N26            5.2069    -4.1656    -6.2268 N.am    
  27 C27            6.5904    -4.3899    -6.6532 C.3     
  28 F28            5.6155     5.4275     1.0386 F       
  29 C29            6.4390     4.4749    -1.4782 C.3     
  30 H30           -1.1338     1.0321    -0.6362 H       
  31 H31           -1.2639     0.7926     1.1214 H       
  32 H32           -0.0701    -1.3190     0.7849 H       
  33 H33            0.1877    -2.2844    -1.3233 H       
  34 H34           -0.7336    -0.9471    -2.0606 H       
  35 H35            0.7093     2.2336     0.3772 H       
  36 H36            1.1497     0.8254     1.3784 H       
  37 H37            4.8801     2.3968    -2.2073 H       
  38 H38            3.6062     4.2301     2.1945 H       
  39 H39            2.3587     2.3281     1.2603 H       
  40 H40            2.9729    -3.6636    -4.8741 H       
  41 H41            4.0972    -1.0762    -4.1200 H       
  42 H42            2.2656    -4.2591    -7.2032 H       
  43 H43            2.2160    -3.0014    -8.4618 H       
  44 H44            3.7805    -3.5564    -7.8194 H       
  45 H45            1.1746    -1.2243    -5.3545 H       
  46 H46            0.6811    -1.6524    -7.0102 H       
  47 H47            0.7582    -2.9087    -5.7516 H       
  48 H48            4.3644    -1.1808    -7.2731 H       
  49 H49            2.7871    -0.6434    -7.8987 H       
  50 H50            3.2805    -0.2153    -6.2430 H       
  51 H51            4.5327    -4.8432    -6.3918 H       
  52 H52            6.8837    -3.6128    -7.3589 H       
  53 H53            7.2480    -4.3586    -5.7844 H       
  54 H54            6.6691    -5.3653    -7.1334 H       
  55 H55            6.0646     5.2709    -2.1218 H       
  56 H56            7.1658     4.8857    -0.7775 H       
  57 H57            6.9160     3.7082    -2.0888 H       
@<TRIPOS>BOND
   1    1    2 1
   2    1    6 1
   3    1   30 1
   4    1   31 1
   5    2    3 1
   6    2   32 1
   7    3    4 1
   8    3   33 1
   9    3   34 1
  10    4    5 1
  11    4    7 2
  12    5    6 1
  13    5    9 1
  14    6   35 1
  15    6   36 1
  16    7    8 1
  17    7   16 1
  18    8    9 2
  19    9   10 1
  20   10   11 ar
  21   10   15 ar
  22   11   12 ar
  23   11   37 1
  24   12   13 ar
  25   12   29 1
  26   13   14 ar
  27   13   28 1
  28   14   15 ar
  29   14   38 1
  30   15   39 1
  31   16   17 2
  32   16   21 am
  33   18   19 2
  34   19   26 am
  35   19   20 1
  36   20   21 1
  37   20   22 1
  38   20   40 1
  39   21   41 1
  40   22   23 1
  41   22   24 1
  42   22   25 1
  43   23   42 1
  44   23   43 1
  45   23   44 1
  46   24   45 1
  47   24   46 1
  48   24   47 1
  49   25   48 1
  50   25   49 1
  51   25   50 1
  52   26   27 1
  53   26   51 1
  54   27   52 1
  55   27   53 1
  56   27   54 1
  57   29   55 1
  58   29   56 1
  59   29   57 1

#	End of record

