#	Name: ASD01150330
#	Creating user name:	WinNT
#	Creation time:	15. 06. 2019 19:04

#	Modifying user name:	WinNT
#	Modification time:	15. 06. 2019 19:04

#	Program:	/corina/corina34_cracker 3.40 0067  02.08.2006

@<TRIPOS>MOLECULE
ASD01150330
  63   65    0    0    0
SMALL
NO_CHARGES


@<TRIPOS>ATOM
   1 N1            -0.0169     1.3926     0.0097 N.pl3   
   2 C2             0.0021    -0.0041     0.0020 C.2     
   3 C3            -1.3281    -0.4052     0.0126 C.2     
   4 N4            -2.0859     0.6950     0.0257 N.2     
   5 C5            -1.3234     1.7683     0.0301 C.2     
   6 C6             1.1390    -0.8368    -0.0133 C.2     
   7 C7             1.0965     2.2429     0.0036 C.ar    
   8 C8             1.3308     3.0746    -1.0833 C.ar    
   9 C9             2.4290     3.9121    -1.0861 C.ar    
  10 C10            3.2948     3.9229    -0.0079 C.ar    
  11 C11            3.0645     3.0954     1.0758 C.ar    
  12 C12            1.9648     2.2598     1.0870 C.ar    
  13 N13           -1.7777     3.0668     0.0432 N.3     
  14 C14           -3.2460     3.1108     0.0511 C.3     
  15 C15           -1.2226     3.8073     1.1841 C.3     
  16 O16            1.0070    -2.0474    -0.0185 O.2     
  17 O17            2.3748    -0.2923    -0.0222 O.3     
  18 C18            3.4818    -1.1959    -0.0376 C.3     
  19 C19            3.4089    -2.0704    -1.2909 C.3     
  20 C20            4.7889    -0.4008    -0.0458 C.3     
  21 C21            3.4327    -2.0838     1.2074 C.3     
  22 N22           -1.7882    -1.7164     0.0095 N.am    
  23 C23           -3.1126    -1.9659     0.0208 C.2     
  24 C24           -3.6011    -3.3583     0.0176 C.ar    
  25 O25           -3.9049    -1.0437     0.0337 O.2     
  26 C26           -4.9741    -3.6191     0.0293 C.ar    
  27 C27           -5.4258    -4.9199     0.0263 C.ar    
  28 C28           -4.5184    -5.9727     0.0120 C.ar    
  29 C29           -3.1520    -5.7176     0.0008 C.ar    
  30 C30           -2.6921    -4.4197    -0.0030 C.ar    
  31 O31           -4.9677    -7.2533     0.0095 O.3     
  32 C32           -3.9810    -8.2869    -0.0054 C.3     
  33 C33           -4.6723    -9.6519    -0.0060 C.3     
  34 H34            0.6551     3.0664    -1.9258 H       
  35 H35            2.6120     4.5590    -1.9314 H       
  36 H36            4.1529     4.5787    -0.0124 H       
  37 H37            3.7429     3.1056     1.9161 H       
  38 H38            1.7854     1.6139     1.9338 H       
  39 H39           -3.6200     2.6008     0.9389 H       
  40 H40           -3.5783     4.1489     0.0614 H       
  41 H41           -3.6292     2.6155    -0.8410 H       
  42 H42           -0.1349     3.8183     1.1156 H       
  43 H43           -1.5979     4.8306     1.1703 H       
  44 H44           -1.5233     3.3225     2.1128 H       
  45 H45            3.4438    -1.4378    -2.1779 H       
  46 H46            4.2532    -2.7596    -1.3026 H       
  47 H47            2.4776    -2.6368    -1.2850 H       
  48 H48            4.8409     0.2222     0.8471 H       
  49 H49            5.6333    -1.0900    -0.0575 H       
  50 H50            4.8239     0.2318    -0.9327 H       
  51 H51            2.5014    -2.6502     1.2133 H       
  52 H52            4.2771    -2.7730     1.1957 H       
  53 H53            3.4846    -1.4608     2.1003 H       
  54 H54           -1.1561    -2.4521    -0.0008 H       
  55 H55           -5.6797    -2.8017     0.0411 H       
  56 H56           -6.4866    -5.1223     0.0354 H       
  57 H57           -2.4502    -6.5384    -0.0099 H       
  58 H58           -1.6304    -4.2222    -0.0118 H       
  59 H59           -3.3670    -8.1902    -0.9008 H       
  60 H60           -3.3500    -8.1997     0.8791 H       
  61 H61           -3.9198   -10.4403    -0.0174 H       
  62 H62           -5.2864    -9.7486     0.8894 H       
  63 H63           -5.3034    -9.7391    -0.8905 H       
@<TRIPOS>BOND
   1    1    2 1
   2    1    7 1
   3    1    5 1
   4    2    3 2
   5    2    6 1
   6    3    4 1
   7    3   22 1
   8    4    5 2
   9    5   13 1
  10    6   16 2
  11    6   17 1
  12    7    8 ar
  13    7   12 ar
  14    8    9 ar
  15    8   34 1
  16    9   10 ar
  17    9   35 1
  18   10   11 ar
  19   10   36 1
  20   11   12 ar
  21   11   37 1
  22   12   38 1
  23   13   14 1
  24   13   15 1
  25   14   39 1
  26   14   40 1
  27   14   41 1
  28   15   42 1
  29   15   43 1
  30   15   44 1
  31   17   18 1
  32   18   19 1
  33   18   20 1
  34   18   21 1
  35   19   45 1
  36   19   46 1
  37   19   47 1
  38   20   48 1
  39   20   49 1
  40   20   50 1
  41   21   51 1
  42   21   52 1
  43   21   53 1
  44   22   23 am
  45   22   54 1
  46   23   24 1
  47   23   25 2
  48   24   26 ar
  49   24   30 ar
  50   26   27 ar
  51   26   55 1
  52   27   28 ar
  53   27   56 1
  54   28   29 ar
  55   28   31 1
  56   29   30 ar
  57   29   57 1
  58   30   58 1
  59   31   32 1
  60   32   33 1
  61   32   59 1
  62   32   60 1
  63   33   61 1
  64   33   62 1
  65   33   63 1

#	End of record

