#	Name: ASD03491005
#	Creating user name:	WinNT
#	Creation time:	15. 06. 2019 20:42

#	Modifying user name:	WinNT
#	Modification time:	15. 06. 2019 20:42

#	Program:	/corina/corina34_cracker 3.40 0067  02.08.2006

@<TRIPOS>MOLECULE
ASD03491005
  70   73    0    0    0
SMALL
NO_CHARGES


@<TRIPOS>ATOM
   1 C1            -0.0360     1.2707    -0.5021 C.ar    
   2 C2             0.0496     0.0950     0.2199 C.ar    
   3 C3             1.2660    -0.5574     0.3404 C.ar    
   4 C4             2.4012    -0.0254    -0.2683 C.ar    
   5 C5             2.3070     1.1552    -0.9919 C.ar    
   6 C6             1.0900     1.7994    -1.1065 C.ar    
   7 C7             0.9894     3.0812    -1.8925 C.3     
   8 N8             3.6323    -0.6792    -0.1499 N.am    
   9 C9             4.7797     0.0196    -0.2584 C.2     
  10 O10            4.7465     1.2030    -0.5285 O.2     
  11 C11            7.3374     0.0697    -0.2741 C.ar    
  12 C12            8.6276    -0.6204    -0.2027 C.ar    
  13 C13            9.8127     0.1180    -0.4278 C.ar    
  14 C14            9.7267     1.4981    -0.7147 C.ar    
  15 C15            8.4965     2.1264    -0.7756 C.ar    
  16 C16            7.3193     1.4357    -0.5684 C.ar    
  17 C17            8.7081    -1.9866     0.0826 C.ar    
  18 C18            9.9295    -2.5932     0.1407 C.ar    
  19 C19           11.0969    -1.8695    -0.0803 C.ar    
  20 C20           11.0523    -0.5362    -0.3611 C.ar    
  21 O21           10.8571     2.2114    -0.9313 O.3     
  22 C22           10.7016     3.6030    -1.2166 C.3     
  23 C23           12.0776     4.2366    -1.4306 C.3     
  24 N24           12.7004     3.6613    -2.6302 N.3     
  25 C25           13.9112     4.4065    -3.0042 C.3     
  26 C26           14.5595     3.7391    -4.2201 C.3     
  27 O27           13.6095     3.6788    -5.2875 O.3     
  28 C28           12.4181     2.9596    -4.9579 C.3     
  29 C29           11.7482     3.6190    -3.7495 C.3     
  30 C30            1.4116     2.8259    -3.3408 C.3     
  31 C31           -0.4550     3.5850    -1.8637 C.3     
  32 C32            1.9092     4.1341    -1.2711 C.3     
  33 C33            6.0887    -0.6600    -0.0471 C.2     
  34 O34            6.1199    -1.8204     0.3138 O.2     
  35 O35            1.3520    -1.7134     1.0510 O.3     
  36 C36            0.1478    -2.1993     1.6476 C.3     
  37 H37           -0.9859     1.7756    -0.5982 H       
  38 H38           -0.8318    -0.3150     0.6906 H       
  39 H39            3.1847     1.5706    -1.4646 H       
  40 H40            3.6602    -1.6355     0.0103 H       
  41 H41            8.4553     3.1828    -0.9962 H       
  42 H42            6.3758     1.9583    -0.6238 H       
  43 H43            7.8088    -2.5589     0.2564 H       
  44 H44            9.9904    -3.6487     0.3616 H       
  45 H45           12.0520    -2.3711    -0.0288 H       
  46 H46           11.9662     0.0138    -0.5306 H       
  47 H47           10.1015     3.7241    -2.1184 H       
  48 H48           10.2026     4.0918    -0.3798 H       
  49 H49           11.9657     5.3131    -1.5601 H       
  50 H50           12.7077     4.0385    -0.5636 H       
  51 H51           13.6443     5.4338    -3.2522 H       
  52 H52           14.6128     4.4033    -2.1701 H       
  53 H53           15.4254     4.3209    -4.5360 H       
  54 H54           14.8750     2.7297    -3.9561 H       
  55 H55           11.7354     2.9775    -5.8074 H       
  56 H56           12.6714     1.9275    -4.7154 H       
  57 H57           10.8708     3.0410    -3.4593 H       
  58 H58           11.4466     4.6338    -4.0093 H       
  59 H59            0.7563     2.0758    -3.7835 H       
  60 H60            1.3388     3.7530    -3.9093 H       
  61 H61            2.4407     2.4670    -3.3613 H       
  62 H62           -0.7559     3.7669    -0.8320 H       
  63 H63           -0.5279     4.5122    -2.4322 H       
  64 H64           -1.1104     2.8349    -2.3064 H       
  65 H65            2.9382     3.7752    -1.2917 H       
  66 H66            1.8364     5.0613    -1.8397 H       
  67 H67            1.6084     4.3160    -0.2394 H       
  68 H68            0.3558    -3.1254     2.1834 H       
  69 H69           -0.2384    -1.4552     2.3443 H       
  70 H70           -0.5925    -2.3878     0.8701 H       
@<TRIPOS>BOND
   1    1    2 ar
   2    1    6 ar
   3    1   37 1
   4    2    3 ar
   5    2   38 1
   6    3    4 ar
   7    3   35 1
   8    4    5 ar
   9    4    8 1
  10    5    6 ar
  11    5   39 1
  12    6    7 1
  13    7   30 1
  14    7   31 1
  15    7   32 1
  16    8    9 am
  17    8   40 1
  18    9   10 2
  19    9   33 1
  20   11   12 ar
  21   11   33 1
  22   11   16 ar
  23   12   13 ar
  24   12   17 ar
  25   13   14 ar
  26   13   20 ar
  27   14   15 ar
  28   14   21 1
  29   15   16 ar
  30   15   41 1
  31   16   42 1
  32   17   18 ar
  33   17   43 1
  34   18   19 ar
  35   18   44 1
  36   19   20 ar
  37   19   45 1
  38   20   46 1
  39   21   22 1
  40   22   23 1
  41   22   47 1
  42   22   48 1
  43   23   24 1
  44   23   49 1
  45   23   50 1
  46   24   25 1
  47   24   29 1
  48   25   26 1
  49   25   51 1
  50   25   52 1
  51   26   27 1
  52   26   53 1
  53   26   54 1
  54   27   28 1
  55   28   29 1
  56   28   55 1
  57   28   56 1
  58   29   57 1
  59   29   58 1
  60   30   59 1
  61   30   60 1
  62   30   61 1
  63   31   62 1
  64   31   63 1
  65   31   64 1
  66   32   65 1
  67   32   66 1
  68   32   67 1
  69   33   34 2
  70   35   36 1
  71   36   68 1
  72   36   69 1
  73   36   70 1

#	End of record

