#	Name: ASD01881250
#	Creating user name:	WinNT
#	Creation time:	15. 06. 2019 19:42

#	Modifying user name:	WinNT
#	Modification time:	15. 06. 2019 19:42

#	Program:	/corina/corina34_cracker 3.40 0067  02.08.2006

@<TRIPOS>MOLECULE
ASD01881250
  50   53    0    0    0
SMALL
NO_CHARGES


@<TRIPOS>ATOM
   1 C1             0.7225     1.1505    -2.9460 C.2     
   2 N2             0.6983    -0.1825    -2.7760 N.am    
   3 C3             1.9124    -0.5892    -2.0592 C.3     
   4 C4             2.6956     0.6749    -1.8066 C.ar    
   5 C5             3.8953     0.9300    -1.1891 C.ar    
   6 C6             4.3711     2.2348    -1.1099 C.ar    
   7 C7             3.6331     3.2795    -1.6546 C.ar    
   8 C8             2.4297     3.0294    -2.2749 C.ar    
   9 C9             1.9471     1.7199    -2.3576 C.ar    
  10 O10           -0.1411     1.7943    -3.5098 O.2     
  11 C11           -0.3655    -1.0814    -3.2306 C.3     
  12 C12           -0.0516    -1.5677    -4.6469 C.3     
  13 C13           -1.1626    -2.5064    -5.1218 C.3     
  14 O14            5.5566     2.4882    -0.4999 O.3     
  15 C15            5.9846     3.8509    -0.4546 C.3     
  16 C16            7.9192     2.7985     0.7426 C.ar    
  17 C17            7.3112     3.9373     0.2552 C.ar    
  18 C18            7.9406     5.1676     0.4277 C.ar    
  19 C19            9.1659     5.1956     1.0899 C.ar    
  20 C20            9.7080     4.0125     1.5476 C.ar    
  21 N21            9.0810     2.8657     1.3644 N.ar    
  22 O22            7.3749     6.3102    -0.0379 O.3     
  23 C23            8.0875     7.4627     0.0647 C.ar    
  24 C24            8.9538     7.8371    -0.9524 C.ar    
  25 C25            9.6771     9.0091    -0.8456 C.ar    
  26 C26            9.5383     9.8090     0.2737 C.ar    
  27 C27            8.6757     9.4382     1.2888 C.ar    
  28 C28            7.9458     8.2700     1.1843 C.ar    
  29 H29            1.6484    -1.0618    -1.1132 H       
  30 H30            2.4967    -1.2760    -2.6716 H       
  31 H31            4.4685     0.1188    -0.7652 H       
  32 H32            4.0051     4.2913    -1.5907 H       
  33 H33            1.8591     3.8436    -2.6965 H       
  34 H34           -0.4300    -1.9372    -2.5586 H       
  35 H35           -1.3160    -0.5480    -3.2319 H       
  36 H36            0.0129    -0.7119    -5.3190 H       
  37 H37            0.8989    -2.1011    -4.6456 H       
  38 H38           -2.1131    -1.9730    -5.1231 H       
  39 H39           -0.9390    -2.8529    -6.1308 H       
  40 H40           -1.2271    -3.3622    -4.4497 H       
  41 H41            6.0904     4.2324    -1.4701 H       
  42 H42            5.2459     4.4461     0.0821 H       
  43 H43            7.4361     1.8408     0.6173 H       
  44 H44            9.6845     6.1305     1.2424 H       
  45 H45           10.6576     4.0249     2.0621 H       
  46 H46            9.0628     7.2125    -1.8267 H       
  47 H47           10.3517     9.3008    -1.6369 H       
  48 H48           10.1049    10.7247     0.3555 H       
  49 H49            8.5694    10.0645     2.1622 H       
  50 H50            7.2688     7.9831     1.9753 H       
@<TRIPOS>BOND
   1    1    2 am
   2    1    9 1
   3    1   10 2
   4    2    3 1
   5    2   11 1
   6    3    4 1
   7    3   29 1
   8    3   30 1
   9    4    5 ar
  10    4    9 ar
  11    5    6 ar
  12    5   31 1
  13    6    7 ar
  14    6   14 1
  15    7    8 ar
  16    7   32 1
  17    8    9 ar
  18    8   33 1
  19   11   12 1
  20   11   34 1
  21   11   35 1
  22   12   13 1
  23   12   36 1
  24   12   37 1
  25   13   38 1
  26   13   39 1
  27   13   40 1
  28   14   15 1
  29   15   17 1
  30   15   41 1
  31   15   42 1
  32   16   17 ar
  33   16   21 ar
  34   16   43 1
  35   17   18 ar
  36   18   19 ar
  37   18   22 1
  38   19   20 ar
  39   19   44 1
  40   20   21 ar
  41   20   45 1
  42   22   23 1
  43   23   24 ar
  44   23   28 ar
  45   24   25 ar
  46   24   46 1
  47   25   26 ar
  48   25   47 1
  49   26   27 ar
  50   26   48 1
  51   27   28 ar
  52   27   49 1
  53   28   50 1

#	End of record

