#	Name: ASD01901394
#	Creating user name:	WinNT
#	Creation time:	15. 06. 2019 19:53

#	Modifying user name:	WinNT
#	Modification time:	15. 06. 2019 19:53

#	Program:	/corina/corina34_cracker 3.40 0067  02.08.2006

@<TRIPOS>MOLECULE
ASD01901394
  41   44    0    0    0
SMALL
NO_CHARGES


@<TRIPOS>ATOM
   1 C1            -0.0168     1.3893     0.0097 C.ar    
   2 N2             1.1062     2.0775     0.0027 N.ar    
   3 C3             2.2853     1.4872    -0.0117 C.ar    
   4 C4             2.3906     0.1034    -0.0206 C.ar    
   5 C5             1.2324    -0.6640    -0.0136 C.ar    
   6 C6             0.0021    -0.0041     0.0020 C.ar    
   7 C7            -1.2663    -0.7749     0.0104 C.2     
   8 N8            -2.7240    -2.2661     1.1176 N.2     
   9 C9            -1.6029    -1.5875     1.1148 C.2     
  10 C10           -2.1276    -0.7036    -1.0484 C.2     
  11 N11           -3.2843    -1.4240    -1.0084 N.pl3   
  12 C12           -3.5729    -2.2060     0.0805 C.2     
  13 C13           -4.3233    -1.5586    -1.8895 C.2     
  14 C14           -5.2113    -2.4069    -1.3292 C.2     
  15 N15           -4.7418    -2.7911    -0.1384 N.2     
  16 C16           -6.5139    -2.8488    -1.9447 C.3     
  17 O17           -6.6709    -2.2298    -3.2231 O.3     
  18 C18           -7.8022    -2.5246    -3.9168 C.ar    
  19 C19           -8.7437    -3.3873    -3.3752 C.ar    
  20 C20           -8.0188    -1.9586    -5.1645 C.ar    
  21 C21           -9.1691    -2.2588    -5.8683 C.ar    
  22 C22          -10.1058    -3.1238    -5.3285 C.ar    
  23 C23           -9.8931    -3.6857    -4.0811 C.ar    
  24 F24          -11.2307    -3.4158    -6.0173 F       
  25 O25            3.6115    -0.4937    -0.0363 O.3     
  26 C26            4.7536     0.3651    -0.0430 C.3     
  27 H27           -0.9626     1.9106     0.0260 H       
  28 H28            3.1819     2.0893    -0.0171 H       
  29 H29            1.2825    -1.7428    -0.0206 H       
  30 H30           -0.9338    -1.6502     1.9603 H       
  31 H31           -1.8956    -0.0859    -1.9034 H       
  32 H32           -4.4154    -1.0765    -2.8516 H       
  33 H33           -6.5105    -3.9323    -2.0637 H       
  34 H34           -7.3398    -2.5571    -1.2959 H       
  35 H35           -8.5781    -3.8258    -2.4022 H       
  36 H36           -7.2886    -1.2833    -5.5855 H       
  37 H37           -9.3379    -1.8182    -6.8397 H       
  38 H38          -10.6263    -4.3574    -3.6596 H       
  39 H39            4.7262     0.9991    -0.9292 H       
  40 H40            4.7443     0.9891     0.8506 H       
  41 H41            5.6615    -0.2379    -0.0556 H       
@<TRIPOS>BOND
   1    1    6 ar
   2    1    2 ar
   3    1   27 1
   4    2    3 ar
   5    3    4 ar
   6    3   28 1
   7    4    5 ar
   8    4   25 1
   9    5    6 ar
  10    5   29 1
  11    6    7 1
  12    7   10 2
  13    7    9 1
  14    8    9 2
  15    8   12 1
  16    9   30 1
  17   10   11 1
  18   10   31 1
  19   11   13 1
  20   11   12 1
  21   12   15 2
  22   13   14 2
  23   13   32 1
  24   14   15 1
  25   14   16 1
  26   16   17 1
  27   16   33 1
  28   16   34 1
  29   17   18 1
  30   18   20 ar
  31   18   19 ar
  32   19   23 ar
  33   19   35 1
  34   20   21 ar
  35   20   36 1
  36   21   22 ar
  37   21   37 1
  38   22   23 ar
  39   22   24 1
  40   23   38 1
  41   25   26 1
  42   26   39 1
  43   26   40 1
  44   26   41 1

#	End of record

