#	Name: ASD05300014
#	Creating user name:	WinNT
#	Creation time:	15. 06. 2019 20:58

#	Modifying user name:	WinNT
#	Modification time:	15. 06. 2019 20:58

#	Program:	/corina/corina34_cracker 3.40 0067  02.08.2006

@<TRIPOS>MOLECULE
ASD05300014
  42   44    0    0    0
SMALL
NO_CHARGES


@<TRIPOS>ATOM
   1 O1             0.0021    -0.0041     0.0020 O.2     
   2 C2            -0.0144     1.2086     0.0087 C.2     
   3 N3             1.1435     1.8983     0.0013 N.am    
   4 C4             2.3241     1.2406    -0.0135 C.2     
   5 C5             2.6366     0.4174    -1.0970 C.2     
   6 C6             3.8663    -0.2363    -1.1486 C.2     
   7 C7             4.7906    -0.0588    -0.1195 C.2     
   8 C8             4.4755     0.7554     0.9660 C.2     
   9 C9             3.2328     1.3923     1.0315 C.2     
  10 C10            2.8870     2.1703     2.2240 C.2     
  11 C11            2.2147     3.2754     2.2424 C.2     
  12 C12            1.6750     3.9668     1.0665 C.2     
  13 C13            1.1275     3.2489     0.0031 C.2     
  14 C14            0.5533     3.9297    -1.0741 C.2     
  15 C15            0.5670     5.3225    -1.1098 C.2     
  16 C16            1.1554     6.0392    -0.0682 C.2     
  17 C17            1.7100     5.3631     1.0165 C.2     
  18 N18           -1.1906     1.8666     0.0178 N.am    
  19 C19           -2.4492     1.1169     0.0197 C.3     
  20 C20           -2.5124     0.2295     1.2645 C.3     
  21 C21           -3.6255     2.0952     0.0306 C.3     
  22 C22           -2.5243     0.2431    -1.2339 C.3     
  23 H23            1.9233     0.2865    -1.8973 H       
  24 H24            4.1029    -0.8792    -1.9835 H       
  25 H25            5.7500    -0.5526    -0.1639 H       
  26 H26            5.1940     0.8950     1.7602 H       
  27 H27            3.2240     1.7856     3.1752 H       
  28 H28            2.0350     3.7277     3.2065 H       
  29 H29            0.0982     3.3747    -1.8812 H       
  30 H30            0.1229     5.8464    -1.9433 H       
  31 H31            1.1827     7.1183    -0.1022 H       
  32 H32            2.1653     5.9195     1.8223 H       
  33 H33           -1.2037     2.8365     0.0232 H       
  34 H34           -2.4590     0.8520     2.1576 H       
  35 H35           -3.4489    -0.3283     1.2659 H       
  36 H36           -1.6744    -0.4675     1.2567 H       
  37 H37           -3.5805     2.7274    -0.8561 H       
  38 H38           -4.5620     1.5374     0.0320 H       
  39 H39           -3.5721     2.7178     0.9238 H       
  40 H40           -1.6863    -0.4539    -1.2417 H       
  41 H41           -3.4608    -0.3147    -1.2325 H       
  42 H42           -2.4793     0.8753    -2.1207 H       
@<TRIPOS>BOND
   1    1    2 2
   2    2    3 am
   3    2   18 am
   4    3    4 1
   5    3   13 1
   6    4    5 2
   7    4    9 1
   8    5    6 1
   9    5   23 1
  10    6    7 2
  11    6   24 1
  12    7    8 1
  13    7   25 1
  14    8    9 2
  15    8   26 1
  16    9   10 1
  17   10   11 2
  18   10   27 1
  19   11   12 1
  20   11   28 1
  21   12   13 2
  22   12   17 1
  23   13   14 1
  24   14   15 2
  25   14   29 1
  26   15   16 1
  27   15   30 1
  28   16   17 2
  29   16   31 1
  30   17   32 1
  31   18   19 1
  32   18   33 1
  33   19   20 1
  34   19   21 1
  35   19   22 1
  36   20   34 1
  37   20   35 1
  38   20   36 1
  39   21   37 1
  40   21   38 1
  41   21   39 1
  42   22   40 1
  43   22   41 1
  44   22   42 1

#	End of record

