#	Name: ASD01730032
#	Creating user name:	WinNT
#	Creation time:	15. 06. 2019 19:23

#	Modifying user name:	WinNT
#	Modification time:	15. 06. 2019 19:23

#	Program:	/corina/corina34_cracker 3.40 0067  02.08.2006

@<TRIPOS>MOLECULE
ASD01730032
  47   48    0    0    0
SMALL
NO_CHARGES


@<TRIPOS>ATOM
   1 C1             0.0547     1.9231     0.1971 C.2     
   2 C2             0.8201     0.6766     0.5598 C.3     
   3 N3             0.6751     3.0724     0.1197 N.2     
   4 N4            -1.2800     1.8523    -0.0553 N.pl3   
   5 N5             2.6786     2.0399     0.5602 N.2     
   6 C6             2.0041     3.1396     0.3519 C.2     
   7 S7             2.8054     4.7086     0.3695 S.3     
   8 C8             4.0785     4.3737     1.6127 C.3     
   9 C9             4.7442     3.0580     1.2982 C.ar    
  10 C10            4.0175     1.9814     0.7931 C.ar    
  11 C11            6.1032     2.9335     1.5200 C.ar    
  12 C12            6.7540     1.7472     1.2410 C.ar    
  13 C13            6.0426     0.6681     0.7334 C.ar    
  14 C14            4.6838     0.7801     0.5093 C.ar    
  15 O15            6.6830    -0.4982     0.4567 O.3     
  16 C16            8.0882    -0.5432     0.7123 C.3     
  17 F17            8.3235    -0.2980     2.0694 F       
  18 F18            8.5835    -1.8071     0.3741 F       
  19 F19            8.7334     0.4315    -0.0564 F       
  20 C20           -2.0470     3.0782    -0.2906 C.3     
  21 C21           -2.0414     3.4041    -1.7855 C.3     
  22 C22           -2.8424     4.6843    -2.0313 C.3     
  23 C23           -1.9506     0.5503    -0.0918 C.3     
  24 C24           -2.4507     0.1948     1.3098 C.3     
  25 C25           -3.1511    -1.1650     1.2716 C.3     
  26 H26            1.2848     0.8070     1.5371 H       
  27 H27            0.1372    -0.1724     0.5926 H       
  28 H28            1.5917     0.4935    -0.1879 H       
  29 H29            4.8218     5.1709     1.5968 H       
  30 H30            3.6191     4.3227     2.5999 H       
  31 H31            6.6605     3.7704     1.9142 H       
  32 H32            7.8159     1.6592     1.4172 H       
  33 H33            4.1328    -0.0605     0.1141 H       
  34 H34           -3.0737     2.9347     0.0461 H       
  35 H35           -1.5949     3.9014     0.2624 H       
  36 H36           -1.0147     3.5476    -2.1223 H       
  37 H37           -2.4935     2.5808    -2.3386 H       
  38 H38           -3.8691     4.5409    -1.6945 H       
  39 H39           -2.3903     5.5076    -1.4782 H       
  40 H40           -2.8385     4.9166    -3.0962 H       
  41 H41           -2.7959     0.5961    -0.7784 H       
  42 H42           -1.2480    -0.2109    -0.4308 H       
  43 H43           -1.6054     0.1490     1.9964 H       
  44 H44           -3.1534     0.9560     1.6488 H       
  45 H45           -3.9964    -1.1192     0.5850 H       
  46 H46           -2.4484    -1.9262     0.9326 H       
  47 H47           -3.5074    -1.4183     2.2701 H       
@<TRIPOS>BOND
   1    1    2 1
   2    1    3 2
   3    1    4 1
   4    2   26 1
   5    2   27 1
   6    2   28 1
   7    3    6 1
   8    4   20 1
   9    4   23 1
  10    5    6 2
  11    5   10 1
  12    6    7 1
  13    7    8 1
  14    8    9 1
  15    8   29 1
  16    8   30 1
  17    9   10 ar
  18    9   11 ar
  19   10   14 ar
  20   11   12 ar
  21   11   31 1
  22   12   13 ar
  23   12   32 1
  24   13   14 ar
  25   13   15 1
  26   14   33 1
  27   15   16 1
  28   16   17 1
  29   16   18 1
  30   16   19 1
  31   20   21 1
  32   20   34 1
  33   20   35 1
  34   21   22 1
  35   21   36 1
  36   21   37 1
  37   22   38 1
  38   22   39 1
  39   22   40 1
  40   23   24 1
  41   23   41 1
  42   23   42 1
  43   24   25 1
  44   24   43 1
  45   24   44 1
  46   25   45 1
  47   25   46 1
  48   25   47 1

#	End of record

