#	Name: ASD09740354
#	Creating user name:	WinNT
#	Creation time:	15. 06. 2019 21:23

#	Modifying user name:	WinNT
#	Modification time:	15. 06. 2019 21:23

#	Program:	/corina/corina34_cracker 3.40 0067  02.08.2006

@<TRIPOS>MOLECULE
ASD09740354
  61   65    0    0    0
SMALL
NO_CHARGES


@<TRIPOS>ATOM
   1 O1            -0.4646    -0.7296    -0.2260 O.3     
   2 O2            -0.8834     1.9289    -0.7999 O.3     
   3 N3             5.9179    -1.4190    -0.1663 N.2     
   4 O4             4.7088    -1.3254    -0.1693 O.3     
   5 C5             6.4648    -0.2592    -0.4268 C.2     
   6 N6             5.4635     0.6275    -0.6054 N.2     
   7 C7             4.3489    -0.0607    -0.4396 C.2     
   8 C8             2.9704     0.4608    -0.5338 C.ar    
   9 C9             7.9188     0.0283    -0.5098 C.ar    
  10 C10            8.8453    -0.9937    -0.3006 C.ar    
  11 C11           10.1962    -0.7209    -0.3794 C.ar    
  12 C12           10.6262     0.5649    -0.6658 C.ar    
  13 C13            9.7112     1.5798    -0.8739 C.ar    
  14 C14            8.3584     1.3166    -0.8022 C.ar    
  15 C15            1.8834    -0.3934    -0.3321 C.ar    
  16 C16            0.5958     0.0993    -0.4213 C.ar    
  17 C17            0.3835     1.4459    -0.7121 C.ar    
  18 C18            1.4630     2.2940    -0.9123 C.ar    
  19 C19            2.7508     1.8098    -0.8190 C.ar    
  20 C20           -1.0286     3.3183    -1.1009 C.3     
  21 C21           -2.5153     3.6750    -1.1583 C.3     
  22 C22           -0.1733    -2.0974     0.0678 C.3     
  23 C23           -1.4814    -2.8688     0.2541 C.3     
  24 C24           10.9894    -1.9831    -0.1155 C.3     
  25 C25            9.9829    -3.1386    -0.3001 C.3     
  26 C26            8.6355    -2.4577     0.0211 C.3     
  27 N27           12.0889    -2.1055    -1.0820 N.3     
  28 C28           13.1462    -1.1150    -0.8078 C.3     
  29 C29           14.4626    -1.8950    -0.6074 C.3     
  30 C30           14.1895    -3.2354    -1.3393 C.3     
  31 C31           12.6867    -3.4570    -1.0360 C.3     
  32 O32           14.9833    -4.2893    -0.7904 O.3     
  33 H33           11.6837     0.7756    -0.7267 H       
  34 H34           10.0553     2.5790    -1.0966 H       
  35 H35            7.6430     2.1091    -0.9649 H       
  36 H36            2.0494    -1.4366    -0.1072 H       
  37 H37            1.2945     3.3368    -1.1374 H       
  38 H38            3.5894     2.4722    -0.9750 H       
  39 H39           -0.5424     3.9107    -0.3258 H       
  40 H40           -0.5664     3.5315    -2.0648 H       
  41 H41           -2.6261     4.7348    -1.3878 H       
  42 H42           -3.0015     3.0826    -1.9334 H       
  43 H43           -2.9776     3.4618    -0.1944 H       
  44 H44            0.3916    -2.5336    -0.7560 H       
  45 H45            0.4160    -2.1549     0.9830 H       
  46 H46           -2.0706    -2.8113    -0.6611 H       
  47 H47           -1.2592    -3.9121     0.4782 H       
  48 H48           -2.0462    -2.4326     1.0780 H       
  49 H49           11.3785    -1.9794     0.9027 H       
  50 H50            9.9972    -3.5047    -1.3266 H       
  51 H51           10.1865    -3.9459     0.4034 H       
  52 H52            8.3908    -2.5818     1.0760 H       
  53 H53            7.8439    -2.8724    -0.6030 H       
  54 H54           13.2439    -0.4335    -1.6529 H       
  55 H55           12.9051    -0.5559     0.0963 H       
  56 H56           15.2973    -1.3672    -1.0686 H       
  57 H57           14.6516    -2.0661     0.4523 H       
  58 H58           14.3612    -3.1370    -2.4112 H       
  59 H59           12.5599    -3.8946    -0.0458 H       
  60 H60           12.2367    -4.0969    -1.7950 H       
  61 H61           15.9363    -4.1465    -0.8706 H       
@<TRIPOS>BOND
   1    1   22 1
   2    1   16 1
   3    2   20 1
   4    2   17 1
   5    3    4 1
   6    3    5 2
   7    4    7 1
   8    5    6 1
   9    5    9 1
  10    6    7 2
  11    7    8 1
  12    8   15 ar
  13    8   19 ar
  14    9   10 ar
  15    9   14 ar
  16   10   11 ar
  17   10   26 1
  18   11   12 ar
  19   11   24 1
  20   12   13 ar
  21   12   33 1
  22   13   14 ar
  23   13   34 1
  24   14   35 1
  25   15   16 ar
  26   15   36 1
  27   16   17 ar
  28   17   18 ar
  29   18   19 ar
  30   18   37 1
  31   19   38 1
  32   20   21 1
  33   20   39 1
  34   20   40 1
  35   21   41 1
  36   21   42 1
  37   21   43 1
  38   22   23 1
  39   22   44 1
  40   22   45 1
  41   23   46 1
  42   23   47 1
  43   23   48 1
  44   24   25 1
  45   24   27 1
  46   24   49 1
  47   25   26 1
  48   25   50 1
  49   25   51 1
  50   26   52 1
  51   26   53 1
  52   27   28 1
  53   27   31 1
  54   28   29 1
  55   28   54 1
  56   28   55 1
  57   29   30 1
  58   29   56 1
  59   29   57 1
  60   30   31 1
  61   30   32 1
  62   30   58 1
  63   31   59 1
  64   31   60 1
  65   32   61 1

#	End of record

