#	Name: ASD01812480
#	Creating user name:	WinNT
#	Creation time:	15. 06. 2019 19:28

#	Modifying user name:	WinNT
#	Modification time:	15. 06. 2019 19:28

#	Program:	/corina/corina34_cracker 3.40 0067  02.08.2006

@<TRIPOS>MOLECULE
ASD01812480
  51   55    0    0    0
SMALL
NO_CHARGES


@<TRIPOS>ATOM
   1 O1            -0.0173     1.4248     0.0099 O.3     
   2 C2             0.0021    -0.0041     0.0020 C.3     
   3 H3             0.5123    -0.3556    -0.8948 H       
   4 C4             0.7421    -0.5109     1.2415 C.3     
   5 C5             0.7628    -2.0407     1.2331 C.3     
   6 C6            -0.6726    -2.5703     1.2440 C.3     
   7 C7            -1.4126    -2.0635     0.0045 C.3     
   8 C8            -1.4333    -0.5336     0.0129 C.3     
   9 H9            -1.9435    -0.1821     0.9097 H       
  10 N10           -2.1419    -0.0483    -1.1740 N.am    
  11 C11           -1.6848    -0.3706    -2.4098 C.2     
  12 N12           -2.2622     0.0249    -3.5067 N.2     
  13 C13           -3.3663     0.7898    -3.4888 C.ar    
  14 C14           -3.9184     1.1772    -2.2537 C.ar    
  15 C15           -5.0708     1.9766    -2.2076 C.ar    
  16 C16           -5.6833     2.3975    -3.3411 C.ar    
  17 C17           -6.9185     3.2552    -3.2425 C.3     
  18 C18           -8.1441     2.3826    -3.3288 C.ar    
  19 C19           -8.7182     2.0986    -4.5587 C.ar    
  20 C20           -9.8444     1.2913    -4.5908 C.ar    
  21 C21          -10.3548     0.7990    -3.4028 C.ar    
  22 Cl22         -11.7645    -0.2137    -3.4284 Cl      
  23 N23           -9.7816     1.0906    -2.2503 N.ar    
  24 C24           -8.7063     1.8511    -2.1838 C.ar    
  25 C25           -5.1825     2.0457    -4.6099 C.ar    
  26 C26           -5.8027     2.4729    -5.7938 C.ar    
  27 N27           -5.3050     2.1245    -6.9581 N.ar    
  28 C28           -4.2219     1.3727    -7.0782 C.ar    
  29 C29           -3.5472     0.9069    -5.9859 C.ar    
  30 C30           -4.0211     1.2390    -4.7116 C.ar    
  31 C31           -3.2508     0.7136    -1.0296 C.2     
  32 O32           -3.6768     1.0074     0.0727 O.2     
  33 H33            0.8606     1.8301     0.0037 H       
  34 H34            1.7647    -0.1336     1.2338 H       
  35 H35            0.2319    -0.1594     2.1383 H       
  36 H36            1.2730    -2.3923     0.3363 H       
  37 H37            1.2900    -2.4018     2.1162 H       
  38 H38           -0.6578    -3.6602     1.2380 H       
  39 H39           -1.1828    -2.2188     2.1408 H       
  40 H40           -0.9024    -2.4150    -0.8923 H       
  41 H41           -2.4352    -2.4408     0.0122 H       
  42 H42           -0.7994    -0.9842    -2.4870 H       
  43 H43           -5.4782     2.2622    -1.2491 H       
  44 H44           -6.9169     3.7864    -2.2907 H       
  45 H45           -6.9269     3.9755    -4.0606 H       
  46 H46           -8.2979     2.4974    -5.4702 H       
  47 H47          -10.3177     1.0498    -5.5310 H       
  48 H48           -8.2622     2.0646    -1.2227 H       
  49 H49           -6.6894     3.0878    -5.7476 H       
  50 H50           -3.8630     1.1209    -8.0653 H       
  51 H51           -2.6655     0.2944    -6.1032 H       
@<TRIPOS>BOND
   1    1    2 1
   2    1   33 1
   3    2    3 1
   4    2    8 1
   5    2    4 1
   6    4    5 1
   7    4   34 1
   8    4   35 1
   9    5    6 1
  10    5   36 1
  11    5   37 1
  12    6    7 1
  13    6   38 1
  14    6   39 1
  15    7    8 1
  16    7   40 1
  17    7   41 1
  18    8    9 1
  19    8   10 1
  20   10   31 am
  21   10   11 1
  22   11   12 2
  23   11   42 1
  24   12   13 1
  25   13   30 ar
  26   13   14 ar
  27   14   15 ar
  28   14   31 1
  29   15   16 ar
  30   15   43 1
  31   16   17 1
  32   16   25 ar
  33   17   18 1
  34   17   44 1
  35   17   45 1
  36   18   24 ar
  37   18   19 ar
  38   19   20 ar
  39   19   46 1
  40   20   21 ar
  41   20   47 1
  42   21   22 1
  43   21   23 ar
  44   23   24 ar
  45   24   48 1
  46   25   30 ar
  47   25   26 ar
  48   26   27 ar
  49   26   49 1
  50   27   28 ar
  51   28   29 ar
  52   28   50 1
  53   29   30 ar
  54   29   51 1
  55   31   32 2

#	End of record

