#	Name: ASD03080113
#	Creating user name:	WinNT
#	Creation time:	15. 06. 2019 20:26

#	Modifying user name:	WinNT
#	Modification time:	15. 06. 2019 20:26

#	Program:	/corina/corina34_cracker 3.40 0067  02.08.2006

@<TRIPOS>MOLECULE
ASD03080113
  27   29    0    0    0
SMALL
NO_CHARGES


@<TRIPOS>ATOM
   1 N1             0.0175    -1.1399    -0.0042 N.1     
   2 C2             0.0021    -0.0041     0.0020 C.1     
   3 C3            -0.0173     1.4278     0.0099 C.ar    
   4 C4             1.1809     2.1449     0.0023 C.ar    
   5 C5             1.1589     3.5248     0.0100 C.ar    
   6 C6            -0.0463     4.2013     0.0252 C.ar    
   7 C7            -1.2443     3.4969     0.0333 C.ar    
   8 C8            -1.2338     2.1115     0.0194 C.ar    
   9 N9            -2.4640     4.1885     0.0496 N.pl3   
  10 N10           -3.6296     3.6422     0.0588 N.2     
  11 N11           -4.5267     4.5689     0.0730 N.2     
  12 C12           -3.8835     5.7455     0.0726 C.2     
  13 N13           -2.5937     5.4706     0.0634 N.2     
  14 C14           -4.5025     7.0942     0.0855 C.ar    
  15 C15           -5.8896     7.2173     0.1003 C.ar    
  16 C16           -6.4527     8.4820     0.1122 C.ar    
  17 C17           -5.6084     9.5829     0.1089 C.ar    
  18 C18           -4.2394     9.3873     0.0940 C.ar    
  19 N19           -3.7298     8.1726     0.0884 N.ar    
  20 H20            2.1246     1.6197    -0.0092 H       
  21 H21            2.0865     4.0778     0.0044 H       
  22 H22           -0.0571     5.2813     0.0311 H       
  23 H23           -2.1639     1.5626     0.0253 H       
  24 H24           -6.5173     6.3384     0.1020 H       
  25 H25           -7.5252     8.6088     0.1234 H       
  26 H26           -6.0162    10.5828     0.1176 H       
  27 H27           -3.5792    10.2420     0.0911 H       
@<TRIPOS>BOND
   1    1    2 3
   2    2    3 1
   3    3    4 ar
   4    3    8 ar
   5    4    5 ar
   6    4   20 1
   7    5    6 ar
   8    5   21 1
   9    6    7 ar
  10    6   22 1
  11    7    8 ar
  12    7    9 1
  13    8   23 1
  14    9   10 1
  15    9   13 1
  16   10   11 2
  17   11   12 1
  18   12   13 2
  19   12   14 1
  20   14   15 ar
  21   14   19 ar
  22   15   16 ar
  23   15   24 1
  24   16   17 ar
  25   16   25 1
  26   17   18 ar
  27   17   26 1
  28   18   19 ar
  29   18   27 1

#	End of record

