#	Name: ASD01810058
#	Creating user name:	WinNT
#	Creation time:	15. 06. 2019 19:23

#	Modifying user name:	WinNT
#	Modification time:	15. 06. 2019 19:23

#	Program:	/corina/corina34_cracker 3.40 0067  02.08.2006

@<TRIPOS>MOLECULE
ASD01810058
  61   65    0    0    0
SMALL
NO_CHARGES


@<TRIPOS>ATOM
   1 C1             0.1886     1.0596    -1.4080 C.ar    
   2 C2             0.2548    -0.3172    -1.5319 C.ar    
   3 C3             1.4769    -0.9609    -1.5077 C.ar    
   4 C4             2.6417    -0.2244    -1.3587 C.ar    
   5 C5             2.5750     1.1651    -1.2337 C.ar    
   6 C6             1.3441     1.8021    -1.2591 C.ar    
   7 N7             3.9898    -0.5696    -1.2980 N.am    
   8 C8             4.7097     0.5576    -1.1433 C.2     
   9 N9             3.8845     1.6206    -1.1010 N.am    
  10 C10            4.2943     3.0182    -0.9433 C.3     
  11 C11            5.0431     3.1856     0.3817 C.3     
  12 C12            5.5214     4.6334     0.5125 C.3     
  13 N13            6.4040     4.9624    -0.6141 N.3     
  14 C14            5.6931     4.8546    -1.8946 C.3     
  15 C15            5.2200     3.4133    -2.0972 C.3     
  16 O16            5.9224     0.6080    -1.0554 O.2     
  17 C17            6.9922     6.2983    -0.4494 C.3     
  18 C18            7.9991     6.5562    -1.5738 C.3     
  19 C19            8.5633     7.9717    -1.4319 C.3     
  20 N20            7.4667     8.9461    -1.4995 N.3     
  21 C21            6.5119     8.7480    -0.4015 C.3     
  22 C22            5.8865     7.3556    -0.5126 C.3     
  23 C23            7.9839    10.3211    -1.5057 C.3     
  24 C24            6.8921    11.2664    -1.9362 C.ar    
  25 C25            6.4921    11.3039    -3.2587 C.ar    
  26 C26            5.4905    12.1712    -3.6536 C.ar    
  27 C27            4.8889    13.0005    -2.7259 C.ar    
  28 C28            5.2884    12.9624    -1.4029 C.ar    
  29 C29            6.2867    12.0923    -1.0073 C.ar    
  30 N30            7.1363    10.4158    -4.2522 N.pl3   
  31 O31            6.7200    10.3786    -5.3962 O.2     
  32 O32            8.0828     9.7221    -3.9257 O.2     
  33 H33           -0.7702     1.5562    -1.4324 H       
  34 H34           -0.6529    -0.8909    -1.6476 H       
  35 H35            1.5246    -2.0355    -1.6043 H       
  36 H36            1.2885     2.8763    -1.1631 H       
  37 H37            4.3487    -1.4688    -1.3567 H       
  38 H38            3.4125     3.6589    -0.9468 H       
  39 H39            4.3756     2.9466     1.2097 H       
  40 H40            5.9025     2.5153     0.4012 H       
  41 H41            4.6606     5.3021     0.5068 H       
  42 H42            6.0673     4.7525     1.4483 H       
  43 H43            4.8316     5.5223    -1.8890 H       
  44 H44            6.3639     5.1342    -2.7070 H       
  45 H45            6.0822     2.7467    -2.1167 H       
  46 H46            4.6790     3.3371    -3.0403 H       
  47 H47            7.4990     6.3569     0.5139 H       
  48 H48            8.8114     5.8324    -1.5080 H       
  49 H49            7.5007     6.4581    -2.5382 H       
  50 H50            9.0734     8.0650    -0.4732 H       
  51 H51            9.2699     8.1637    -2.2394 H       
  52 H52            7.0317     8.8376     0.5524 H       
  53 H53            5.7287     9.5037    -0.4605 H       
  54 H54            5.3549     7.2701    -1.4603 H       
  55 H55            5.1895     7.2030     0.3114 H       
  56 H56            8.3207    10.5871    -0.5038 H       
  57 H57            8.8204    10.3914    -2.2009 H       
  58 H58            5.1784    12.2010    -4.6871 H       
  59 H59            4.1070    13.6786    -3.0346 H       
  60 H60            4.8186    13.6107    -0.6781 H       
  61 H61            6.5988    12.0625     0.0262 H       
@<TRIPOS>BOND
   1    1    2 ar
   2    1    6 ar
   3    1   33 1
   4    2    3 ar
   5    2   34 1
   6    3    4 ar
   7    3   35 1
   8    4    5 ar
   9    4    7 1
  10    5    6 ar
  11    5    9 1
  12    6   36 1
  13    7    8 am
  14    7   37 1
  15    8    9 am
  16    8   16 2
  17    9   10 1
  18   10   11 1
  19   10   15 1
  20   10   38 1
  21   11   12 1
  22   11   39 1
  23   11   40 1
  24   12   13 1
  25   12   41 1
  26   12   42 1
  27   13   14 1
  28   13   17 1
  29   14   15 1
  30   14   43 1
  31   14   44 1
  32   15   45 1
  33   15   46 1
  34   17   18 1
  35   17   22 1
  36   17   47 1
  37   18   19 1
  38   18   48 1
  39   18   49 1
  40   19   20 1
  41   19   50 1
  42   19   51 1
  43   20   21 1
  44   20   23 1
  45   21   22 1
  46   21   52 1
  47   21   53 1
  48   22   54 1
  49   22   55 1
  50   23   24 1
  51   23   56 1
  52   23   57 1
  53   24   25 ar
  54   24   29 ar
  55   25   26 ar
  56   25   30 1
  57   26   27 ar
  58   26   58 1
  59   27   28 ar
  60   27   59 1
  61   28   29 ar
  62   28   60 1
  63   29   61 1
  64   30   31 2
  65   30   32 2

#	End of record

