#	Name: ASD01917215
#	Creating user name:	WinNT
#	Creation time:	15. 06. 2019 20:08

#	Modifying user name:	WinNT
#	Modification time:	15. 06. 2019 20:08

#	Program:	/corina/corina34_cracker 3.40 0067  02.08.2006

@<TRIPOS>MOLECULE
ASD01917215
  41   44    0    0    0
SMALL
NO_CHARGES


@<TRIPOS>ATOM
   1 C1            -0.0179     1.4687     0.0101 C.2     
   2 C2             0.0021    -0.0041     0.0020 C.2     
   3 N3             1.1556     2.1904     0.0028 N.pl3   
   4 N4             1.1957    -0.5891     0.2671 N.am    
   5 C5             2.3540     0.1834     0.6992 C.3     
   6 C6             2.4625     1.5323    -0.0110 C.3     
   7 N7             0.8213     3.5381     0.0116 N.2     
   8 C8            -0.4913     3.6460     0.0247 C.2     
   9 C9            -1.0494     2.3600     0.0192 C.2     
  10 O10           -0.9967    -0.6586    -0.2292 O.2     
  11 C11            1.3254    -2.0405     0.1155 C.3     
  12 C12            1.7639    -2.3668    -1.3136 C.3     
  13 C13            2.0697    -3.8295    -1.6421 C.3     
  14 C14            0.7972    -3.1739    -2.1823 C.3     
  15 O15           -1.1901     4.8127     0.0373 O.3     
  16 C16           -0.4312     6.0235     0.0357 C.3     
  17 C17           -1.3682     7.2037     0.0507 C.ar    
  18 C18           -1.7861     7.7392     1.2547 C.ar    
  19 C19           -2.6457     8.8217     1.2685 C.ar    
  20 C20           -3.0870     9.3690     0.0783 C.ar    
  21 C21           -2.6684     8.8342    -1.1257 C.ar    
  22 C22           -1.8054     7.7544    -1.1395 C.ar    
  23 H23            2.2810     0.3562     1.7729 H       
  24 H24            3.2566    -0.3937     0.4983 H       
  25 H25            2.7806     1.3760    -1.0418 H       
  26 H26            3.1908     2.1581     0.5048 H       
  27 H27           -2.1023     2.1196     0.0228 H       
  28 H28            2.0701    -2.4141     0.8183 H       
  29 H29            0.3648    -2.5142     0.3179 H       
  30 H30            2.3665    -1.6037    -1.8062 H       
  31 H31            2.8732    -4.0287    -2.3512 H       
  32 H32            1.9585    -4.5593    -0.8402 H       
  33 H33           -0.1513    -3.4725    -1.7358 H       
  34 H34            0.7635    -2.9419    -3.2468 H       
  35 H35            0.2059     6.0542     0.9196 H       
  36 H36            0.1883     6.0629    -0.8603 H       
  37 H37           -1.4414     7.3115     2.1846 H       
  38 H38           -2.9727     9.2396     2.2091 H       
  39 H39           -3.7591    10.2144     0.0891 H       
  40 H40           -3.0134     9.2616    -2.0555 H       
  41 H41           -1.4754     7.3388    -2.0801 H       
@<TRIPOS>BOND
   1    1    2 1
   2    1    3 1
   3    1    9 2
   4    2    4 am
   5    2   10 2
   6    3    6 1
   7    3    7 1
   8    4    5 1
   9    4   11 1
  10    5    6 1
  11    5   23 1
  12    5   24 1
  13    6   25 1
  14    6   26 1
  15    7    8 2
  16    8    9 1
  17    8   15 1
  18    9   27 1
  19   11   12 1
  20   11   28 1
  21   11   29 1
  22   12   13 1
  23   12   14 1
  24   12   30 1
  25   13   14 1
  26   13   31 1
  27   13   32 1
  28   14   33 1
  29   14   34 1
  30   15   16 1
  31   16   17 1
  32   16   35 1
  33   16   36 1
  34   17   18 ar
  35   17   22 ar
  36   18   19 ar
  37   18   37 1
  38   19   20 ar
  39   19   38 1
  40   20   21 ar
  41   20   39 1
  42   21   22 ar
  43   21   40 1
  44   22   41 1

#	End of record

