#	Name: ASD00170447
#	Creating user name:	WinNT
#	Creation time:	15. 06. 2019 18:32

#	Modifying user name:	WinNT
#	Modification time:	15. 06. 2019 18:32

#	Program:	/corina/corina34_cracker 3.40 0067  02.08.2006

@<TRIPOS>MOLECULE
ASD00170447
  62   67    0    0    0
SMALL
NO_CHARGES


@<TRIPOS>ATOM
   1 C1            -0.0026     1.3287    -0.0016 C.2     
   2 C2            -0.0259    -0.0475     0.0638 C.2     
   3 C3            -1.3638    -0.5805     0.1622 C.2     
   4 C4            -2.3064     0.3703     0.1696 C.2     
   5 S5            -1.5822     1.9647     0.0619 S.3     
   6 C6            -1.6680    -2.0540     0.2468 C.3     
   7 N7             1.1434     2.0881    -0.0992 N.pl3   
   8 C8             1.1775    -0.8800     0.0365 C.2     
   9 C9             1.6556    -1.4466    -1.2428 C.ar    
  10 O10            1.7850    -1.1061     1.0673 O.2     
  11 C11            2.7364    -2.3304    -1.2575 C.ar    
  12 C12            3.1775    -2.8559    -2.4537 C.ar    
  13 C13            2.5506    -2.5086    -3.6390 C.ar    
  14 C14            1.4779    -1.6323    -3.6307 C.ar    
  15 C15            1.0245    -1.1045    -2.4403 C.ar    
  16 Cl16           3.1120    -3.1738    -5.1410 Cl      
  17 C17           -3.7585     0.1122     0.2615 C.ar    
  18 C18           -4.2569    -0.7496     1.2402 C.ar    
  19 C19           -5.6136    -0.9862     1.3203 C.ar    
  20 C20           -6.4798    -0.3715     0.4335 C.ar    
  21 C21           -5.9924     0.4834    -0.5391 C.ar    
  22 C22           -4.6386     0.7336    -0.6264 C.ar    
  23 N23           -1.5630    -2.4963     1.6437 N.3     
  24 C24           -3.5770    -5.7019     1.3945 C.3     
  25 C25           -3.4579    -6.1243     2.8602 C.3     
  26 C26           -2.0373    -5.8480     3.3568 C.3     
  27 C27           -1.7346    -4.3536     3.2306 C.3     
  28 C28           -1.8537    -3.9311     1.7649 C.3     
  29 C29           -3.2742    -4.2074     1.2683 C.3     
  30 C30           -2.5782    -6.4975     0.5516 C.3     
  31 C31           -1.0386    -6.6437     2.5139 C.3     
  32 C32           -0.8550    -4.7268     0.9220 C.3     
  33 C33           -1.1577    -6.2212     1.0482 C.3     
  34 H34           -2.6788    -2.2379    -0.1175 H       
  35 H35           -0.9552    -2.6078    -0.3642 H       
  36 H36            2.0134     1.6615    -0.0526 H       
  37 H37            1.0801     3.0491    -0.2146 H       
  38 H38            3.2262    -2.6016    -0.3340 H       
  39 H39            4.0136    -3.5394    -2.4663 H       
  40 H40            0.9933    -1.3649    -4.5581 H       
  41 H41            0.1878    -0.4216    -2.4350 H       
  42 H42           -3.5819    -1.2303     1.9327 H       
  43 H43           -6.0005    -1.6529     2.0767 H       
  44 H44           -7.5411    -0.5602     0.5006 H       
  45 H45           -6.6739     0.9597    -1.2285 H       
  46 H46           -4.2594     1.4011    -1.3861 H       
  47 H47           -0.6547    -2.2779     2.0248 H       
  48 H48           -4.5890    -5.8987     1.0407 H       
  49 H49           -4.1694    -5.5575     3.4607 H       
  50 H50           -3.6735    -7.1890     2.9501 H       
  51 H51           -1.9525    -6.1490     4.4010 H       
  52 H52           -2.4461    -3.7867     3.8310 H       
  53 H53           -0.7226    -4.1567     3.5844 H       
  54 H54           -3.3591    -3.9065     0.2241 H       
  55 H55           -3.9857    -3.6406     1.8687 H       
  56 H56           -2.7939    -7.5622     0.6416 H       
  57 H57           -2.6631    -6.1965    -0.4925 H       
  58 H58           -0.0266    -6.4468     2.8677 H       
  59 H59           -1.2543    -7.7083     2.6039 H       
  60 H60           -0.9398    -4.4258    -0.1222 H       
  61 H61            0.1570    -4.5299     1.2758 H       
  62 H62           -0.4462    -6.7880     0.4478 H       
@<TRIPOS>BOND
   1    1    2 2
   2    1    7 1
   3    1    5 1
   4    2    3 1
   5    2    8 1
   6    3    4 2
   7    3    6 1
   8    4    5 1
   9    4   17 1
  10    6   23 1
  11    6   34 1
  12    6   35 1
  13    7   36 1
  14    7   37 1
  15    8    9 1
  16    8   10 2
  17    9   11 ar
  18    9   15 ar
  19   11   12 ar
  20   11   38 1
  21   12   13 ar
  22   12   39 1
  23   13   14 ar
  24   13   16 1
  25   14   15 ar
  26   14   40 1
  27   15   41 1
  28   17   18 ar
  29   17   22 ar
  30   18   19 ar
  31   18   42 1
  32   19   20 ar
  33   19   43 1
  34   20   21 ar
  35   20   44 1
  36   21   22 ar
  37   21   45 1
  38   22   46 1
  39   23   28 1
  40   23   47 1
  41   24   25 1
  42   24   30 1
  43   24   29 1
  44   24   48 1
  45   25   26 1
  46   25   49 1
  47   25   50 1
  48   26   27 1
  49   26   31 1
  50   26   51 1
  51   27   28 1
  52   27   52 1
  53   27   53 1
  54   28   29 1
  55   28   32 1
  56   29   54 1
  57   29   55 1
  58   30   33 1
  59   30   56 1
  60   30   57 1
  61   31   33 1
  62   31   58 1
  63   31   59 1
  64   32   33 1
  65   32   60 1
  66   32   61 1
  67   33   62 1

#	End of record

