#	Name: ASD01813806
#	Creating user name:	WinNT
#	Creation time:	15. 06. 2019 19:31

#	Modifying user name:	WinNT
#	Modification time:	15. 06. 2019 19:31

#	Program:	/corina/corina34_cracker 3.40 0067  02.08.2006

@<TRIPOS>MOLECULE
ASD01813806
  50   53    0    0    0
SMALL
NO_CHARGES


@<TRIPOS>ATOM
   1 C1             1.5775     2.5889    -0.1250 C.2     
   2 C2             1.0813     1.2877    -0.2818 C.2     
   3 C3             1.9384     0.2289    -0.2085 C.2     
   4 C4             3.3045     0.4611     0.0229 C.2     
   5 N5             3.7616     1.7422     0.1726 N.am    
   6 C6             2.8957     2.7926     0.0970 C.2     
   7 C7             4.1874    -0.6254     0.0987 C.2     
   8 C8             5.5162    -0.4109     0.3235 C.2     
   9 C9             5.9829     0.9079     0.4764 C.2     
  10 C10            5.0701     1.9793     0.3954 C.2     
  11 O11            5.4658     3.1253     0.5263 O.2     
  12 C12            7.4041     1.1651     0.7190 C.2     
  13 O13            7.8451     2.4316     0.8648 O.3     
  14 O14            8.1869     0.2367     0.7891 O.2     
  15 C15            3.6688    -2.0305    -0.0677 C.3     
  16 N16            3.8286    -2.4490    -1.4667 N.3     
  17 C17            3.5573    -3.8845    -1.6211 C.3     
  18 C18            3.8758    -4.3192    -3.0236 C.2     
  19 N19            4.6355    -3.5937    -3.8510 N.am    
  20 C20            5.1954    -2.2967    -3.4821 C.3     
  21 C21            5.1779    -2.1313    -1.9615 C.3     
  22 O22            3.4254    -5.3726    -3.4219 O.2     
  23 C23            4.9062    -4.1002    -5.1270 C.ar    
  24 C24            4.0671    -3.7932    -6.1895 C.ar    
  25 C25            4.3375    -4.2954    -7.4489 C.ar    
  26 C26            5.4428    -5.1033    -7.6501 C.ar    
  27 C27            6.2795    -5.4105    -6.5929 C.ar    
  28 C28            6.0182    -4.9064    -5.3340 C.ar    
  29 Cl29           3.2893    -3.9126    -8.7788 Cl      
  30 C30            2.0804    -4.1566    -1.3281 C.3     
  31 H31            0.9054     3.4322    -0.1863 H       
  32 H32            0.0285     1.1244    -0.4588 H       
  33 H33            1.5699    -0.7793    -0.3271 H       
  34 H34            3.2670     3.7996     0.2166 H       
  35 H35            6.2016    -1.2434     0.3837 H       
  36 H36            8.7915     2.5514     1.0232 H       
  37 H37            4.2305    -2.7041     0.5795 H       
  38 H38            2.6134    -2.0627     0.2029 H       
  39 H39            4.1733    -4.4466    -0.9193 H       
  40 H40            6.2225    -2.2309    -3.8412 H       
  41 H41            4.6030    -1.5039    -3.9389 H       
  42 H42            5.4295    -1.1028    -1.7027 H       
  43 H43            5.9014    -2.8113    -1.5115 H       
  44 H44            3.2041    -3.1633    -6.0324 H       
  45 H45            5.6521    -5.4949    -8.6346 H       
  46 H46            7.1412    -6.0416    -6.7529 H       
  47 H47            6.6725    -5.1467    -4.5091 H       
  48 H48            1.4616    -3.5920    -2.0255 H       
  49 H49            1.8776    -5.2214    -1.4422 H       
  50 H50            1.8500    -3.8501    -0.3078 H       
@<TRIPOS>BOND
   1    1    2 1
   2    1    6 2
   3    1   31 1
   4    2    3 2
   5    2   32 1
   6    3    4 1
   7    3   33 1
   8    4    5 1
   9    4    7 2
  10    5    6 1
  11    5   10 am
  12    6   34 1
  13    7    8 1
  14    7   15 1
  15    8    9 2
  16    8   35 1
  17    9   10 1
  18    9   12 1
  19   10   11 2
  20   12   13 1
  21   12   14 2
  22   13   36 1
  23   15   16 1
  24   15   37 1
  25   15   38 1
  26   16   17 1
  27   16   21 1
  28   17   18 1
  29   17   30 1
  30   17   39 1
  31   18   19 am
  32   18   22 2
  33   19   20 1
  34   19   23 1
  35   20   21 1
  36   20   40 1
  37   20   41 1
  38   21   42 1
  39   21   43 1
  40   23   24 ar
  41   23   28 ar
  42   24   25 ar
  43   24   44 1
  44   25   26 ar
  45   25   29 1
  46   26   27 ar
  47   26   45 1
  48   27   28 ar
  49   27   46 1
  50   28   47 1
  51   30   48 1
  52   30   49 1
  53   30   50 1

#	End of record

