#	Name: ASD01900691
#	Creating user name:	WinNT
#	Creation time:	15. 06. 2019 19:52

#	Modifying user name:	WinNT
#	Modification time:	15. 06. 2019 19:52

#	Program:	/corina/corina34_cracker 3.40 0067  02.08.2006

@<TRIPOS>MOLECULE
ASD01900691
  35   38    0    0    0
SMALL
NO_CHARGES


@<TRIPOS>ATOM
   1 C1            -0.0184     1.4027     0.1329 C.ar    
   2 C2            -0.0082     0.0179     0.1218 C.ar    
   3 C3             1.1828    -0.6776     0.0633 C.ar    
   4 C4             2.3874     0.0114     0.0141 C.ar    
   5 C5             2.3724     1.4127     0.0294 C.ar    
   6 O6             3.5586    -0.6569    -0.0551 O.3     
   7 C7             4.7342    -0.0519     0.1918 C.2     
   8 C8             4.8729     1.2972     0.2216 C.2     
   9 C9             3.6749     2.1254    -0.0105 C.2     
  10 C10            5.9185    -0.8877     0.4392 C.2     
  11 N11            7.1260    -0.2748     0.6928 N.am    
  12 C12            8.2441    -0.9929     0.9260 C.2     
  13 C13            8.1639    -2.4589     0.9079 C.ar    
  14 C14            6.9129    -3.0665     0.6457 C.ar    
  15 C15            5.7859    -2.2393     0.4159 C.2     
  16 C16            1.1701     2.1049     0.0867 C.ar    
  17 C17            9.2832    -3.2565     1.1408 C.ar    
  18 C18            9.1560    -4.6287     1.1124 C.ar    
  19 C19            7.9270    -5.2218     0.8549 C.ar    
  20 C20            6.8153    -4.4610     0.6235 C.ar    
  21 O21            9.3031    -0.4341     1.1476 O.2     
  22 N22            3.7548     3.4137    -0.2397 N.2     
  23 O23            2.5957     4.1415    -0.6026 O.3     
  24 H24           -0.9575     1.9346     0.1731 H       
  25 H25           -0.9419    -0.5236     0.1598 H       
  26 H26            1.1778    -1.7576     0.0562 H       
  27 H27            5.8339     1.7523     0.4108 H       
  28 H28            7.1734     0.6940     0.7037 H       
  29 H29            4.8224    -2.6837     0.2141 H       
  30 H30            1.1642     3.1848     0.0945 H       
  31 H31           10.2426    -2.8029     1.3414 H       
  32 H32           10.0214    -5.2493     1.2921 H       
  33 H33            7.8485    -6.2988     0.8372 H       
  34 H34            5.8656    -4.9351     0.4244 H       
  35 H35            2.7535     5.0840    -0.7510 H       
@<TRIPOS>BOND
   1    1    2 ar
   2    1   16 ar
   3    1   24 1
   4    2    3 ar
   5    2   25 1
   6    3    4 ar
   7    3   26 1
   8    4    5 ar
   9    4    6 1
  10    5   16 ar
  11    5    9 1
  12    6    7 1
  13    7    8 2
  14    7   10 1
  15    8    9 1
  16    8   27 1
  17    9   22 2
  18   10   11 1
  19   10   15 2
  20   11   12 am
  21   11   28 1
  22   12   13 1
  23   12   21 2
  24   13   14 ar
  25   13   17 ar
  26   14   15 1
  27   14   20 ar
  28   15   29 1
  29   16   30 1
  30   17   18 ar
  31   17   31 1
  32   18   19 ar
  33   18   32 1
  34   19   20 ar
  35   19   33 1
  36   20   34 1
  37   22   23 1
  38   23   35 1

#	End of record

