#	Name: ASD05720022
#	Creating user name:	WinNT
#	Creation time:	15. 06. 2019 21:01

#	Modifying user name:	WinNT
#	Modification time:	15. 06. 2019 21:01

#	Program:	/corina/corina34_cracker 3.40 0067  02.08.2006

@<TRIPOS>MOLECULE
ASD05720022
  55   59    0    0    0
SMALL
NO_CHARGES


@<TRIPOS>ATOM
   1 O1             0.2808     1.2678     0.6876 O.3     
   2 C2             0.4573    -0.0480     0.5240 C.2     
   3 N3             1.7232    -0.3958     0.2552 N.am    
   4 C4             2.5535     0.8179     0.2224 C.3     
   5 C5             1.5554     1.9535     0.5201 C.3     
   6 O6            -0.4475    -0.8542     0.6111 O.2     
   7 C7             3.1809     1.0026    -1.1607 C.3     
   8 C8             2.0747     1.1124    -2.2120 C.3     
   9 C9             4.0237     2.2796    -1.1720 C.3     
  10 C10            3.8806    -3.1394    -0.5325 C.2     
  11 N11            3.4277    -1.8996    -0.3238 N.2     
  12 C12            2.1772    -1.6908     0.0431 C.2     
  13 C13            1.3023    -2.7819     0.2200 C.2     
  14 C14            1.7577    -4.0380     0.0099 C.2     
  15 N15            3.0581    -4.2223    -0.3698 N.pl3   
  16 N16            3.8002    -5.3738    -0.6553 N.2     
  17 C17            5.0226    -5.0319    -0.9796 C.2     
  18 C18            5.1312    -3.6365    -0.9250 C.2     
  19 C19            6.3397    -2.8372    -1.2237 C.ar    
  20 C20            7.5602    -3.1685    -0.6307 C.ar    
  21 C21            8.6842    -2.4248    -0.9082 C.ar    
  22 C22            8.6047    -1.3388    -1.7832 C.ar    
  23 C23            7.3842    -1.0079    -2.3766 C.ar    
  24 C24            6.2613    -1.7549    -2.1031 C.ar    
  25 N25           11.0942    -0.9406    -1.9178 N.pl3   
  26 N26           11.8976     0.1365    -2.3259 N.2     
  27 C27           11.0908     1.0953    -2.7001 C.2     
  28 N28            9.8322     0.6909    -2.5537 N.2     
  29 C29            9.8119    -0.5397    -2.0809 C.2     
  30 C30           11.5525    -2.2403    -1.4209 C.3     
  31 C31           11.8159    -2.1471     0.0834 C.3     
  32 O32           12.2630    -3.4149     0.5681 O.3     
  33 H33            3.3250     0.7749     0.9913 H       
  34 H34            1.5077     2.6495    -0.3173 H       
  35 H35            1.8321     2.4750     1.4364 H       
  36 H36            3.8156     0.1464    -1.3891 H       
  37 H37            1.3910     1.9157    -1.9375 H       
  38 H38            2.5176     1.3284    -3.1842 H       
  39 H39            1.5274     0.1711    -2.2631 H       
  40 H40            4.3992     2.4581    -2.1796 H       
  41 H41            3.4090     3.1234    -0.8586 H       
  42 H42            4.8632     2.1669    -0.4860 H       
  43 H43            0.2783    -2.6165     0.5207 H       
  44 H44            1.1017    -4.8858     0.1411 H       
  45 H45            5.8156    -5.7139    -1.2486 H       
  46 H46            7.6216    -4.0080     0.0458 H       
  47 H47            9.6278    -2.6805    -0.4491 H       
  48 H48            7.3225    -0.1681    -3.0529 H       
  49 H49            5.3185    -1.5016    -2.5650 H       
  50 H50           11.3979     2.0626    -3.0696 H       
  51 H51           10.7863    -2.9922    -1.6096 H       
  52 H52           12.4720    -2.5218    -1.9340 H       
  53 H53           12.5822    -1.3952     0.2722 H       
  54 H54           10.8964    -1.8656     0.5966 H       
  55 H55           12.4496    -3.4297     1.5168 H       
@<TRIPOS>BOND
   1    1    2 1
   2    1    5 1
   3    2    3 am
   4    2    6 2
   5    3    4 1
   6    3   12 1
   7    4    5 1
   8    4    7 1
   9    4   33 1
  10    5   34 1
  11    5   35 1
  12    7    8 1
  13    7    9 1
  14    7   36 1
  15    8   37 1
  16    8   38 1
  17    8   39 1
  18    9   40 1
  19    9   41 1
  20    9   42 1
  21   10   11 1
  22   10   15 1
  23   10   18 2
  24   11   12 2
  25   12   13 1
  26   13   14 2
  27   13   43 1
  28   14   15 1
  29   14   44 1
  30   15   16 1
  31   16   17 2
  32   17   18 1
  33   17   45 1
  34   18   19 1
  35   19   20 ar
  36   19   24 ar
  37   20   21 ar
  38   20   46 1
  39   21   22 ar
  40   21   47 1
  41   22   23 ar
  42   22   29 1
  43   23   24 ar
  44   23   48 1
  45   24   49 1
  46   25   26 1
  47   25   29 1
  48   25   30 1
  49   26   27 2
  50   27   28 1
  51   27   50 1
  52   28   29 2
  53   30   31 1
  54   30   51 1
  55   30   52 1
  56   31   32 1
  57   31   53 1
  58   31   54 1
  59   32   55 1

#	End of record

