#	Name: ASD05430401
#	Creating user name:	WinNT
#	Creation time:	15. 06. 2019 21:00

#	Modifying user name:	WinNT
#	Modification time:	15. 06. 2019 21:00

#	Program:	/corina/corina34_cracker 3.40 0067  02.08.2006

@<TRIPOS>MOLECULE
ASD05430401
  61   65    0    0    0
SMALL
NO_CHARGES


@<TRIPOS>ATOM
   1 C1            -0.2789    -0.2650     0.3514 C.ar    
   2 C2            -0.5323    -1.6354     0.4207 C.ar    
   3 C3            -1.8405    -2.1047     0.4242 C.ar    
   4 C4            -2.8933    -1.2198     0.3588 C.ar    
   5 C5            -2.6471     0.1570     0.2890 C.ar    
   6 C6            -1.3294     0.6295     0.2913 C.ar    
   7 C7            -5.0416     0.6448     0.2213 C.2     
   8 C8            -3.7688     1.1032     0.2187 C.2     
   9 C9            -6.1220     1.5562     0.1535 C.2     
  10 O10            1.0023     0.1899     0.3488 O.3     
  11 C11            1.1881     1.6049     0.2759 C.3     
  12 C12            0.6821    -3.5611     1.3896 C.2     
  13 N13            0.5339    -2.5400     0.4865 N.pl3   
  14 C14            1.8419    -4.1779     1.0938 C.2     
  15 N15            2.3911    -3.5551     0.0404 N.2     
  16 C16            1.6174    -2.5724    -0.3327 C.2     
  17 C17            2.4227    -5.3633     1.8209 C.3     
  18 N18           -5.9000     2.8639     0.0871 N.2     
  19 N19           -7.4305     1.0998     0.1496 N.pl3   
  20 C20           -8.4218     1.9862     0.7342 C.3     
  21 C21           -8.3251     3.3473     0.0394 C.3     
  22 C22           -6.8721     3.7625     0.0306 C.2     
  23 C23           -7.7139    -0.1849    -0.4740 C.3     
  24 C24           -9.0726    -0.7260    -0.0326 C.3     
  25 C25          -10.1087     0.3889    -0.2362 C.3     
  26 C26           -9.8358     1.4760     0.8007 C.3     
  27 C27           -7.9975     2.2138     2.1622 C.ar    
  28 C28           -8.4227     3.3426     2.8375 C.ar    
  29 C29           -8.0346     3.5521     4.1472 C.ar    
  30 C30           -7.2196     2.6309     4.7830 C.ar    
  31 C31           -6.7944     1.5007     4.1056 C.ar    
  32 C32           -7.1881     1.2907     2.7977 C.ar    
  33 F33           -6.8392     2.8349     6.0632 F       
  34 O34           -6.5897     4.9436    -0.0256 O.2     
  35 H35           -2.0317    -3.1663     0.4779 H       
  36 H36           -3.9088    -1.5874     0.3609 H       
  37 H37           -1.1346     1.6905     0.2380 H       
  38 H38           -5.2331    -0.4168     0.2750 H       
  39 H39           -3.5772     2.1647     0.1649 H       
  40 H40            0.7108     2.0787     1.1338 H       
  41 H41            2.2541     1.8322     0.2818 H       
  42 H42            0.7410     1.9832    -0.6434 H       
  43 H43            0.0016    -3.8183     2.1877 H       
  44 H44            1.8069    -1.8978    -1.1546 H       
  45 H45            2.0633    -6.2837     1.3606 H       
  46 H46            3.5106    -5.3284     1.7618 H       
  47 H47            2.1145    -5.3353     2.8660 H       
  48 H48           -8.6878     3.2652    -0.9852 H       
  49 H49           -8.9179     4.0824     0.5836 H       
  50 H50           -7.7123    -0.0642    -1.5573 H       
  51 H51           -6.9376    -0.8970    -0.1938 H       
  52 H52           -9.3392    -1.5928    -0.6373 H       
  53 H53           -9.0341    -1.0067     1.0199 H       
  54 H54          -10.0122     0.8036    -1.2396 H       
  55 H55          -11.1131    -0.0107    -0.0962 H       
  56 H56          -10.0183     1.0694     1.7954 H       
  57 H57          -10.5198     2.3072     0.6297 H       
  58 H58           -9.0581     4.0613     2.3413 H       
  59 H59           -8.3666     4.4343     4.6745 H       
  60 H60           -6.1587     0.7814     4.6006 H       
  61 H61           -6.8565     0.4091     2.2691 H       
@<TRIPOS>BOND
   1    1    2 ar
   2    1   10 1
   3    1    6 ar
   4    2    3 ar
   5    2   13 1
   6    3    4 ar
   7    3   35 1
   8    4    5 ar
   9    4   36 1
  10    5    6 ar
  11    5    8 1
  12    6   37 1
  13    7    8 2
  14    7    9 1
  15    7   38 1
  16    8   39 1
  17    9   18 2
  18    9   19 1
  19   10   11 1
  20   11   40 1
  21   11   41 1
  22   11   42 1
  23   12   13 1
  24   12   14 2
  25   12   43 1
  26   13   16 1
  27   14   15 1
  28   14   17 1
  29   15   16 2
  30   16   44 1
  31   17   45 1
  32   17   46 1
  33   17   47 1
  34   18   22 1
  35   19   20 1
  36   19   23 1
  37   20   21 1
  38   20   27 1
  39   20   26 1
  40   21   22 1
  41   21   48 1
  42   21   49 1
  43   22   34 2
  44   23   24 1
  45   23   50 1
  46   23   51 1
  47   24   25 1
  48   24   52 1
  49   24   53 1
  50   25   26 1
  51   25   54 1
  52   25   55 1
  53   26   56 1
  54   26   57 1
  55   27   28 ar
  56   27   32 ar
  57   28   29 ar
  58   28   58 1
  59   29   30 ar
  60   29   59 1
  61   30   31 ar
  62   30   33 1
  63   31   32 ar
  64   31   60 1
  65   32   61 1

#	End of record

