#	Name: ASD08170250
#	Creating user name:	WinNT
#	Creation time:	15. 06. 2019 21:17

#	Modifying user name:	WinNT
#	Modification time:	15. 06. 2019 21:17

#	Program:	/corina/corina34_cracker 3.40 0067  02.08.2006

@<TRIPOS>MOLECULE
ASD08170250
  68   73    0    0    0
SMALL
NO_CHARGES


@<TRIPOS>ATOM
   1 N1            -0.0150     1.2583     0.0090 N.2     
   2 N2             0.0021    -0.0041     0.0020 N.2     
   3 C3             1.1271     1.8769     0.0014 C.2     
   4 S4             2.3826     0.7116    -0.0169 S.3     
   5 C5             1.1681    -0.5677    -0.0121 C.2     
   6 C6             1.4387    -2.0502    -0.0227 C.3     
   7 C7             1.5165    -2.5442    -1.4687 C.3     
   8 C8             1.8690    -4.5432    -2.9254 C.3     
   9 C9             2.1395    -6.0257    -2.9359 C.2     
  10 N10            1.2478    -6.9651    -2.9329 N.2     
  11 S11            3.7275    -6.7933    -2.9623 S.3     
  12 C12            2.9647    -8.3272    -2.9581 C.2     
  13 N13            1.6777    -8.1521    -2.9433 N.2     
  14 N14            3.6154    -9.5562    -2.9730 N.am    
  15 C15            2.8993   -10.6980    -2.9678 C.2     
  16 O16            1.6874   -10.6536    -2.9501 O.2     
  17 C17            3.6044   -12.0297    -2.9839 C.3     
  18 N18            1.3017     3.2566     0.0067 N.am    
  19 C19            0.2284     4.0717     0.0214 C.2     
  20 C20            0.4176     5.5667     0.0272 C.3     
  21 O21           -0.8897     3.6019     0.0299 O.2     
  22 C22            1.7912    -4.0493    -1.4794 C.3     
  23 C23            2.5759   -13.1805    -2.9742 C.3     
  24 C24           -0.9512     6.2798     0.0442 C.3     
  25 C25           -1.1988     6.4852     1.5538 C.3     
  26 C26            0.1791     6.5316     2.1785 C.ar    
  27 C27            1.1079     6.0039     1.3014 C.ar    
  28 C28            0.5880     6.9991     3.4164 C.ar    
  29 C29            1.9199     6.9394     3.7766 C.ar    
  30 C30            2.8489     6.4115     2.8993 C.ar    
  31 C31            2.4430     5.9439     1.6649 C.ar    
  32 O32           -1.8876     7.7166     1.7802 O.3     
  33 C33            4.3767   -12.1996    -4.2746 C.ar    
  34 C34            3.6754   -13.0247    -5.1336 C.ar    
  35 C35            2.3840   -13.4659    -4.4788 C.3     
  36 C36            5.5965   -11.6736    -4.6665 C.ar    
  37 C37            6.1137   -11.9710    -5.9120 C.ar    
  38 C38            5.4123   -12.7963    -6.7712 C.ar    
  39 C39            4.1955   -13.3212    -6.3825 C.ar    
  40 O40            2.1700   -14.8621    -4.6954 O.3     
  41 H41            2.3843    -2.2506     0.4811 H       
  42 H42            0.6334    -2.5702     0.4961 H       
  43 H43            0.5709    -2.3438    -1.9724 H       
  44 H44            2.3218    -2.0242    -1.9874 H       
  45 H45            2.6743    -4.0232    -3.4441 H       
  46 H46            0.9234    -4.3429    -3.4291 H       
  47 H47            4.5846    -9.5917    -2.9871 H       
  48 H48            4.2734   -12.1132    -2.1274 H       
  49 H49            2.1959     3.6323    -0.0001 H       
  50 H50            0.9952     5.8776    -0.8434 H       
  51 H51            2.7368    -4.2496    -0.9756 H       
  52 H52            0.9858    -4.5693    -0.9606 H       
  53 H53            2.9775   -14.0549    -2.4621 H       
  54 H54            1.6394   -12.8593    -2.5182 H       
  55 H55           -0.8956     7.2375    -0.4732 H       
  56 H56           -1.7234     5.6464    -0.3925 H       
  57 H57           -1.7705     5.6509     1.9602 H       
  58 H58           -0.1370     7.4119     4.1022 H       
  59 H59            2.2355     7.3051     4.7426 H       
  60 H60            3.8909     6.3641     3.1793 H       
  61 H61            3.1692     5.5317     0.9800 H       
  62 H62           -2.0708     7.8993     2.7119 H       
  63 H63            1.5456   -12.8890    -4.8693 H       
  64 H64            6.1449   -11.0286    -3.9959 H       
  65 H65            7.0651   -11.5589    -6.2146 H       
  66 H66            5.8153   -13.0299    -7.7456 H       
  67 H67            3.6483   -13.9662    -7.0541 H       
  68 H68            2.0855   -15.1072    -5.6270 H       
@<TRIPOS>BOND
   1    1    2 1
   2    1    3 2
   3    2    5 2
   4    3    4 1
   5    3   18 1
   6    4    5 1
   7    5    6 1
   8    6    7 1
   9    6   41 1
  10    6   42 1
  11    7   22 1
  12    7   43 1
  13    7   44 1
  14    8    9 1
  15    8   22 1
  16    8   45 1
  17    8   46 1
  18    9   10 2
  19    9   11 1
  20   10   13 1
  21   11   12 1
  22   12   13 2
  23   12   14 1
  24   14   15 am
  25   14   47 1
  26   15   16 2
  27   15   17 1
  28   17   23 1
  29   17   33 1
  30   17   48 1
  31   18   19 am
  32   18   49 1
  33   19   20 1
  34   19   21 2
  35   20   24 1
  36   20   27 1
  37   20   50 1
  38   22   51 1
  39   22   52 1
  40   23   35 1
  41   23   53 1
  42   23   54 1
  43   24   25 1
  44   24   55 1
  45   24   56 1
  46   25   26 1
  47   25   32 1
  48   25   57 1
  49   26   27 ar
  50   26   28 ar
  51   27   31 ar
  52   28   29 ar
  53   28   58 1
  54   29   30 ar
  55   29   59 1
  56   30   31 ar
  57   30   60 1
  58   31   61 1
  59   32   62 1
  60   33   34 ar
  61   33   36 ar
  62   34   35 1
  63   34   39 ar
  64   35   40 1
  65   35   63 1
  66   36   37 ar
  67   36   64 1
  68   37   38 ar
  69   37   65 1
  70   38   39 ar
  71   38   66 1
  72   39   67 1
  73   40   68 1

#	End of record

