#	Name: ASD05430007
#	Creating user name:	WinNT
#	Creation time:	15. 06. 2019 20:59

#	Modifying user name:	WinNT
#	Modification time:	15. 06. 2019 20:59

#	Program:	/corina/corina34_cracker 3.40 0067  02.08.2006

@<TRIPOS>MOLECULE
ASD05430007
  62   67    0    0    0
SMALL
NO_CHARGES


@<TRIPOS>ATOM
   1 C1            -0.0205     1.4359     0.2148 C.ar    
   2 C2             0.0197     0.1712     0.8010 C.ar    
   3 C3            -1.1523    -0.4333     1.2373 C.ar    
   4 C4            -2.3601     0.2138     1.0930 C.ar    
   5 C5            -2.4081     1.4826     0.5065 C.ar    
   6 C6            -1.2277     2.0935     0.0725 C.ar    
   7 C7            -4.8068    -0.0369    -0.0875 C.3     
   8 C8            -4.8238     1.4648     0.1548 C.2     
   9 C9            -3.6977     2.1752     0.3510 C.2     
  10 C10           -5.8147    -0.3555    -1.1919 C.3     
  11 C11           -7.2506     0.0439    -0.8520 C.3     
  12 N12           -7.2645     1.4330    -0.3993 N.pl3   
  13 C13           -6.1653     2.0899     0.1593 C.2     
  14 C14           -8.3522     2.4120    -0.4383 C.3     
  15 O15           -7.9201     3.4220     0.4973 O.3     
  16 N16           -6.5206     3.2292     0.6521 N.2     
  17 N17            1.2455    -0.4916     0.9498 N.pl3   
  18 C18            1.7251    -1.0704     2.0963 C.2     
  19 C19            2.9300    -1.5914     1.7957 C.2     
  20 N20            3.1840    -1.3405     0.5029 N.2     
  21 C21            2.1802    -0.6871    -0.0162 C.2     
  22 C22           -8.4949     2.9939    -1.8211 C.ar    
  23 C23           -8.1107     2.2550    -2.9245 C.ar    
  24 C24           -9.0153     4.2641    -1.9856 C.ar    
  25 C25           -9.1475     4.7984    -3.2532 C.ar    
  26 C26           -8.7581     4.0613    -4.3587 C.ar    
  27 C27           -8.2415     2.7874    -4.1930 C.ar    
  28 F28           -8.8868     4.5826    -5.5984 F       
  29 C29           -9.6667     1.7776     0.0206 C.3     
  30 O30            1.1285     2.0244    -0.2115 O.3     
  31 C31            3.8366    -2.3281     2.7477 C.3     
  32 C32            1.0131     3.3204    -0.8024 C.3     
  33 C33           -5.3638     0.1107    -2.5839 C.3     
  34 O34           -5.8370    -1.1738    -3.0392 O.3     
  35 C35           -5.6904    -1.7844    -1.7403 C.3     
  36 H36           -1.1167    -1.4130     1.6904 H       
  37 H37           -3.2699    -0.2589     1.4325 H       
  38 H38           -1.2603     3.0733    -0.3806 H       
  39 H39           -3.8096    -0.3476    -0.3992 H       
  40 H40           -5.0862    -0.5599     0.8271 H       
  41 H41           -3.7402     3.2535     0.3943 H       
  42 H42           -7.8767    -0.0570    -1.7386 H       
  43 H43           -7.6309    -0.6015    -0.0602 H       
  44 H44            1.2315    -1.1020     3.0564 H       
  45 H45            2.1079    -0.3522    -1.0404 H       
  46 H46           -7.7078     1.2613    -2.7950 H       
  47 H47           -9.3190     4.8389    -1.1231 H       
  48 H48           -9.5547     5.7905    -3.3815 H       
  49 H49           -7.9371     2.2116    -5.0546 H       
  50 H50           -9.5570     1.4130     1.0420 H       
  51 H51          -10.4618     2.5222    -0.0160 H       
  52 H52           -9.9176     0.9455    -0.6372 H       
  53 H53            3.6067    -3.3932     2.7175 H       
  54 H54            4.8749    -2.1721     2.4548 H       
  55 H55            3.6840    -1.9520     3.7593 H       
  56 H56            2.0008     3.6743    -1.0979 H       
  57 H57            0.3699     3.2633    -1.6806 H       
  58 H58            0.5805     4.0121    -0.0796 H       
  59 H59           -5.9339     0.9544    -2.9730 H       
  60 H60           -4.2858     0.2425    -2.6776 H       
  61 H61           -4.7133    -2.2378    -1.5734 H       
  62 H62           -6.5184    -2.4370    -1.4634 H       
@<TRIPOS>BOND
   1    1    2 ar
   2    1   30 1
   3    1    6 ar
   4    2    3 ar
   5    2   17 1
   6    3    4 ar
   7    3   36 1
   8    4    5 ar
   9    4   37 1
  10    5    6 ar
  11    5    9 1
  12    6   38 1
  13    7    8 1
  14    7   10 1
  15    7   39 1
  16    7   40 1
  17    8    9 2
  18    8   13 1
  19    9   41 1
  20   10   11 1
  21   10   33 1
  22   10   35 1
  23   11   12 1
  24   11   42 1
  25   11   43 1
  26   12   13 1
  27   12   14 1
  28   13   16 2
  29   14   15 1
  30   14   22 1
  31   14   29 1
  32   15   16 1
  33   17   18 1
  34   17   21 1
  35   18   19 2
  36   18   44 1
  37   19   20 1
  38   19   31 1
  39   20   21 2
  40   21   45 1
  41   22   23 ar
  42   22   24 ar
  43   23   27 ar
  44   23   46 1
  45   24   25 ar
  46   24   47 1
  47   25   26 ar
  48   25   48 1
  49   26   27 ar
  50   26   28 1
  51   27   49 1
  52   29   50 1
  53   29   51 1
  54   29   52 1
  55   30   32 1
  56   31   53 1
  57   31   54 1
  58   31   55 1
  59   32   56 1
  60   32   57 1
  61   32   58 1
  62   33   34 1
  63   33   59 1
  64   33   60 1
  65   34   35 1
  66   35   61 1
  67   35   62 1

#	End of record

