#	Name: ASD01148780
#	Creating user name:	WinNT
#	Creation time:	15. 06. 2019 19:03

#	Modifying user name:	WinNT
#	Modification time:	15. 06. 2019 19:03

#	Program:	/corina/corina34_cracker 3.40 0067  02.08.2006

@<TRIPOS>MOLECULE
ASD01148780
  59   62    0    0    0
SMALL
NO_CHARGES


@<TRIPOS>ATOM
   1 N1             0.0433     1.3919    -0.2311 N.pl3   
   2 C2            -0.0126     0.0400    -0.1852 C.2     
   3 C3             1.2407    -0.4490     0.1115 C.2     
   4 C4             2.1184     0.7245     0.2540 C.2     
   5 C5             1.3184     1.8277     0.0305 C.2     
   6 C6             1.6247    -1.8603     0.2574 C.2     
   7 O7             2.0096    -2.4886    -0.7095 O.2     
   8 O8             1.5501    -2.4579     1.4635 O.3     
   9 C9            -1.0452     2.2278    -0.5119 C.ar    
  10 C10           -2.1003     2.3214     0.3859 C.ar    
  11 C11           -3.1718     3.1468     0.1064 C.ar    
  12 C12           -3.1946     3.8795    -1.0662 C.ar    
  13 C13           -2.1456     3.7880    -1.9625 C.ar    
  14 C14           -1.0686     2.9688    -1.6860 C.ar    
  15 S15           -4.5635     4.9313    -1.4191 S.o2    
  16 O16           -4.5913     5.0936    -2.8306 O.2     
  17 O17           -5.6617     4.4246    -0.6733 O.2     
  18 N18           -4.2141     6.4202    -0.7840 N.am    
  19 C19           -1.2454    -0.7942    -0.4204 C.3     
  20 C20            1.7595     3.2363     0.0665 C.ar    
  21 C21            1.0971     4.1580     0.8802 C.ar    
  22 C22            1.5144     5.4722     0.9097 C.ar    
  23 C23            2.5875     5.8786     0.1342 C.ar    
  24 C24            3.2485     4.9695    -0.6748 C.ar    
  25 C25            2.8446     3.6512    -0.7088 C.ar    
  26 Cl26           3.1058     7.5349     0.1761 Cl      
  27 C27            3.5641     0.7223     0.5720 C.ar    
  28 C28            4.4796     0.1966    -0.3387 C.ar    
  29 C29            5.8321     0.1982    -0.0343 C.ar    
  30 C30            6.2714     0.7231     1.1760 C.ar    
  31 C31            5.3636     1.2440     2.0783 C.ar    
  32 C32            4.0155     1.2515     1.7817 C.ar    
  33 N33            6.7534    -0.3277    -0.9432 N.pl3   
  34 C34            1.9452    -3.8534     1.5333 C.3     
  35 C35            1.7943    -4.3548     2.9709 C.3     
  36 H36           -2.0832     1.7492     1.3017 H       
  37 H37           -3.9929     3.2198     0.8041 H       
  38 H38           -2.1666     4.3609    -2.8778 H       
  39 H39           -0.2473     2.9014    -2.3842 H       
  40 H40           -3.3736     6.5654    -0.3220 H       
  41 H41           -4.8499     7.1472    -0.8740 H       
  42 H42           -1.3221    -1.0385    -1.4799 H       
  43 H43           -1.1779    -1.7140     0.1606 H       
  44 H44           -2.1278    -0.2336    -0.1120 H       
  45 H45            0.2598     3.8424     1.4849 H       
  46 H46            1.0031     6.1860     1.5385 H       
  47 H47            4.0846     5.2927    -1.2771 H       
  48 H48            3.3637     2.9423    -1.3367 H       
  49 H49            4.1362    -0.2109    -1.2781 H       
  50 H50            7.3254     0.7233     1.4117 H       
  51 H51            5.7104     1.6504     3.0169 H       
  52 H52            3.3095     1.6633     2.4877 H       
  53 H53            6.4468    -0.6942    -1.7874 H       
  54 H54            7.6997    -0.3265    -0.7301 H       
  55 H55            1.3097    -4.4444     0.8738 H       
  56 H56            2.9848    -3.9527     1.2211 H       
  57 H57            2.4298    -3.7638     3.6304 H       
  58 H58            0.7548    -4.2555     3.2831 H       
  59 H59            2.0910    -5.4024     3.0233 H       
@<TRIPOS>BOND
   1    1    2 1
   2    1    5 1
   3    1    9 1
   4    2    3 2
   5    2   19 1
   6    3    4 1
   7    3    6 1
   8    4    5 2
   9    4   27 1
  10    5   20 1
  11    6    7 2
  12    6    8 1
  13    8   34 1
  14    9   10 ar
  15    9   14 ar
  16   10   11 ar
  17   10   36 1
  18   11   12 ar
  19   11   37 1
  20   12   13 ar
  21   12   15 1
  22   13   14 ar
  23   13   38 1
  24   14   39 1
  25   15   16 2
  26   15   17 2
  27   15   18 am
  28   18   40 1
  29   18   41 1
  30   19   42 1
  31   19   43 1
  32   19   44 1
  33   20   21 ar
  34   20   25 ar
  35   21   22 ar
  36   21   45 1
  37   22   23 ar
  38   22   46 1
  39   23   24 ar
  40   23   26 1
  41   24   25 ar
  42   24   47 1
  43   25   48 1
  44   27   28 ar
  45   27   32 ar
  46   28   29 ar
  47   28   49 1
  48   29   30 ar
  49   29   33 1
  50   30   31 ar
  51   30   50 1
  52   31   32 ar
  53   31   51 1
  54   32   52 1
  55   33   53 1
  56   33   54 1
  57   34   35 1
  58   34   55 1
  59   34   56 1
  60   35   57 1
  61   35   58 1
  62   35   59 1

#	End of record

