#	Name: ASD00311038
#	Creating user name:	WinNT
#	Creation time:	15. 06. 2019 18:34

#	Modifying user name:	WinNT
#	Modification time:	15. 06. 2019 18:34

#	Program:	/corina/corina34_cracker 3.40 0067  02.08.2006

@<TRIPOS>MOLECULE
ASD00311038
  39   41    0    0    0
SMALL
NO_CHARGES


@<TRIPOS>ATOM
   1 C1            -0.0158     1.3141     0.0093 C.ar    
   2 N2             0.0021    -0.0041     0.0020 N.ar    
   3 C3             1.1287    -0.6886    -0.0120 C.ar    
   4 C4             2.3502    -0.0441    -0.0201 C.ar    
   5 C5             2.3790     1.3544    -0.0133 C.ar    
   6 C6             1.1595     2.0395     0.0019 C.ar    
   7 C7             3.6717     3.5542    -0.0138 C.2     
   8 C8             3.6652     2.0895    -0.0212 C.2     
   9 C9             6.0798     6.3795    -0.0212 C.ar    
  10 C10            4.8497     5.6967    -0.0136 C.ar    
  11 C11            4.8432     4.2237    -0.0210 C.2     
  12 C12            6.0982     7.7424    -0.0141 C.ar    
  13 C13            4.8669     8.4271     0.0009 C.ar    
  14 C14            3.6595     7.6807     0.0079 C.ar    
  15 N15            3.6997     6.3483     0.0004 N.ar    
  16 O16            4.7159     1.4767    -0.0337 O.2     
  17 C17            2.4310     8.3680     0.0229 C.ar    
  18 C18            2.4187     9.7284     0.0303 C.ar    
  19 C19            3.6059    10.4583     0.0233 C.ar    
  20 C20            4.8141     9.8292     0.0093 C.ar    
  21 C21            1.1345     7.5998     0.0302 C.3     
  22 C22           -1.2698    -0.7310     0.0102 C.3     
  23 H23           -0.9625     1.8339     0.0165 H       
  24 H24            1.0960    -1.7681    -0.0167 H       
  25 H25            3.2692    -0.6113    -0.0312 H       
  26 H26            1.1373     3.1192     0.0073 H       
  27 H27            2.7388     4.0983    -0.0027 H       
  28 H28            7.0068     5.8253    -0.0282 H       
  29 H29            5.7760     3.6796    -0.0321 H       
  30 H30            7.0328     8.2837    -0.0194 H       
  31 H31            1.4738    10.2512     0.0415 H       
  32 H32            3.5676    11.5376     0.0291 H       
  33 H33            5.7267    10.4068     0.0047 H       
  34 H34            0.8312     7.4087     1.0596 H       
  35 H35            0.3636     8.1831    -0.4733 H       
  36 H36            1.2709     6.6518    -0.4902 H       
  37 H37           -1.5951    -0.9058    -1.0153 H       
  38 H38           -1.1388    -1.6867     0.5177 H       
  39 H39           -2.0219    -0.1414     0.5344 H       
@<TRIPOS>BOND
   1    1    2 ar
   2    1    6 ar
   3    1   23 1
   4    2    3 ar
   5    2   22 1
   6    3    4 ar
   7    3   24 1
   8    4    5 ar
   9    4   25 1
  10    5    6 ar
  11    5    8 1
  12    6   26 1
  13    7    8 1
  14    7   11 2
  15    7   27 1
  16    8   16 2
  17    9   10 ar
  18    9   12 ar
  19    9   28 1
  20   10   11 1
  21   10   15 ar
  22   11   29 1
  23   12   13 ar
  24   12   30 1
  25   13   14 ar
  26   13   20 ar
  27   14   15 ar
  28   14   17 ar
  29   17   18 ar
  30   17   21 1
  31   18   19 ar
  32   18   31 1
  33   19   20 ar
  34   19   32 1
  35   20   33 1
  36   21   34 1
  37   21   35 1
  38   21   36 1
  39   22   37 1
  40   22   38 1
  41   22   39 1

#	End of record

