#	Name: ASD00069200
#	Creating user name:	WinNT
#	Creation time:	15. 06. 2019 18:29

#	Modifying user name:	WinNT
#	Modification time:	15. 06. 2019 18:29

#	Program:	/corina/corina34_cracker 3.40 0067  02.08.2006

@<TRIPOS>MOLECULE
ASD00069200
  52   55    0    0    0
SMALL
NO_CHARGES


@<TRIPOS>ATOM
   1 C1            -0.0635     1.2950    -0.5900 C.2     
   2 N2            -0.0206     0.0044    -0.3442 N.2     
   3 C3             1.2318    -0.4329    -0.5261 C.2     
   4 C4             2.0015     0.6329    -0.9015 C.2     
   5 N5             1.1902     1.7132    -0.9412 N.pl3   
   6 C6            -1.2635     2.1475    -0.5071 C.2     
   7 O7            -1.1844     3.3348    -0.7585 O.2     
   8 N8            -2.4480     1.6111    -0.1527 N.am    
   9 C9             3.4512    -3.4624    -0.2965 C.ar    
  10 C10            3.0566    -2.1498    -0.4680 C.ar    
  11 C11            1.7018    -1.8288    -0.3505 C.ar    
  12 C12            0.8010    -2.8590    -0.0625 C.ar    
  13 C13            1.2795    -4.1427     0.0936 C.ar    
  14 N14            2.5676    -4.4051    -0.0254 N.ar    
  15 C15            0.3188    -5.2613     0.4046 C.3     
  16 Cl16           5.1298    -3.8789    -0.4463 Cl      
  17 C17           -3.5620     2.4380     0.0385 C.ar    
  18 C18           -4.8463     1.8957     0.0207 C.ar    
  19 C19           -5.9464     2.7212     0.2115 C.ar    
  20 C20           -5.7651     4.0778     0.4184 C.ar    
  21 C21           -4.4907     4.6140     0.4353 C.ar    
  22 C22           -3.3901     3.7979     0.2518 C.ar    
  23 F23           -7.1930     2.2007     0.1948 F       
  24 N24           -5.0263     0.5225    -0.1893 N.3     
  25 C25           -5.7500     0.2723    -1.4424 C.3     
  26 C26           -5.8006    -1.2334    -1.7118 C.3     
  27 C27           -6.5049    -1.9322    -0.5456 C.3     
  28 C28           -5.7594    -1.6160     0.7540 C.3     
  29 C29           -5.7099    -0.0993     0.9519 C.3     
  30 N30           -6.5428    -1.4845    -2.9544 N.3     
  31 H31            3.0582     0.6150    -1.1241 H       
  32 H32            1.4494     2.6181    -1.1755 H       
  33 H33           -2.5290     0.6523    -0.0302 H       
  34 H34            3.7843    -1.3831    -0.6892 H       
  35 H35           -0.2543    -2.6521     0.0367 H       
  36 H36           -0.0406    -5.7009    -0.5258 H       
  37 H37            0.8278    -6.0240     0.9940 H       
  38 H38           -0.5256    -4.8682     0.9707 H       
  39 H39           -6.6213     4.7192     0.5667 H       
  40 H40           -4.3545     5.6732     0.5967 H       
  41 H41           -2.3962     4.2199     0.2705 H       
  42 H42           -6.7650     0.6607    -1.3594 H       
  43 H43           -5.2364     0.7712    -2.2642 H       
  44 H44           -4.7861    -1.6201    -1.8086 H       
  45 H45           -7.5318    -1.5740    -0.4728 H       
  46 H46           -6.5049    -3.0093    -0.7127 H       
  47 H47           -6.2806    -2.0758     1.5936 H       
  48 H48           -4.7443    -2.0087     0.6959 H       
  49 H49           -5.1673     0.1298     1.8691 H       
  50 H50           -6.7252     0.2909     1.0237 H       
  51 H51           -6.5900    -2.4725    -3.1540 H       
  52 H52           -7.4660    -1.0796    -2.9123 H       
@<TRIPOS>BOND
   1    1    2 2
   2    1    5 1
   3    1    6 1
   4    2    3 1
   5    3    4 2
   6    3   11 1
   7    4    5 1
   8    4   31 1
   9    5   32 1
  10    6    7 2
  11    6    8 am
  12    8   17 1
  13    8   33 1
  14    9   10 ar
  15    9   14 ar
  16    9   16 1
  17   10   11 ar
  18   10   34 1
  19   11   12 ar
  20   12   13 ar
  21   12   35 1
  22   13   14 ar
  23   13   15 1
  24   15   36 1
  25   15   37 1
  26   15   38 1
  27   17   18 ar
  28   17   22 ar
  29   18   19 ar
  30   18   24 1
  31   19   20 ar
  32   19   23 1
  33   20   21 ar
  34   20   39 1
  35   21   22 ar
  36   21   40 1
  37   22   41 1
  38   24   25 1
  39   24   29 1
  40   25   26 1
  41   25   42 1
  42   25   43 1
  43   26   27 1
  44   26   30 1
  45   26   44 1
  46   27   28 1
  47   27   45 1
  48   27   46 1
  49   28   29 1
  50   28   47 1
  51   28   48 1
  52   29   49 1
  53   29   50 1
  54   30   51 1
  55   30   52 1

#	End of record

