#	Name: ASD04591000
#	Creating user name:	WinNT
#	Creation time:	15. 06. 2019 20:51

#	Modifying user name:	WinNT
#	Modification time:	15. 06. 2019 20:51

#	Program:	/corina/corina34_cracker 3.40 0067  02.08.2006

@<TRIPOS>MOLECULE
ASD04591000
  77   82    0    0    0
SMALL
NO_CHARGES


@<TRIPOS>ATOM
   1 N1            -0.1850     1.0583    -1.1581 N.ar    
   2 C2            -0.0832    -0.1373    -0.5920 C.ar    
   3 N3             1.0495    -0.8215    -0.5823 N.ar    
   4 C4             2.1447    -0.3247    -1.1500 C.ar    
   5 C5             2.0686     0.9427    -1.7594 C.ar    
   6 C6             0.8572     1.6248    -1.7451 C.ar    
   7 N7             3.4267    -0.7956    -1.2897 N.pl3   
   8 C8             4.2076     0.1216    -1.9748 C.ar    
   9 C9             3.4097     1.2307    -2.2945 C.ar    
  10 C10            5.5439     0.1105    -2.3602 C.ar    
  11 C11            6.0730     1.1811    -3.0490 C.ar    
  12 C12            5.2836     2.2762    -3.3638 C.ar    
  13 C13            3.9572     2.3058    -2.9901 C.ar    
  14 C14            3.9025    -2.0861    -0.7850 C.3     
  15 N15           -1.2018    -0.6885     0.0103 N.pl3   
  16 C16           -2.3801     0.0613     0.1188 C.ar    
  17 C17           -3.6145    -0.5669     0.0184 C.ar    
  18 C18           -4.7759     0.1721     0.1253 C.ar    
  19 C19           -4.7096     1.5436     0.3332 C.ar    
  20 C20           -3.4751     2.1718     0.4336 C.ar    
  21 C21           -2.3137     1.4318     0.3323 C.ar    
  22 N22           -5.8868     2.2928     0.4411 N.3     
  23 C23            3.7261    -2.1360     0.7340 C.3     
  24 C24            4.2230    -3.4837     1.2611 C.3     
  25 C25            3.4157    -4.6123     0.6166 C.3     
  26 C26            3.5920    -4.5624    -0.9024 C.3     
  27 C27            3.0952    -3.2147    -1.4295 C.3     
  28 C28           -5.5879     3.7146     0.6577 C.3     
  29 C29           -6.8881     4.5227     0.5893 C.3     
  30 N30           -7.8515     3.9386     1.5348 N.am    
  31 C31           -8.1007     2.4906     1.4688 C.3     
  32 C32           -6.7528     1.7626     1.5026 C.3     
  33 O33           -9.3677     4.1566     3.2948 O.3     
  34 C34          -10.0173     5.0475     4.2395 C.3     
  35 C35          -10.8045     6.1144     3.4758 C.3     
  36 C36          -10.9729     4.2441     5.1239 C.3     
  37 C37           -8.9591     5.7229     5.1141 C.3     
  38 C38           -8.4892     4.7099     2.4375 C.2     
  39 O39           -8.2714     5.9046     2.4777 O.2     
  40 H40            0.7682     2.5981    -2.2046 H       
  41 H41            6.1678    -0.7375    -2.1194 H       
  42 H42            7.1114     1.1666    -3.3456 H       
  43 H43            5.7094     3.1092    -3.9034 H       
  44 H44            3.3442     3.1602    -3.2361 H       
  45 H45            4.9571    -2.2066    -1.0325 H       
  46 H46           -1.1694    -1.5938     0.3571 H       
  47 H47           -3.6661    -1.6334    -0.1436 H       
  48 H48           -5.7359    -0.3164     0.0469 H       
  49 H49           -3.4234     3.2384     0.5948 H       
  50 H50           -1.3537     1.9203     0.4104 H       
  51 H51            4.3013    -1.3319     1.1931 H       
  52 H52            2.6715    -2.0155     0.9815 H       
  53 H53            5.2776    -3.6042     1.0136 H       
  54 H54            4.0973    -3.5192     2.3432 H       
  55 H55            3.7696    -5.5724     0.9921 H       
  56 H56            2.3610    -4.4918     0.8641 H       
  57 H57            4.6466    -4.6829    -1.1499 H       
  58 H58            3.0169    -5.3665    -1.3615 H       
  59 H59            2.0405    -3.0942    -1.1819 H       
  60 H60            3.2208    -3.1792    -2.5116 H       
  61 H61           -5.1299     3.8448     1.6382 H       
  62 H62           -4.9017     4.0637    -0.1139 H       
  63 H63           -6.6898     5.5592     0.8620 H       
  64 H64           -7.2941     4.4783    -0.4213 H       
  65 H65           -8.7042     2.1836     2.3231 H       
  66 H66           -8.6233     2.2508     0.5428 H       
  67 H67           -6.9114     0.6959     1.3438 H       
  68 H68           -6.2786     1.9199     2.4714 H       
  69 H69          -11.5583     5.6332     2.8527 H       
  70 H70          -11.2921     6.7832     4.1850 H       
  71 H71          -10.1237     6.6868     2.8458 H       
  72 H72          -10.4122     3.4840     5.6679 H       
  73 H73          -11.4606     4.9129     5.8331 H       
  74 H74          -11.7268     3.7630     4.5008 H       
  75 H75           -8.2783     6.2953     4.4840 H       
  76 H76           -9.4468     6.3917     5.8233 H       
  77 H77           -8.3984     4.9628     5.6581 H       
@<TRIPOS>BOND
   1    1    2 ar
   2    1    6 ar
   3    2    3 ar
   4    2   15 1
   5    3    4 ar
   6    4    5 ar
   7    4    7 1
   8    5    6 ar
   9    5    9 1
  10    6   40 1
  11    7    8 1
  12    7   14 1
  13    8    9 ar
  14    8   10 ar
  15    9   13 ar
  16   10   11 ar
  17   10   41 1
  18   11   12 ar
  19   11   42 1
  20   12   13 ar
  21   12   43 1
  22   13   44 1
  23   14   23 1
  24   14   27 1
  25   14   45 1
  26   15   16 1
  27   15   46 1
  28   16   17 ar
  29   16   21 ar
  30   17   18 ar
  31   17   47 1
  32   18   19 ar
  33   18   48 1
  34   19   20 ar
  35   19   22 1
  36   20   21 ar
  37   20   49 1
  38   21   50 1
  39   22   28 1
  40   22   32 1
  41   23   24 1
  42   23   51 1
  43   23   52 1
  44   24   25 1
  45   24   53 1
  46   24   54 1
  47   25   26 1
  48   25   55 1
  49   25   56 1
  50   26   27 1
  51   26   57 1
  52   26   58 1
  53   27   59 1
  54   27   60 1
  55   28   29 1
  56   28   61 1
  57   28   62 1
  58   29   30 1
  59   29   63 1
  60   29   64 1
  61   30   31 1
  62   30   38 am
  63   31   32 1
  64   31   65 1
  65   31   66 1
  66   32   67 1
  67   32   68 1
  68   33   34 1
  69   33   38 1
  70   34   35 1
  71   34   36 1
  72   34   37 1
  73   35   69 1
  74   35   70 1
  75   35   71 1
  76   36   72 1
  77   36   73 1
  78   36   74 1
  79   37   75 1
  80   37   76 1
  81   37   77 1
  82   38   39 2

#	End of record

