#	Name: ASD01884134
#	Creating user name:	WinNT
#	Creation time:	15. 06. 2019 19:47

#	Modifying user name:	WinNT
#	Modification time:	15. 06. 2019 19:47

#	Program:	/corina/corina34_cracker 3.40 0067  02.08.2006

@<TRIPOS>MOLECULE
ASD01884134
  12   12    0    0    0
SMALL
NO_CHARGES


@<TRIPOS>ATOM
   1 C1            -0.0169     1.3962     0.0097 C.ar    
   2 C2             0.0021    -0.0041     0.0020 C.ar    
   3 C3            -1.1974    -0.6898     0.0097 C.ar    
   4 N4            -2.3468    -0.0441     0.0241 N.ar    
   5 C5            -2.4105     1.2728     0.0318 C.ar    
   6 C6            -1.2608     2.0392     0.0309 C.ar    
   7 Br7           -1.3655     3.9272     0.0425 Br      
   8 C8             1.2011     2.1491     0.0021 C.1     
   9 Br9            1.6440    -0.9419    -0.0193 Br      
  10 N10            2.1674     2.7464    -0.0039 N.1     
  11 H11           -1.1934    -1.7698     0.0035 H       
  12 H12           -3.3747     1.7592     0.0432 H       
@<TRIPOS>BOND
   1    1    2 ar
   2    1    8 1
   3    1    6 ar
   4    2    3 ar
   5    2    9 1
   6    3    4 ar
   7    3   11 1
   8    4    5 ar
   9    5    6 ar
  10    5   12 1
  11    6    7 1
  12    8   10 3

#	End of record

