#	Name: ASD04230026
#	Creating user name:	WinNT
#	Creation time:	15. 06. 2019 20:48

#	Modifying user name:	WinNT
#	Modification time:	15. 06. 2019 20:48

#	Program:	/corina/corina34_cracker 3.40 0067  02.08.2006

@<TRIPOS>MOLECULE
ASD04230026
  41   44    0    0    0
SMALL
NO_CHARGES


@<TRIPOS>ATOM
   1 C1            -0.0201     1.3790     0.0495 C.ar    
   2 C2            -0.0003    -0.0082     0.0381 C.ar    
   3 C3             1.1848    -0.6862     0.0294 C.ar    
   4 C4             2.3957     0.0212     0.0423 C.ar    
   5 C5             2.3815     1.4276     0.0207 C.ar    
   6 C6             1.1610     2.0997     0.0379 C.ar    
   7 C7             3.6343    -0.6710     0.0722 C.2     
   8 C8             4.7886     0.0708     0.2855 C.2     
   9 C9             4.6293     1.5213     0.4960 C.2     
  10 O10            3.5429     2.1221    -0.0388 O.3     
  11 C11            6.1166    -0.5650     0.3013 C.2     
  12 N12            7.2188     0.1818     0.5109 N.am    
  13 O13            6.2189    -1.7642     0.1252 O.2     
  14 C14            8.4676    -0.4350     0.6381 C.ar    
  15 C15            9.6061     0.1931     0.1483 C.ar    
  16 C16           10.8418    -0.4134     0.2723 C.ar    
  17 C17           10.9520    -1.6464     0.8834 C.ar    
  18 C18            9.8152    -2.2836     1.3781 C.ar    
  19 C19            8.5708    -1.6713     1.2585 C.ar    
  20 C20            9.9319    -3.6093     2.0348 C.ar    
  21 O21            5.4494     2.1572     1.1312 O.2     
  22 O22            1.1309     3.4591     0.0425 O.3     
  23 C23           11.1768    -4.2305     2.1638 C.ar    
  24 C24           11.2325    -5.4670     2.7843 C.ar    
  25 C25           10.0654    -6.0422     3.2520 C.ar    
  26 N26            8.9041    -5.4314     3.1157 N.ar    
  27 C27            8.8026    -4.2521     2.5378 C.ar    
  28 H28           -0.9655     1.9009     0.0629 H       
  29 H29           -0.9306    -0.5567     0.0365 H       
  30 H30            1.1898    -1.7661     0.0130 H       
  31 H31            3.6777    -1.7412    -0.0663 H       
  32 H32            7.1460     1.1470     0.5735 H       
  33 H33            9.5252     1.1576    -0.3309 H       
  34 H34           11.7239     0.0785    -0.1103 H       
  35 H35           11.9191    -2.1176     0.9778 H       
  36 H36            7.6872    -2.1611     1.6402 H       
  37 H37            1.1112     3.8550    -0.8395 H       
  38 H38           12.0727    -3.7583     1.7888 H       
  39 H39           12.1773    -5.9769     2.9014 H       
  40 H40           10.1050    -7.0068     3.7362 H       
  41 H41            7.8341    -3.7834     2.4446 H       
@<TRIPOS>BOND
   1    1    2 ar
   2    1    6 ar
   3    1   28 1
   4    2    3 ar
   5    2   29 1
   6    3    4 ar
   7    3   30 1
   8    4    5 ar
   9    4    7 1
  10    5    6 ar
  11    5   10 1
  12    6   22 1
  13    7    8 2
  14    7   31 1
  15    8    9 1
  16    8   11 1
  17    9   10 1
  18    9   21 2
  19   11   12 am
  20   11   13 2
  21   12   14 1
  22   12   32 1
  23   14   15 ar
  24   14   19 ar
  25   15   16 ar
  26   15   33 1
  27   16   17 ar
  28   16   34 1
  29   17   18 ar
  30   17   35 1
  31   18   19 ar
  32   18   20 1
  33   19   36 1
  34   20   23 ar
  35   20   27 ar
  36   22   37 1
  37   23   24 ar
  38   23   38 1
  39   24   25 ar
  40   24   39 1
  41   25   26 ar
  42   25   40 1
  43   26   27 ar
  44   27   41 1

#	End of record

