#	Name: ASD02030747
#	Creating user name:	WinNT
#	Creation time:	15. 06. 2019 20:16

#	Modifying user name:	WinNT
#	Modification time:	15. 06. 2019 20:16

#	Program:	/corina/corina34_cracker 3.40 0067  02.08.2006

@<TRIPOS>MOLECULE
ASD02030747
  34   36    0    0    0
SMALL
NO_CHARGES


@<TRIPOS>ATOM
   1 N1            -0.0169     1.3957     0.0097 N.2     
   2 N2             0.0021    -0.0041     0.0020 N.am    
   3 C3             1.1646    -0.6797    -0.0123 C.2     
   4 N4             2.3448    -0.0325    -0.0200 N.am    
   5 C5             2.3757     1.3164    -0.0131 C.2     
   6 C6             1.1074     2.0610     0.0026 C.2     
   7 O7             1.1494    -1.8958    -0.0178 O.2     
   8 O8             3.4386     1.9089    -0.0192 O.2     
   9 C9            -1.2627    -0.7434     0.0101 C.3     
  10 C10           -1.6828    -1.0045     1.4336 C.ar    
  11 C11           -1.4557    -2.2205     2.0019 C.ar    
  12 C12           -1.8370    -2.4804     3.3166 C.ar    
  13 C13           -2.4473    -1.5258     4.0711 C.ar    
  14 C14           -2.6980    -0.2583     3.5190 C.ar    
  15 C15           -3.3263     0.7523     4.2667 C.ar    
  16 C16           -3.5532     1.9680     3.6985 C.ar    
  17 C17           -3.1720     2.2279     2.3833 C.ar    
  18 C18           -2.5619     1.2736     1.6289 C.ar    
  19 C19           -2.3056     0.0076     2.1831 C.ar    
  20 C20           -2.8524    -1.8270     5.4910 C.3     
  21 O21            1.1051     3.4197     0.0094 O.3     
  22 H22            3.1737    -0.5362    -0.0303 H       
  23 H23           -2.0303    -0.1556    -0.4933 H       
  24 H24           -1.1322    -1.6923    -0.5101 H       
  25 H25           -0.9731    -2.9954     1.4250 H       
  26 H26           -1.6458    -3.4539     3.7433 H       
  27 H27           -3.6278     0.5651     5.2867 H       
  28 H28           -4.0361     2.7429     4.2753 H       
  29 H29           -3.3641     3.2011     1.9563 H       
  30 H30           -2.2728     1.4891     0.6109 H       
  31 H31           -2.0330    -1.5745     6.1640 H       
  32 H32           -3.7311    -1.2368     5.7512 H       
  33 H33           -3.0862    -2.8875     5.5850 H       
  34 H34            0.2211     3.8114     0.0197 H       
@<TRIPOS>BOND
   1    1    2 1
   2    1    6 2
   3    2    3 am
   4    2    9 1
   5    3    4 am
   6    3    7 2
   7    4    5 am
   8    4   22 1
   9    5    6 1
  10    5    8 2
  11    6   21 1
  12    9   10 1
  13    9   23 1
  14    9   24 1
  15   10   11 ar
  16   10   19 ar
  17   11   12 ar
  18   11   25 1
  19   12   13 ar
  20   12   26 1
  21   13   14 ar
  22   13   20 1
  23   14   15 ar
  24   14   19 ar
  25   15   16 ar
  26   15   27 1
  27   16   17 ar
  28   16   28 1
  29   17   18 ar
  30   17   29 1
  31   18   19 ar
  32   18   30 1
  33   20   31 1
  34   20   32 1
  35   20   33 1
  36   21   34 1

#	End of record

