#	Name: ASD02590064
#	Creating user name:	WinNT
#	Creation time:	15. 06. 2019 20:25

#	Modifying user name:	WinNT
#	Modification time:	15. 06. 2019 20:25

#	Program:	/corina/corina34_cracker 3.40 0067  02.08.2006

@<TRIPOS>MOLECULE
ASD02590064
  77   82    0    0    0
SMALL
NO_CHARGES


@<TRIPOS>ATOM
   1 N1            -0.0178     1.4608     0.0101 N.pl3   
   2 N2            -7.9324    16.3908   -14.4759 N.pl3   
   3 C3            -6.2160     9.2849     0.0787 C.ar    
   4 C4            -4.8242     9.3259     0.0734 C.ar    
   5 C5            -6.8594     8.0529     0.0747 C.ar    
   6 N6            -6.1700     6.9324     0.0660 N.ar    
   7 C7            -4.8420     6.9310     0.0608 C.ar    
   8 C8            -4.1295     8.1302     0.0643 C.ar    
   9 C9            -4.1113     5.6452     0.0516 C.2     
  10 N10           -4.6958     4.4078     0.0478 N.pl3   
  11 C11           -3.6757     3.4742     0.0384 C.ar    
  12 C12           -2.4751     4.2062     0.0367 C.ar    
  13 N13           -2.8068     5.5198     0.0401 N.2     
  14 C14           -3.6435     2.0864     0.0307 C.ar    
  15 C15           -2.4342     1.4264     0.0213 C.ar    
  16 C16           -1.2388     2.1438     0.0196 C.ar    
  17 C17           -1.2530     3.5253     0.0276 C.ar    
  18 O18           -9.4298    13.6015    -3.5941 O.3     
  19 C19           -9.1743    14.0350    -4.8557 C.ar    
  20 C20           -9.7235    13.3747    -5.9517 C.ar    
  21 C21           -9.4375    13.8495    -7.2186 C.ar    
  22 C22           -8.6135    14.9669    -7.3549 C.ar    
  23 N23           -8.1078    15.5698    -6.2852 N.ar    
  24 C24           -8.3663    15.1460    -5.0668 C.ar    
  25 C25           -8.2997    15.4849    -8.7042 C.2     
  26 N26           -8.7393    14.9747    -9.8284 N.2     
  27 C27           -8.2605    15.6926   -10.8729 C.ar    
  28 C28           -7.4654    16.7226   -10.3398 C.ar    
  29 N29           -7.5114    16.5725    -8.9659 N.pl3   
  30 C30           -8.4128    15.5872   -12.2596 C.ar    
  31 C31           -7.7815    16.4943   -13.0887 C.ar    
  32 C32           -6.9948    17.5120   -12.5512 C.ar    
  33 C33           -6.8384    17.6259   -11.1872 C.ar    
  34 O34           -6.9369    10.4360     0.0932 O.3     
  35 C35           -8.3603    10.3100     0.0978 C.3     
  36 C36           -8.8294    14.3324    -2.5229 C.3     
  37 C37           -9.2285    13.7006    -1.1878 C.3     
  38 O38           -8.6802    12.3839    -1.1011 O.3     
  39 C39           -8.9954    11.7019     0.1145 C.3     
  40 C40           -8.7578    15.3228   -15.0452 C.3     
  41 C41           -7.2650    17.3505   -15.3589 C.3     
  42 C42            0.0021    -0.0041     0.0020 C.3     
  43 C43            1.2408     2.2105     0.0021 C.3     
  44 H44           -4.2994    10.2698     0.0759 H       
  45 H45           -7.9388     8.0149     0.0791 H       
  46 H46           -3.0495     8.1250     0.0596 H       
  47 H47           -5.6476     4.2206     0.0512 H       
  48 H48           -4.5658     1.5244     0.0324 H       
  49 H49           -2.4121     0.3467     0.0157 H       
  50 H50           -0.3246     4.0772     0.0265 H       
  51 H51          -10.3580    12.5114    -5.8155 H       
  52 H52           -9.8463    13.3615    -8.0910 H       
  53 H53           -7.9374    15.6620    -4.2205 H       
  54 H54           -7.0636    17.1301    -8.3105 H       
  55 H55           -9.0208    14.7999   -12.6802 H       
  56 H56           -6.5051    18.2156   -13.2081 H       
  57 H57           -6.2274    18.4167   -10.7774 H       
  58 H58           -8.6806     9.7752    -0.7963 H       
  59 H59           -8.6733     9.7572     0.9836 H       
  60 H60           -7.7448    14.3055    -2.6278 H       
  61 H61           -9.1717    15.3668    -2.5521 H       
  62 H62           -8.8445    14.3088    -0.3688 H       
  63 H63          -10.3152    13.6467    -1.1218 H       
  64 H64          -10.0773    11.6065     0.2075 H       
  65 H65           -8.6065    12.2686     0.9604 H       
  66 H66           -8.1390    14.4448   -15.2303 H       
  67 H67           -9.5530    15.0659   -14.3454 H       
  68 H68           -9.1956    15.6630   -15.9837 H       
  69 H69           -7.9230    18.2016   -15.5341 H       
  70 H70           -6.3428    17.6946   -14.8907 H       
  71 H71           -7.0326    16.8693   -16.3089 H       
  72 H72            0.0168    -0.3729     1.0276 H       
  73 H73           -0.8878    -0.3767    -0.5053 H       
  74 H74            0.8920    -0.3525    -0.5222 H       
  75 H75            2.0788     1.5135    -0.0097 H       
  76 H76            1.2816     2.8426    -0.8849 H       
  77 H77            1.2986     2.8331     0.8949 H       
@<TRIPOS>BOND
   1    1   42 1
   2    1   43 1
   3    1   16 1
   4    2   40 1
   5    2   41 1
   6    2   31 1
   7    3    4 ar
   8    3    5 ar
   9    3   34 1
  10    4    8 ar
  11    4   44 1
  12    5    6 ar
  13    5   45 1
  14    6    7 ar
  15    7    8 ar
  16    7    9 1
  17    8   46 1
  18    9   10 1
  19    9   13 2
  20   10   11 1
  21   10   47 1
  22   11   12 ar
  23   11   14 ar
  24   12   13 1
  25   12   17 ar
  26   14   15 ar
  27   14   48 1
  28   15   16 ar
  29   15   49 1
  30   16   17 ar
  31   17   50 1
  32   18   19 1
  33   18   36 1
  34   19   20 ar
  35   19   24 ar
  36   20   21 ar
  37   20   51 1
  38   21   22 ar
  39   21   52 1
  40   22   23 ar
  41   22   25 1
  42   23   24 ar
  43   24   53 1
  44   25   26 2
  45   25   29 1
  46   26   27 1
  47   27   28 ar
  48   27   30 ar
  49   28   29 1
  50   28   33 ar
  51   29   54 1
  52   30   31 ar
  53   30   55 1
  54   31   32 ar
  55   32   33 ar
  56   32   56 1
  57   33   57 1
  58   34   35 1
  59   35   39 1
  60   35   58 1
  61   35   59 1
  62   36   37 1
  63   36   60 1
  64   36   61 1
  65   37   38 1
  66   37   62 1
  67   37   63 1
  68   38   39 1
  69   39   64 1
  70   39   65 1
  71   40   66 1
  72   40   67 1
  73   40   68 1
  74   41   69 1
  75   41   70 1
  76   41   71 1
  77   42   72 1
  78   42   73 1
  79   42   74 1
  80   43   75 1
  81   43   76 1
  82   43   77 1

#	End of record

