#	Name: ASD02560274
#	Creating user name:	WinNT
#	Creation time:	15. 06. 2019 20:25

#	Modifying user name:	WinNT
#	Modification time:	15. 06. 2019 20:25

#	Program:	/corina/corina34_cracker 3.40 0067  02.08.2006

@<TRIPOS>MOLECULE
ASD02560274
  33   35    0    0    0
SMALL
NO_CHARGES


@<TRIPOS>ATOM
   1 C1             0.0085     1.3193     0.2507 C.2     
   2 O2             0.0158    -0.0227     0.1332 O.3     
   3 C3            -1.2738    -0.4079     0.1176 C.2     
   4 N4            -2.0044     0.6752     0.2227 N.2     
   5 N5            -1.2337     1.7019     0.3066 N.2     
   6 N6            -1.7414    -1.7058     0.0102 N.pl3   
   7 C7             1.2194     2.2142     0.3127 C.3     
   8 C8             1.6421     2.3887     1.7487 C.ar    
   9 C9             2.5496     1.5103     2.3152 C.ar    
  10 C10            2.9372     1.6716     3.6347 C.ar    
  11 C11            2.4180     2.7088     4.3862 C.ar    
  12 C12            1.5118     3.5865     3.8216 C.ar    
  13 C13            1.1275     3.4308     2.5004 C.ar    
  14 C14           -3.1047    -1.9671     0.1279 C.ar    
  15 C15           -3.9016    -1.1512     0.9255 C.ar    
  16 C16           -5.2491    -1.4065     1.0441 C.ar    
  17 C17           -5.8169    -2.4866     0.3617 C.ar    
  18 C18           -5.0135    -3.3039    -0.4390 C.ar    
  19 C19           -3.6676    -3.0399    -0.5569 C.ar    
  20 F20            3.0566     0.4958     1.5811 F       
  21 F21            0.2420     4.2891     1.9486 F       
  22 C22           -7.2182    -2.7554     0.4831 C.1     
  23 N23           -8.3298    -2.9687     0.5793 N.1     
  24 H24           -1.1198    -2.4337    -0.1470 H       
  25 H25            2.0341     1.7629    -0.2536 H       
  26 H26            0.9749     3.1866    -0.1148 H       
  27 H27            3.6452     0.9863     4.0769 H       
  28 H28            2.7203     2.8334     5.4155 H       
  29 H29            1.1068     4.3966     4.4098 H       
  30 H30           -3.4623    -0.3170     1.4524 H       
  31 H31           -5.8668    -0.7734     1.6637 H       
  32 H32           -5.4489    -4.1390    -0.9675 H       
  33 H33           -3.0464    -3.6709    -1.1753 H       
@<TRIPOS>BOND
   1    1    2 1
   2    1    7 1
   3    1    5 2
   4    2    3 1
   5    3    4 2
   6    3    6 1
   7    4    5 1
   8    6   14 1
   9    6   24 1
  10    7    8 1
  11    7   25 1
  12    7   26 1
  13    8    9 ar
  14    8   13 ar
  15    9   10 ar
  16    9   20 1
  17   10   11 ar
  18   10   27 1
  19   11   12 ar
  20   11   28 1
  21   12   13 ar
  22   12   29 1
  23   13   21 1
  24   14   15 ar
  25   14   19 ar
  26   15   16 ar
  27   15   30 1
  28   16   17 ar
  29   16   31 1
  30   17   18 ar
  31   17   22 1
  32   18   19 ar
  33   18   32 1
  34   19   33 1
  35   22   23 3

#	End of record

