#	Name: ASD01148213
#	Creating user name:	WinNT
#	Creation time:	15. 06. 2019 19:02

#	Modifying user name:	WinNT
#	Modification time:	15. 06. 2019 19:02

#	Program:	/corina/corina34_cracker 3.40 0067  02.08.2006

@<TRIPOS>MOLECULE
ASD01148213
  58   61    0    0    0
SMALL
NO_CHARGES


@<TRIPOS>ATOM
   1 C1             0.0855     2.6502     0.7023 C.ar    
   2 C2            -0.3626     1.3428     0.7615 C.ar    
   3 C3             0.5232     0.2987     0.5616 C.ar    
   4 C4             1.8548     0.5626     0.3029 C.ar    
   5 C5             2.3021     1.8696     0.2438 C.ar    
   6 C6             1.4177     2.9129     0.4434 C.ar    
   7 C7             3.7544     2.1566    -0.0378 C.3     
   8 O8             4.3249     1.1432    -0.8905 O.3     
   9 C9             3.9092     3.4256    -0.9096 C.3     
  10 C10            3.9693     2.8554    -2.3140 C.2     
  11 N11            4.1983     1.5880    -2.2267 N.2     
  12 C12            3.7957     3.6187    -3.5654 C.ar    
  13 C13            3.8756     2.9663    -4.7985 C.ar    
  14 C14            3.5457     4.9926    -3.5169 C.ar    
  15 C15            3.3834     5.7042    -4.6838 C.ar    
  16 C16            3.4686     5.0528    -5.9170 C.ar    
  17 C17            3.7133     3.6779    -5.9654 C.ar    
  18 C18            3.2944     5.8165    -7.1693 C.2     
  19 O19            2.2724     6.4456    -7.3602 O.2     
  20 N20            4.2690     5.8155    -8.1003 N.am    
  21 C21            4.5467     2.2860     1.2646 C.3     
  22 F22            4.4426     1.0967     1.9939 F       
  23 F23            5.8912     2.5360     0.9697 F       
  24 F24            4.0308     3.3437     2.0212 F       
  25 Cl25          -2.0354     1.0121     1.0871 Cl      
  26 C26            4.0433     6.4577    -9.3976 C.3     
  27 C27            4.4638     7.9029    -9.3225 C.ar    
  28 N28            3.6169     8.8052    -8.8674 N.ar    
  29 C29            5.4511     5.2237    -7.8378 C.2     
  30 C30            3.9411    10.0809    -8.7839 C.ar    
  31 C31            5.1918    10.5194    -9.1749 C.ar    
  32 C32            6.1096     9.5994    -9.6588 C.ar    
  33 C33            5.7349     8.2665    -9.7262 C.ar    
  34 O34            5.6781     4.7866    -6.7275 O.2     
  35 O35            6.3800     5.1171    -8.8060 O.3     
  36 C36            7.6297     4.4681    -8.4520 C.3     
  37 C37            0.0360    -1.1259     0.6265 C.3     
  38 F38            1.1065    -1.9959     0.3937 F       
  39 F39           -0.5024    -1.3774     1.8930 F       
  40 F40           -0.9484    -1.3268    -0.3470 F       
  41 H41           -0.6063     3.4656     0.8538 H       
  42 H42            2.5463    -0.2522     0.1472 H       
  43 H43            1.7676     3.9336     0.3968 H       
  44 H44            3.0462     4.0815    -0.7949 H       
  45 H45            4.8319     3.9523    -0.6660 H       
  46 H46            4.0650     1.9037    -4.8359 H       
  47 H47            3.4796     5.4960    -2.5637 H       
  48 H48            3.1899     6.7661    -4.6463 H       
  49 H49            3.7791     3.1743    -6.9186 H       
  50 H50            4.6296     5.9480   -10.1622 H       
  51 H51            2.9851     6.4000    -9.6524 H       
  52 H52            3.2205    10.7911    -8.4059 H       
  53 H53            5.4511    11.5655    -9.1047 H       
  54 H54            7.0944     9.9134    -9.9720 H       
  55 H55            6.4243     7.5227   -10.0975 H       
  56 H56            8.2877     4.4484    -9.3207 H       
  57 H57            8.1102     5.0209    -7.6447 H       
  58 H58            7.4293     3.4479    -8.1248 H       
@<TRIPOS>BOND
   1    1    2 ar
   2    1    6 ar
   3    1   41 1
   4    2    3 ar
   5    2   25 1
   6    3    4 ar
   7    3   37 1
   8    4    5 ar
   9    4   42 1
  10    5    6 ar
  11    5    7 1
  12    6   43 1
  13    7    8 1
  14    7    9 1
  15    7   21 1
  16    8   11 1
  17    9   10 1
  18    9   44 1
  19    9   45 1
  20   10   11 2
  21   10   12 1
  22   12   13 ar
  23   12   14 ar
  24   13   17 ar
  25   13   46 1
  26   14   15 ar
  27   14   47 1
  28   15   16 ar
  29   15   48 1
  30   16   17 ar
  31   16   18 1
  32   17   49 1
  33   18   19 2
  34   18   20 am
  35   20   26 1
  36   20   29 am
  37   21   22 1
  38   21   23 1
  39   21   24 1
  40   26   27 1
  41   26   50 1
  42   26   51 1
  43   27   28 ar
  44   27   33 ar
  45   28   30 ar
  46   29   34 2
  47   29   35 1
  48   30   31 ar
  49   30   52 1
  50   31   32 ar
  51   31   53 1
  52   32   33 ar
  53   32   54 1
  54   33   55 1
  55   35   36 1
  56   36   56 1
  57   36   57 1
  58   36   58 1
  59   37   38 1
  60   37   39 1
  61   37   40 1

#	End of record

