#	Name: ASD01330009
#	Creating user name:	WinNT
#	Creation time:	15. 06. 2019 19:16

#	Modifying user name:	WinNT
#	Modification time:	15. 06. 2019 19:16

#	Program:	/corina/corina34_cracker 3.40 0067  02.08.2006

@<TRIPOS>MOLECULE
ASD01330009
   8    7    0    0    0
SMALL
NO_CHARGES


@<TRIPOS>ATOM
   1 C1            -0.0182     1.4900     0.0102 C.2     
   2 C2             0.0021    -0.0041     0.0020 C.2     
   3 O3             1.0235     2.1105     0.0036 O.2     
   4 O4            -1.1924     2.1468     0.0194 O.3     
   5 O5            -1.0396    -0.6246     0.0086 O.2     
   6 O6             1.1762    -0.6609    -0.0127 O.3     
   7 H7            -1.1549     3.1131     0.0244 H       
   8 H8             1.1387    -1.6271    -0.0176 H       
@<TRIPOS>BOND
   1    1    2 1
   2    1    3 2
   3    1    4 1
   4    2    5 2
   5    2    6 1
   6    4    7 1
   7    6    8 1

#	End of record

