#	Name: ASD01913408
#	Creating user name:	WinNT
#	Creation time:	15. 06. 2019 20:01

#	Modifying user name:	WinNT
#	Modification time:	15. 06. 2019 20:01

#	Program:	/corina/corina34_cracker 3.40 0067  02.08.2006

@<TRIPOS>MOLECULE
ASD01913408
  46   48    0    0    0
SMALL
NO_CHARGES


@<TRIPOS>ATOM
   1 C1            -0.6960    -0.2234    -2.2341 C.ar    
   2 C2            -0.8404     0.3162    -0.9600 C.ar    
   3 C3            -0.6851     1.6899    -0.8044 C.ar    
   4 N4            -0.4077     2.4289    -1.8659 N.ar    
   5 C5            -0.2786     1.8800    -3.0571 C.ar    
   6 N6            -0.4182     0.5831    -3.2451 N.ar    
   7 C7            -1.1588    -1.8222    -0.0918 C.ar    
   8 C8             0.0265    -2.5403    -0.1727 C.ar    
   9 C9            -0.0007    -3.9101    -0.3680 C.ar    
  10 C10           -1.2076    -4.5711    -0.4837 C.ar    
  11 C11           -2.4043    -3.8565    -0.4031 C.ar    
  12 C12           -2.3748    -2.4757    -0.2061 C.ar    
  13 C13           -3.6982    -4.5604    -0.5264 C.2     
  14 N14           -3.7240    -5.8944    -0.7171 N.am    
  15 C15           -4.9398    -6.5559    -0.8330 C.2     
  16 O16           -4.7389    -3.9362    -0.4559 O.2     
  17 O17           -1.1262    -0.4780     0.1052 O.3     
  18 S18           -5.1199    -8.2386    -1.0761 S.3     
  19 C19           -6.8726    -8.0609    -1.0820 C.2     
  20 C20           -7.1583    -6.7697    -0.9030 C.2     
  21 N21           -6.1035    -5.9880    -0.7671 N.2     
  22 C22           -8.5709    -6.2472    -0.8544 C.3     
  23 Cl23           1.4866    -4.7998    -0.4684 Cl      
  24 C24           -7.8744    -9.1729    -1.2583 C.3     
  25 C25           -8.6091    -8.9912    -2.5880 C.3     
  26 C26           -7.1475   -10.5192    -1.2570 C.3     
  27 C27           -8.8836    -9.1371    -0.1089 C.3     
  28 H28           -0.8047    -1.2859    -2.3946 H       
  29 H29           -0.7899     2.1464     0.1687 H       
  30 H30           -0.0518     2.5113    -3.9036 H       
  31 H31            0.9731    -2.0282    -0.0832 H       
  32 H32           -1.2258    -5.6400    -0.6368 H       
  33 H33           -3.2974    -1.9179    -0.1427 H       
  34 H34           -2.8936    -6.3925    -0.7734 H       
  35 H35           -8.9093    -6.2102     0.1811 H       
  36 H36           -8.6028    -5.2456    -1.2831 H       
  37 H37           -9.2226    -6.9080    -1.4261 H       
  38 H38           -7.9132    -9.1483    -3.4121 H       
  39 H39           -9.4218    -9.7145    -2.6558 H       
  40 H40           -9.0159    -7.9815    -2.6434 H       
  41 H41           -6.6241   -10.6485    -0.3097 H       
  42 H42           -7.8721   -11.3234    -1.3846 H       
  43 H43           -6.4285   -10.5446    -2.0759 H       
  44 H44           -9.4015    -8.1780    -0.1099 H       
  45 H45           -9.6082    -9.9413    -0.2365 H       
  46 H46           -8.3602    -9.2665     0.8384 H       
@<TRIPOS>BOND
   1    1    2 ar
   2    1    6 ar
   3    1   28 1
   4    2    3 ar
   5    2   17 1
   6    3    4 ar
   7    3   29 1
   8    4    5 ar
   9    5    6 ar
  10    5   30 1
  11    7    8 ar
  12    7   12 ar
  13    7   17 1
  14    8    9 ar
  15    8   31 1
  16    9   10 ar
  17    9   23 1
  18   10   11 ar
  19   10   32 1
  20   11   12 ar
  21   11   13 1
  22   12   33 1
  23   13   14 am
  24   13   16 2
  25   14   15 1
  26   14   34 1
  27   15   18 1
  28   15   21 2
  29   18   19 1
  30   19   20 2
  31   19   24 1
  32   20   21 1
  33   20   22 1
  34   22   35 1
  35   22   36 1
  36   22   37 1
  37   24   25 1
  38   24   26 1
  39   24   27 1
  40   25   38 1
  41   25   39 1
  42   25   40 1
  43   26   41 1
  44   26   42 1
  45   26   43 1
  46   27   44 1
  47   27   45 1
  48   27   46 1

#	End of record

