#	Name: ASD01920050
#	Creating user name:	WinNT
#	Creation time:	15. 06. 2019 20:11

#	Modifying user name:	WinNT
#	Modification time:	15. 06. 2019 20:11

#	Program:	/corina/corina34_cracker 3.40 0067  02.08.2006

@<TRIPOS>MOLECULE
ASD01920050
  37   39    0    0    0
SMALL
NO_CHARGES


@<TRIPOS>ATOM
   1 C1            -0.0169     1.3980     0.0097 C.2     
   2 C2             0.0021    -0.0041     0.0020 C.2     
   3 N3             1.1451    -0.6500    -0.0119 N.2     
   4 C4             2.3064     0.0121    -0.0194 C.2     
   5 N5             2.3292     1.3836    -0.0128 N.pl3   
   6 C6             1.1543     2.0803     0.0022 C.2     
   7 C7            -1.2943    -0.7724     0.0103 C.3     
   8 C8             3.6397    -0.4141    -0.0340 C.2     
   9 C9             4.4412     0.7313    -0.0358 C.2     
  10 N10            3.6676     1.7909    -0.0232 N.2     
  11 C11            5.9481     0.7464    -0.0503 C.3     
  12 C12            4.1136    -1.8187    -0.0451 C.ar    
  13 C13            4.3259    -2.4763    -1.2580 C.ar    
  14 C14            4.7676    -3.7855    -1.2636 C.ar    
  15 C15            5.0001    -4.4467    -0.0658 C.ar    
  16 C16            4.7903    -3.7967     1.1424 C.ar    
  17 C17            4.3543    -2.4858     1.1573 C.ar    
  18 O18            5.4341    -5.7348    -0.0759 O.3     
  19 C19            5.6535    -6.3554     1.1925 C.3     
  20 F20            4.1507    -1.8539     2.3340 F       
  21 F21            4.0995    -1.8338    -2.4246 F       
  22 C22            1.1601     3.5872     0.0098 C.3     
  23 F23           -0.1570     4.0587     0.0245 F       
  24 F24            1.8321     4.0453     1.1481 F       
  25 F25            1.8107     4.0568    -1.1363 F       
  26 H26           -0.9569     1.9298     0.0171 H       
  27 H27           -1.6166    -0.9522    -1.0154 H       
  28 H28           -1.1482    -1.7261     0.5176 H       
  29 H29           -2.0557    -0.1949     0.5345 H       
  30 H30            6.3015     0.7554    -1.0814 H       
  31 H31            6.3075     1.6373     0.4648 H       
  32 H32            6.3252    -0.1426     0.4553 H       
  33 H33            4.9318    -4.2951    -2.2015 H       
  34 H34            4.9721    -4.3151     2.0722 H       
  35 H35            6.4087    -5.7962     1.7448 H       
  36 H36            4.7220    -6.3647     1.7584 H       
  37 H37            5.9972    -7.3788     1.0416 H       
@<TRIPOS>BOND
   1    1    2 1
   2    1    6 2
   3    1   26 1
   4    2    3 2
   5    2    7 1
   6    3    4 1
   7    4    5 1
   8    4    8 2
   9    5    6 1
  10    5   10 1
  11    6   22 1
  12    7   27 1
  13    7   28 1
  14    7   29 1
  15    8    9 1
  16    8   12 1
  17    9   10 2
  18    9   11 1
  19   11   30 1
  20   11   31 1
  21   11   32 1
  22   12   13 ar
  23   12   17 ar
  24   13   14 ar
  25   13   21 1
  26   14   15 ar
  27   14   33 1
  28   15   16 ar
  29   15   18 1
  30   16   17 ar
  31   16   34 1
  32   17   20 1
  33   18   19 1
  34   19   35 1
  35   19   36 1
  36   19   37 1
  37   22   23 1
  38   22   24 1
  39   22   25 1

#	End of record

