#	Name: ASD02039490
#	Creating user name:	WinNT
#	Creation time:	15. 06. 2019 20:18

#	Modifying user name:	WinNT
#	Modification time:	15. 06. 2019 20:18

#	Program:	/corina/corina34_cracker 3.40 0067  02.08.2006

@<TRIPOS>MOLECULE
ASD02039490
  54   54    0    0    0
SMALL
NO_CHARGES


@<TRIPOS>ATOM
   1 C1             0.7998     1.6384    -0.0245 C.2     
   2 N2             0.6146     0.3501    -0.0437 N.2     
   3 C3             1.8231    -0.2677    -0.0105 C.2     
   4 C4             2.7801     0.7036     0.0307 C.2     
   5 N5             2.1334     1.8929     0.0217 N.pl3   
   6 C6             2.0581    -1.7221    -0.0177 C.2     
   7 O7             3.1908    -2.1545    -0.1131 O.2     
   8 N8             1.0179    -2.5733     0.0815 N.am    
   9 C9            -1.2100    -2.2997    -0.8894 C.3     
  10 C10           -0.3290    -2.0572     0.3377 C.3     
  11 C11           -0.9295    -2.7771     1.5469 C.3     
  12 C12            1.2342    -4.0146    -0.0668 C.3     
  13 C13            2.2854    -4.6326    -3.6509 C.ar    
  14 C14            2.3503    -4.2864    -2.3025 C.ar    
  15 C15            1.2067    -4.3789    -1.5289 C.ar    
  16 C16            0.0339    -4.8150    -2.1295 C.ar    
  17 C17            0.0409    -5.1421    -3.4726 C.ar    
  18 N18            1.1441    -5.0451    -4.1868 N.ar    
  19 C19            3.5008    -4.5332    -4.4951 C.ar    
  20 C20            3.4445    -4.8774    -5.8446 C.ar    
  21 C21            4.5773    -4.7830    -6.6262 C.ar    
  22 C22            5.7700    -4.3471    -6.0715 C.ar    
  23 C23            5.8306    -4.0043    -4.7303 C.ar    
  24 C24            4.7012    -4.0898    -3.9427 C.ar    
  25 F25            6.8770    -4.2566    -6.8405 F       
  26 C26            2.7595     3.2170     0.0556 C.3     
  27 C27            2.9309     3.6629     1.5091 C.3     
  28 H28            0.0193     2.3845    -0.0465 H       
  29 H29            3.8489     0.5527     0.0646 H       
  30 H30           -1.3745    -3.3702    -1.0129 H       
  31 H31           -2.1683    -1.7982    -0.7536 H       
  32 H32           -0.7151    -1.9036    -1.7761 H       
  33 H33           -0.2758    -0.9877     0.5411 H       
  34 H34           -0.2544    -2.6836     2.3976 H       
  35 H35           -1.8916    -2.3290     1.7956 H       
  36 H36           -1.0704    -3.8314     1.3090 H       
  37 H37            2.2025    -4.2822     0.3561 H       
  38 H38            0.4467    -4.5560     0.4574 H       
  39 H39            3.2802    -3.9512    -1.8674 H       
  40 H40           -0.8756    -4.8983    -1.5529 H       
  41 H41           -0.8699    -5.4821    -3.9428 H       
  42 H42            2.5155    -5.2179    -6.2776 H       
  43 H43            4.5346    -5.0495    -7.6719 H       
  44 H44            6.7624    -3.6658    -4.3019 H       
  45 H45            4.7482    -3.8181    -2.8984 H       
  46 H46            3.7355     3.1699    -0.4274 H       
  47 H47            2.1273     3.9315    -0.4715 H       
  48 H48            1.9549     3.7100     1.9922 H       
  49 H49            3.5631     2.9484     2.0363 H       
  50 H50            3.3967     4.6481     1.5344 H       
  51 Cl51          11.8770     9.6481     7.3976 Cl      
  52 H52           11.8770    11.0181     7.3976 H       
  53 Cl53          16.8770    16.0181    12.3976 Cl      
  54 H54           16.8770    17.3881    12.3976 H       
@<TRIPOS>BOND
   1    1    2 2
   2    1    5 1
   3    1   28 1
   4    2    3 1
   5    3    4 2
   6    3    6 1
   7    4    5 1
   8    4   29 1
   9    5   26 1
  10    6    7 2
  11    6    8 am
  12    8   10 1
  13    8   12 1
  14    9   10 1
  15    9   30 1
  16    9   31 1
  17    9   32 1
  18   10   11 1
  19   10   33 1
  20   11   34 1
  21   11   35 1
  22   11   36 1
  23   12   15 1
  24   12   37 1
  25   12   38 1
  26   13   14 ar
  27   13   18 ar
  28   13   19 1
  29   14   15 ar
  30   14   39 1
  31   15   16 ar
  32   16   17 ar
  33   16   40 1
  34   17   18 ar
  35   17   41 1
  36   19   20 ar
  37   19   24 ar
  38   20   21 ar
  39   20   42 1
  40   21   22 ar
  41   21   43 1
  42   22   23 ar
  43   22   25 1
  44   23   24 ar
  45   23   44 1
  46   24   45 1
  47   26   27 1
  48   26   46 1
  49   26   47 1
  50   27   48 1
  51   27   49 1
  52   27   50 1
  53   51   52 1
  54   53   54 1

#	End of record

