#	Name: ASD03731165
#	Creating user name:	WinNT
#	Creation time:	15. 06. 2019 20:45

#	Modifying user name:	WinNT
#	Modification time:	15. 06. 2019 20:45

#	Program:	/corina/corina34_cracker 3.40 0067  02.08.2006

@<TRIPOS>MOLECULE
ASD03731165
  57   62    0    0    0
SMALL
NO_CHARGES


@<TRIPOS>ATOM
   1 N1            -0.0162     1.3436     0.0094 N.am    
   2 C2            -0.1429     0.0020     0.0365 C.2     
   3 O3             0.8439    -0.7036    -0.0459 O.2     
   4 N4            -1.3633    -0.5574     0.1550 N.am    
   5 C5            -1.5010    -2.0156     0.1845 C.3     
   6 C6            -2.9790    -2.3856     0.3244 C.3     
   7 O7             1.4455    -7.7575     2.1291 O.3     
   8 C8             1.7389    -9.1478     2.3614 C.3     
   9 O9             0.5474    -9.6474     2.9969 O.3     
  10 C10           -0.4667    -8.8477     2.5532 C.ar    
  11 C11            0.0862    -7.6853     2.0206 C.ar    
  12 C12           -1.8391    -9.0208     2.5598 C.ar    
  13 C13           -2.6761    -8.0389     2.0385 C.ar    
  14 C14           -2.1126    -6.8784     1.5167 C.ar    
  15 C15           -0.7443    -6.7055     1.5031 C.ar    
  16 O16           -4.0358    -8.0182     1.9333 O.3     
  17 C17           -3.2571    -6.0117     1.0642 C.3     
  18 C18           -4.4763    -6.6613     1.7329 C.3     
  19 N19           -3.1167    -3.8438     0.3539 N.am    
  20 C20           -3.0857    -4.5799     1.4827 C.2     
  21 C21           -3.3907    -5.9764    -0.4293 C.ar    
  22 C22           -3.5706    -6.9448    -1.3916 C.ar    
  23 C23           -3.6604    -6.5881    -2.7254 C.ar    
  24 C24           -3.5685    -5.2570    -3.0896 C.ar    
  25 C25           -3.3873    -4.2835    -2.1295 C.ar    
  26 C26           -3.2962    -4.6333    -0.7845 C.ar    
  27 O27           -2.9469    -4.1666     2.6145 O.2     
  28 C28            1.2561     1.9264     0.0081 C.ar    
  29 C29            1.4778     3.1119    -0.6806 C.ar    
  30 C30            2.7344     3.6845    -0.6800 C.ar    
  31 C31            3.7716     3.0786     0.0055 C.ar    
  32 C32            3.5543     1.8982     0.6917 C.ar    
  33 C33            2.2981     1.3236     0.7000 C.ar    
  34 C34            0.3483     3.7725    -1.4282 C.3     
  35 H35           -0.8069     1.9050    -0.0132 H       
  36 H36           -2.1505     0.0056     0.2208 H       
  37 H37           -1.1071    -2.4365    -0.7406 H       
  38 H38           -0.9444    -2.4160     1.0318 H       
  39 H39           -3.3729    -1.9646     1.2495 H       
  40 H40           -3.5356    -1.9851    -0.5229 H       
  41 H41            1.9154    -9.6648     1.4182 H       
  42 H42            2.5985    -9.2524     3.0233 H       
  43 H43           -2.2638    -9.9240     2.9723 H       
  44 H44           -0.3195    -5.8035     1.0880 H       
  45 H45           -5.3430    -6.6291     1.0726 H       
  46 H46           -4.6966    -6.1810     2.6863 H       
  47 H47           -3.6420    -7.9836    -1.1050 H       
  48 H48           -3.8024    -7.3473    -3.4803 H       
  49 H49           -3.6385    -4.9787    -4.1307 H       
  50 H50           -3.3159    -3.2462    -2.4218 H       
  51 H51            2.9075     4.6061    -1.2156 H       
  52 H52            4.7535     3.5284     0.0045 H       
  53 H53            4.3664     1.4273     1.2257 H       
  54 H54            2.1277     0.4042     1.2405 H       
  55 H55           -0.1687     4.4669    -0.7659 H       
  56 H56            0.7480     4.3161    -2.2842 H       
  57 H57           -0.3515     3.0122    -1.7751 H       
@<TRIPOS>BOND
   1    1    2 am
   2    1   28 1
   3    1   35 1
   4    2    3 2
   5    2    4 am
   6    4    5 1
   7    4   36 1
   8    5    6 1
   9    5   37 1
  10    5   38 1
  11    6   19 1
  12    6   39 1
  13    6   40 1
  14    7    8 1
  15    7   11 1
  16    8    9 1
  17    8   41 1
  18    8   42 1
  19    9   10 1
  20   10   11 ar
  21   10   12 ar
  22   11   15 ar
  23   12   13 ar
  24   12   43 1
  25   13   14 ar
  26   13   16 1
  27   14   15 ar
  28   14   17 1
  29   15   44 1
  30   16   18 1
  31   17   18 1
  32   17   20 1
  33   17   21 1
  34   18   45 1
  35   18   46 1
  36   19   20 am
  37   19   26 1
  38   20   27 2
  39   21   22 ar
  40   21   26 ar
  41   22   23 ar
  42   22   47 1
  43   23   24 ar
  44   23   48 1
  45   24   25 ar
  46   24   49 1
  47   25   26 ar
  48   25   50 1
  49   28   29 ar
  50   28   33 ar
  51   29   30 ar
  52   29   34 1
  53   30   31 ar
  54   30   51 1
  55   31   32 ar
  56   31   52 1
  57   32   33 ar
  58   32   53 1
  59   33   54 1
  60   34   55 1
  61   34   56 1
  62   34   57 1

#	End of record

