#	Name: ASD01880487
#	Creating user name:	WinNT
#	Creation time:	15. 06. 2019 19:40

#	Modifying user name:	WinNT
#	Modification time:	15. 06. 2019 19:40

#	Program:	/corina/corina34_cracker 3.40 0067  02.08.2006

@<TRIPOS>MOLECULE
ASD01880487
  50   53    0    0    0
SMALL
NO_CHARGES


@<TRIPOS>ATOM
   1 N1            -0.0139     1.3123    -0.0044 N.ar    
   2 C2             0.0050    -0.0048    -0.0253 C.ar    
   3 N3             1.1345    -0.6835    -0.0542 N.ar    
   4 C4             2.3048    -0.0614    -0.0637 C.ar    
   5 C5             2.3342     1.3195    -0.0431 C.ar    
   6 C6             1.1198     2.0077    -0.0123 C.ar    
   7 C7             3.6441     2.0644    -0.0525 C.3     
   8 O8             4.7239     1.1290    -0.0841 O.3     
   9 C9             5.9813     1.6395    -0.0963 C.ar    
  10 C10            7.0785     0.7843    -0.1269 C.ar    
  11 C11            8.3498     1.3020    -0.1397 C.ar    
  12 C12            8.5505     2.6863    -0.1221 C.ar    
  13 C13            7.4450     3.5408    -0.0918 C.ar    
  14 C14            6.1717     3.0161    -0.0841 C.ar    
  15 C15            9.7207     0.6734    -0.1713 C.3     
  16 N16           10.6804     1.7833    -0.1701 N.am    
  17 C17           10.0011     2.9427    -0.1417 C.2     
  18 O18           10.5112     4.0463    -0.1338 O.2     
  19 N19            1.0960     3.3938     0.0089 N.pl3   
  20 C20           -0.1222     4.0734    -0.0813 C.ar    
  21 C21           -0.3051     5.2680     0.6034 C.ar    
  22 C22           -1.5099     5.9369     0.5121 C.ar    
  23 C23           -2.5337     5.4184    -0.2595 C.ar    
  24 C24           -2.3549     4.2293    -0.9424 C.ar    
  25 C25           -1.1504     3.5585    -0.8604 C.ar    
  26 C26           14.1474     1.4850    -1.6725 C.3     
  27 C27           12.6240     1.6245    -1.6462 C.3     
  28 C28           12.1391     1.6497    -0.1953 C.3     
  29 H29           -0.9310    -0.5435    -0.0183 H       
  30 H30            3.2244    -0.6273    -0.0871 H       
  31 H31            3.6919     2.7043    -0.9337 H       
  32 H32            3.7203     2.6770     0.8458 H       
  33 H33            6.9301    -0.2854    -0.1402 H       
  34 H34            7.5890     4.6111    -0.0777 H       
  35 H35            5.3179     3.6770    -0.0610 H       
  36 H36            9.8675     0.0502     0.7108 H       
  37 H37            9.8386     0.0770    -1.0760 H       
  38 H38            1.9248     3.8919     0.0864 H       
  39 H39            0.4938     5.6732     1.2068 H       
  40 H40           -1.6528     6.8658     1.0443 H       
  41 H41           -3.4751     5.9431    -0.3286 H       
  42 H42           -3.1565     3.8269    -1.5439 H       
  43 H43           -1.0114     2.6299    -1.3941 H       
  44 H44           14.4928     1.4671    -2.7061 H       
  45 H45           14.5987     2.3305    -1.1532 H       
  46 H46           14.4359     0.5581    -1.1768 H       
  47 H47           12.3354     2.5514    -2.1419 H       
  48 H48           12.1727     0.7791    -2.1655 H       
  49 H49           12.5904     2.4952     0.3240 H       
  50 H50           12.4277     0.7229     0.3004 H       
@<TRIPOS>BOND
   1    1    2 ar
   2    1    6 ar
   3    2    3 ar
   4    2   29 1
   5    3    4 ar
   6    4    5 ar
   7    4   30 1
   8    5    6 ar
   9    5    7 1
  10    6   19 1
  11    7    8 1
  12    7   31 1
  13    7   32 1
  14    8    9 1
  15    9   10 ar
  16    9   14 ar
  17   10   11 ar
  18   10   33 1
  19   11   12 ar
  20   11   15 1
  21   12   13 ar
  22   12   17 1
  23   13   14 ar
  24   13   34 1
  25   14   35 1
  26   15   16 1
  27   15   36 1
  28   15   37 1
  29   16   17 am
  30   16   28 1
  31   17   18 2
  32   19   20 1
  33   19   38 1
  34   20   21 ar
  35   20   25 ar
  36   21   22 ar
  37   21   39 1
  38   22   23 ar
  39   22   40 1
  40   23   24 ar
  41   23   41 1
  42   24   25 ar
  43   24   42 1
  44   25   43 1
  45   26   27 1
  46   26   44 1
  47   26   45 1
  48   26   46 1
  49   27   28 1
  50   27   47 1
  51   27   48 1
  52   28   49 1
  53   28   50 1

#	End of record

