#	Name: ASD01940013
#	Creating user name:	WinNT
#	Creation time:	15. 06. 2019 20:11

#	Modifying user name:	WinNT
#	Modification time:	15. 06. 2019 20:11

#	Program:	/corina/corina34_cracker 3.40 0067  02.08.2006

@<TRIPOS>MOLECULE
ASD01940013
  55   57    0    0    0
SMALL
NO_CHARGES


@<TRIPOS>ATOM
   1 C1            -0.0177     1.3892     0.0416 C.ar    
   2 C2            -0.0010     0.0000     0.0338 C.ar    
   3 C3            -1.1888    -0.7034     0.0703 C.ar    
   4 C4            -2.3940    -0.0266     0.1141 C.ar    
   5 C5            -2.4143     1.3562     0.1216 C.ar    
   6 C6            -1.2300     2.0658     0.0920 C.ar    
   7 N7             1.1823     2.1041     0.0048 N.pl3   
   8 C8             1.2512     3.3053    -0.6785 C.2     
   9 C9             2.3179     4.1920    -0.7150 C.2     
  10 C10            2.0785     5.3224    -1.4980 C.2     
  11 N11            0.9192     5.3994    -2.0777 N.2     
  12 S12            0.0357     4.0126    -1.6686 S.3     
  13 O13            3.0139     6.2961    -1.6462 O.3     
  14 C14            3.5817     3.9623     0.0038 C.2     
  15 N15            3.7344     4.4228     1.2950 N.pl3   
  16 N16            4.5593     3.3221    -0.5815 N.2     
  17 C17            4.9923     4.1943     2.0103 C.3     
  18 C18            5.9892     5.2990     1.6546 C.3     
  19 C19            4.7315     4.2086     3.5178 C.3     
  20 O20            4.3026     5.5127     3.9146 O.3     
  21 C21           -3.6882    -0.7976     0.1534 C.3     
  22 C22           -3.8547    -1.5654    -1.1326 C.ar    
  23 C23           -4.0619    -2.9318    -1.1000 C.ar    
  24 C24           -4.2146    -3.6361    -2.2796 C.ar    
  25 C25           -4.1605    -2.9740    -3.4919 C.ar    
  26 C26           -3.9541    -1.6075    -3.5245 C.ar    
  27 C27           -3.8058    -0.9025    -2.3447 C.ar    
  28 C28           -3.6646    -1.7742     1.3310 C.3     
  29 C29           -4.8568     0.1756     0.3212 C.3     
  30 H30            0.9398    -0.5291    -0.0012 H       
  31 H31           -1.1766    -1.7833     0.0642 H       
  32 H32           -3.3573     1.8816     0.1552 H       
  33 H33           -1.2465     3.1457     0.0979 H       
  34 H34            1.9670     1.7583     0.4581 H       
  35 H35            3.6101     6.1580    -2.3949 H       
  36 H36            3.0088     4.8980     1.7294 H       
  37 H37            5.3922     3.1708    -0.1079 H       
  38 H38            5.4036     3.2269     1.7219 H       
  39 H39            6.1750     5.2887     0.5805 H       
  40 H40            5.5778     6.2663     1.9429 H       
  41 H41            6.9251     5.1289     2.1868 H       
  42 H42            3.9560     3.4819     3.7594 H       
  43 H43            5.6486     3.9510     4.0476 H       
  44 H44            4.1186     5.5954     4.8604 H       
  45 H45           -4.1042    -3.4491    -0.1529 H       
  46 H46           -4.3758    -4.7037    -2.2542 H       
  47 H47           -4.2790    -3.5243    -4.4136 H       
  48 H48           -3.9115    -1.0902    -4.4716 H       
  49 H49           -3.6446     0.1651    -2.3702 H       
  50 H50           -3.5442    -1.2188     2.2611 H       
  51 H51           -4.6007    -2.3319     1.3593 H       
  52 H52           -2.8321    -2.4675     1.2114 H       
  53 H53           -4.8736     0.8713    -0.5177 H       
  54 H54           -5.7929    -0.3821     0.3496 H       
  55 H55           -4.7364     0.7309     1.2514 H       
@<TRIPOS>BOND
   1    1    2 ar
   2    1    7 1
   3    1    6 ar
   4    2    3 ar
   5    2   30 1
   6    3    4 ar
   7    3   31 1
   8    4    5 ar
   9    4   21 1
  10    5    6 ar
  11    5   32 1
  12    6   33 1
  13    7    8 1
  14    7   34 1
  15    8    9 2
  16    8   12 1
  17    9   10 1
  18    9   14 1
  19   10   11 2
  20   10   13 1
  21   11   12 1
  22   13   35 1
  23   14   15 1
  24   14   16 2
  25   15   17 1
  26   15   36 1
  27   16   37 1
  28   17   18 1
  29   17   19 1
  30   17   38 1
  31   18   39 1
  32   18   40 1
  33   18   41 1
  34   19   20 1
  35   19   42 1
  36   19   43 1
  37   20   44 1
  38   21   22 1
  39   21   28 1
  40   21   29 1
  41   22   23 ar
  42   22   27 ar
  43   23   24 ar
  44   23   45 1
  45   24   25 ar
  46   24   46 1
  47   25   26 ar
  48   25   47 1
  49   26   27 ar
  50   26   48 1
  51   27   49 1
  52   28   50 1
  53   28   51 1
  54   28   52 1
  55   29   53 1
  56   29   54 1
  57   29   55 1

#	End of record

