#	Name: ASD01900200
#	Creating user name:	WinNT
#	Creation time:	15. 06. 2019 19:51

#	Modifying user name:	WinNT
#	Modification time:	15. 06. 2019 19:51

#	Program:	/corina/corina34_cracker 3.40 0067  02.08.2006

@<TRIPOS>MOLECULE
ASD01900200
  41   44    0    0    0
SMALL
NO_CHARGES


@<TRIPOS>ATOM
   1 C1            -0.0168     1.3856     0.0142 C.ar    
   2 C2             0.6377     1.1395     1.2153 C.ar    
   3 C3             1.8474     0.4647     1.2014 C.ar    
   4 C4             2.3649     0.0567    -0.0173 C.ar    
   5 C5             1.6596     0.3347    -1.1821 C.ar    
   6 N6             0.5048     0.9822    -1.1349 N.ar    
   7 N7            -1.2351     2.0576     0.0190 N.pl3   
   8 N8             2.1711    -0.0708    -2.4093 N.pl3   
   9 S9            -2.5546    -0.4110    -0.1135 S.3     
  10 C10           -2.4225     1.3407     0.0207 C.2     
  11 N11           -3.6103     1.8561     0.1215 N.2     
  12 C12           -4.6332     1.0197     0.1213 C.2     
  13 C13           -6.0804     1.3328     0.3672 C.2     
  14 C14           -6.8391     0.4961     1.2110 C.2     
  15 C15           -6.2408    -0.6362     1.9888 C.3     
  16 C16           -5.9320    -1.8618     1.1116 C.3     
  17 C17           -5.3188    -1.3740    -0.2105 C.3     
  18 C18           -4.3054    -0.2848    -0.0485 C.2     
  19 N19           -8.0639     0.9358     1.1961 N.2     
  20 N20           -8.1135     2.0858     0.3919 N.pl3   
  21 C21           -6.8700     2.3143    -0.0990 C.2     
  22 C22           -1.2637     3.5223     0.0224 C.3     
  23 C23           -1.2776     4.0355    -1.4189 C.3     
  24 H24            0.2081     1.4710     2.1491 H       
  25 H25            2.3760     0.2613     2.1209 H       
  26 H26            3.3060    -0.4712    -0.0617 H       
  27 H27            3.0162    -0.5452    -2.4496 H       
  28 H28            1.6829     0.1206    -3.2254 H       
  29 H29           -5.3161    -0.2941     2.4535 H       
  30 H30           -6.9379    -0.9315     2.7730 H       
  31 H31           -5.2238    -2.5113     1.6261 H       
  32 H32           -6.8531    -2.4081     0.9084 H       
  33 H33           -4.8424    -2.2204    -0.7051 H       
  34 H34           -6.1214    -1.0088    -0.8512 H       
  35 H35           -8.9015     2.6239     0.2172 H       
  36 H36           -6.5718     3.1292    -0.7420 H       
  37 H37           -2.1592     3.8671     0.5395 H       
  38 H38           -0.3795     3.9018     0.5346 H       
  39 H39           -1.2989     5.1252    -1.4164 H       
  40 H40           -0.3822     3.6907    -1.9360 H       
  41 H41           -2.1618     3.6559    -1.9312 H       
@<TRIPOS>BOND
   1    1    2 ar
   2    1    6 ar
   3    1    7 1
   4    2    3 ar
   5    2   24 1
   6    3    4 ar
   7    3   25 1
   8    4    5 ar
   9    4   26 1
  10    5    6 ar
  11    5    8 1
  12    7   10 1
  13    7   22 1
  14    8   27 1
  15    8   28 1
  16    9   10 1
  17    9   18 1
  18   10   11 2
  19   11   12 1
  20   12   13 1
  21   12   18 2
  22   13   14 1
  23   13   21 2
  24   14   15 1
  25   14   19 2
  26   15   16 1
  27   15   29 1
  28   15   30 1
  29   16   17 1
  30   16   31 1
  31   16   32 1
  32   17   18 1
  33   17   33 1
  34   17   34 1
  35   19   20 1
  36   20   21 1
  37   20   35 1
  38   21   36 1
  39   22   23 1
  40   22   37 1
  41   22   38 1
  42   23   39 1
  43   23   40 1
  44   23   41 1

#	End of record

