#	Name: ASD01148513
#	Creating user name:	WinNT
#	Creation time:	15. 06. 2019 19:02

#	Modifying user name:	WinNT
#	Modification time:	15. 06. 2019 19:02

#	Program:	/corina/corina34_cracker 3.40 0067  02.08.2006

@<TRIPOS>MOLECULE
ASD01148513
  50   53    0    0    0
SMALL
NO_CHARGES


@<TRIPOS>ATOM
   1 C1            -0.0180     1.4347     0.0451 C.ar    
   2 C2            -0.0166     0.0528     0.0405 C.ar    
   3 C3             1.1824    -0.6376     0.0177 C.ar    
   4 C4             2.3790     0.0562    -0.0007 C.ar    
   5 C5             2.3764     1.4385     0.0038 C.ar    
   6 C6             1.1784     2.1275     0.0267 C.ar    
   7 C7             3.6799     2.1945    -0.0161 C.3     
   8 O8             4.6902     1.4619    -0.7386 O.3     
   9 C9             3.5592     3.4841    -0.8626 C.3     
  10 C10            4.0456     3.0305    -2.2259 C.2     
  11 N11            4.6593     1.9023    -2.0819 N.2     
  12 C12            3.8515     3.7515    -3.4955 C.ar    
  13 C13            4.3745     3.1986    -4.7424 C.ar    
  14 C14            3.1654     4.9580    -3.5157 C.ar    
  15 C15            2.9681     5.6562    -4.6937 C.ar    
  16 C16            3.4474     5.1800    -5.9066 C.ar    
  17 C17            4.1729     3.9125    -5.9473 C.ar    
  18 C18            3.2214     5.9454    -7.1453 C.2     
  19 O19            3.7325     5.5812    -8.1869 O.2     
  20 N20            2.4483     7.0492    -7.1240 N.am    
  21 C21            4.6737     3.3938    -7.1479 C.ar    
  22 C22            5.0678     1.9818    -4.7700 C.ar    
  23 C23            4.1465     2.5134     1.4056 C.3     
  24 F24            4.3126     1.3222     2.1202 F       
  25 F25            5.3644     3.1999     1.3538 F       
  26 F26            3.1890     3.3099     2.0430 F       
  27 Cl27           1.1849    -2.3735     0.0125 Cl      
  28 C28            2.2365     7.7667    -8.2852 C.2     
  29 N29            2.7791     7.3800    -9.3910 N.2     
  30 O30            2.5620     8.1155   -10.5814 O.3     
  31 C31            3.2221     7.5744   -11.7275 C.3     
  32 C32            5.5386     1.5019    -5.9560 C.ar    
  33 C33            5.3448     2.2071    -7.1407 C.ar    
  34 H34           -0.9538     1.9736     0.0584 H       
  35 H35           -0.9512    -0.4883     0.0552 H       
  36 H36            3.3152    -0.4821    -0.0182 H       
  37 H37            1.1768     3.2075     0.0302 H       
  38 H38            2.5229     3.8183    -0.9130 H       
  39 H39            4.2013     4.2698    -0.4644 H       
  40 H40            2.7768     5.3603    -2.5918 H       
  41 H41            2.4291     6.5918    -4.6693 H       
  42 H42            2.0406     7.3397    -6.2932 H       
  43 H43            4.5289     3.9305    -8.0739 H       
  44 H44            5.2286     1.4273    -3.8572 H       
  45 H45            1.6169     8.6511    -8.2681 H       
  46 H46            3.0061     8.1943   -12.5976 H       
  47 H47            4.2978     7.5561   -11.5524 H       
  48 H48            2.8659     6.5599   -11.9067 H       
  49 H49            6.0733     0.5638    -5.9761 H       
  50 H50            5.7306     1.8079    -8.0671 H       
@<TRIPOS>BOND
   1    1    2 ar
   2    1    6 ar
   3    1   34 1
   4    2    3 ar
   5    2   35 1
   6    3    4 ar
   7    3   27 1
   8    4    5 ar
   9    4   36 1
  10    5    6 ar
  11    5    7 1
  12    6   37 1
  13    7    8 1
  14    7    9 1
  15    7   23 1
  16    8   11 1
  17    9   10 1
  18    9   38 1
  19    9   39 1
  20   10   11 2
  21   10   12 1
  22   12   13 ar
  23   12   14 ar
  24   13   22 ar
  25   13   17 ar
  26   14   15 ar
  27   14   40 1
  28   15   16 ar
  29   15   41 1
  30   16   17 ar
  31   16   18 1
  32   17   21 ar
  33   18   19 2
  34   18   20 am
  35   20   28 1
  36   20   42 1
  37   21   33 ar
  38   21   43 1
  39   22   32 ar
  40   22   44 1
  41   23   24 1
  42   23   25 1
  43   23   26 1
  44   28   29 2
  45   28   45 1
  46   29   30 1
  47   30   31 1
  48   31   46 1
  49   31   47 1
  50   31   48 1
  51   32   33 ar
  52   32   49 1
  53   33   50 1

#	End of record

