#	Name: ASD01884287
#	Creating user name:	WinNT
#	Creation time:	15. 06. 2019 19:47

#	Modifying user name:	WinNT
#	Modification time:	15. 06. 2019 19:47

#	Program:	/corina/corina34_cracker 3.40 0067  02.08.2006

@<TRIPOS>MOLECULE
ASD01884287
  36   38    0    0    0
SMALL
NO_CHARGES


@<TRIPOS>ATOM
   1 C1            -0.0167     1.3781     0.0096 C.ar    
   2 C2             0.0021    -0.0041     0.0020 C.ar    
   3 C3             1.2084    -0.6789    -0.0132 C.ar    
   4 C4             2.3960     0.0285    -0.0212 C.ar    
   5 C5             2.3773     1.4107    -0.0145 C.ar    
   6 C6             1.1710     2.0855     0.0021 C.ar    
   7 C7             3.6720     2.1819    -0.0228 C.3     
   8 O8             4.0688     2.4320    -1.3726 O.3     
   9 C9             5.2209     3.1200    -1.5575 C.2     
  10 C10            5.9628     3.5509    -0.4733 C.2     
  11 C11            5.6847     3.4026    -2.8578 C.2     
  12 C12            6.8352     4.0891    -3.0256 C.2     
  13 N13            7.5567     4.5135    -1.9551 N.am    
  14 C14            7.1491     4.2591    -0.6979 C.2     
  15 O15            7.8137     4.6503     0.2490 O.2     
  16 C16            8.8009     5.2555    -2.1731 C.3     
  17 C17            8.4960     6.7532    -2.2429 C.3     
  18 C18            9.6838     7.7117    -2.3497 C.3     
  19 C19            8.7829     7.4718    -3.5628 C.3     
  20 H20           -0.9592     1.9054     0.0170 H       
  21 H21           -0.9258    -0.5567     0.0083 H       
  22 H22            1.2231    -1.7588    -0.0184 H       
  23 H23            3.3386    -0.4987    -0.0324 H       
  24 H24            1.1563     3.1654     0.0069 H       
  25 H25            3.5335     3.1300     0.4968 H       
  26 H26            4.4443     1.6008     0.4812 H       
  27 H27            5.6313     3.3440     0.5335 H       
  28 H28            5.1217     3.0708    -3.7176 H       
  29 H29            7.1869     4.3035    -4.0240 H       
  30 H30            9.4881     5.0626    -1.3493 H       
  31 H31            9.2567     4.9335    -3.1094 H       
  32 H32            7.6322     7.0845    -1.6665 H       
  33 H33            9.6012     8.6738    -1.8439 H       
  34 H34           10.6824     7.2754    -2.3702 H       
  35 H35            9.1888     6.8776    -4.3815 H       
  36 H36            8.1076     8.2760    -3.8552 H       
@<TRIPOS>BOND
   1    1    2 ar
   2    1    6 ar
   3    1   20 1
   4    2    3 ar
   5    2   21 1
   6    3    4 ar
   7    3   22 1
   8    4    5 ar
   9    4   23 1
  10    5    6 ar
  11    5    7 1
  12    6   24 1
  13    7    8 1
  14    7   25 1
  15    7   26 1
  16    8    9 1
  17    9   10 2
  18    9   11 1
  19   10   14 1
  20   10   27 1
  21   11   12 2
  22   11   28 1
  23   12   13 1
  24   12   29 1
  25   13   14 am
  26   13   16 1
  27   14   15 2
  28   16   17 1
  29   16   30 1
  30   16   31 1
  31   17   18 1
  32   17   19 1
  33   17   32 1
  34   18   19 1
  35   18   33 1
  36   18   34 1
  37   19   35 1
  38   19   36 1

#	End of record

