#	Name: ASD04591114
#	Creating user name:	WinNT
#	Creation time:	15. 06. 2019 20:52

#	Modifying user name:	WinNT
#	Modification time:	15. 06. 2019 20:52

#	Program:	/corina/corina34_cracker 3.40 0067  02.08.2006

@<TRIPOS>MOLECULE
ASD04591114
  75   80    0    0    0
SMALL
NO_CHARGES


@<TRIPOS>ATOM
   1 N1            -0.0159     1.3227     0.0093 N.ar    
   2 C2             0.0021    -0.0041     0.0020 C.ar    
   3 N3             1.1298    -0.6960    -0.0120 N.ar    
   4 C4             2.3053    -0.0745    -0.0199 C.ar    
   5 C5             2.3200     1.3349    -0.0129 C.ar    
   6 C6             1.1087     2.0191     0.0023 C.ar    
   7 N7             3.6032    -0.5218    -0.0347 N.pl3   
   8 C8             4.4830     0.5469    -0.0379 C.ar    
   9 C9             3.7326     1.7362    -0.0246 C.ar    
  10 C10            5.8688     0.6385    -0.0513 C.ar    
  11 N11            6.4627     1.8145    -0.0515 N.ar    
  12 C12            5.7871     2.9500    -0.0392 C.ar    
  13 C13            4.4084     2.9558    -0.0250 C.ar    
  14 N14           -1.2019    -0.6887     0.0098 N.pl3   
  15 C15           -2.4052     0.0165     0.0251 C.ar    
  16 C16            4.0011    -1.9317    -0.0453 C.3     
  17 C17            3.4604    -2.6413     1.2084 C.3     
  18 C18            2.5264    -3.7639     0.7111 C.3     
  19 C19            3.0181    -4.0573    -0.7281 C.3     
  20 C20            3.3769    -2.6478    -1.2607 C.3     
  21 C21           -3.6091    -0.6786     0.0329 C.ar    
  22 C22           -4.7970     0.0301     0.0480 C.ar    
  23 C23           -4.7390     1.4225     0.0549 C.ar    
  24 C24           -3.5009     2.0479     0.0465 C.ar    
  25 N25           -2.3877     1.3398     0.0375 N.ar    
  26 N26           -5.9158     2.1807     0.0698 N.3     
  27 C27           -5.6156     3.6187     0.0747 C.3     
  28 C28           -6.9175     4.4095    -0.0917 C.3     
  29 N29           -7.8671     3.9689     0.9415 N.am    
  30 C30           -8.1157     2.5268     1.0886 C.3     
  31 C31           -6.7665     1.8101     1.2086 C.3     
  32 C32           -3.6199    -2.1856     0.0244 C.3     
  33 O33           -9.3585     4.4400     2.6728 O.3     
  34 C34           -9.9953     5.4585     3.4885 C.3     
  35 C35          -10.7938     6.4055     2.5905 C.3     
  36 C36          -10.9379     4.7920     4.4927 C.3     
  37 C37           -8.9254     6.2512     4.2420 C.3     
  38 C38           -8.4926     4.8630     1.7327 C.2     
  39 O39           -8.2749     6.0508     1.5975 O.2     
  40 H40            1.0870     3.0989     0.0076 H       
  41 H41            6.4647    -0.2621    -0.0613 H       
  42 H42            6.3229     3.8877    -0.0396 H       
  43 H43            3.8622     3.8875    -0.0151 H       
  44 H44           -1.2083    -1.6587     0.0047 H       
  45 H45            5.0875    -2.0125    -0.0807 H       
  46 H46            4.2843    -3.0673     1.7810 H       
  47 H47            2.9019    -1.9367     1.8247 H       
  48 H48            2.6284    -4.6503     1.3372 H       
  49 H49            1.4917    -3.4217     0.6984 H       
  50 H50            3.8985    -4.6998    -0.7121 H       
  51 H51            2.2228    -4.5047    -1.3243 H       
  52 H52            2.4794    -2.1253    -1.5919 H       
  53 H53            4.0994    -2.7197    -2.0736 H       
  54 H54           -5.7470    -0.4836     0.0540 H       
  55 H55           -3.4475     3.1265     0.0514 H       
  56 H56           -5.1443     3.8886     1.0198 H       
  57 H57           -4.9404     3.8521    -0.7486 H       
  58 H58           -6.7167     5.4744     0.0258 H       
  59 H59           -7.3373     4.2201    -1.0796 H       
  60 H60           -8.7069     2.3469     1.9865 H       
  61 H61           -8.6506     2.1563     0.2142 H       
  62 H62           -6.9261     0.7318     1.2076 H       
  63 H63           -6.2792     2.1052     2.1379 H       
  64 H64           -3.6124    -2.5547     1.0499 H       
  65 H65           -4.5174    -2.5396    -0.4828 H       
  66 H66           -2.7375    -2.5523    -0.5002 H       
  67 H67          -11.5561     5.8408     2.0537 H       
  68 H68          -11.2719     7.1701     3.2028 H       
  69 H69          -10.1223     6.8803     1.8751 H       
  70 H70          -10.3691     4.1173     5.1324 H       
  71 H71          -11.4160     5.5566     5.1050 H       
  72 H72          -11.7002     4.2273     3.9559 H       
  73 H73           -8.2538     6.7260     3.5266 H       
  74 H74           -9.4034     7.0158     4.8543 H       
  75 H75           -8.3565     5.5765     4.8818 H       
@<TRIPOS>BOND
   1    1    2 ar
   2    1    6 ar
   3    2    3 ar
   4    2   14 1
   5    3    4 ar
   6    4    5 ar
   7    4    7 1
   8    5    6 ar
   9    5    9 1
  10    6   40 1
  11    7    8 1
  12    7   16 1
  13    8    9 ar
  14    8   10 ar
  15    9   13 ar
  16   10   11 ar
  17   10   41 1
  18   11   12 ar
  19   12   13 ar
  20   12   42 1
  21   13   43 1
  22   14   15 1
  23   14   44 1
  24   15   21 ar
  25   15   25 ar
  26   16   17 1
  27   16   20 1
  28   16   45 1
  29   17   18 1
  30   17   46 1
  31   17   47 1
  32   18   19 1
  33   18   48 1
  34   18   49 1
  35   19   20 1
  36   19   50 1
  37   19   51 1
  38   20   52 1
  39   20   53 1
  40   21   22 ar
  41   21   32 1
  42   22   23 ar
  43   22   54 1
  44   23   24 ar
  45   23   26 1
  46   24   25 ar
  47   24   55 1
  48   26   27 1
  49   26   31 1
  50   27   28 1
  51   27   56 1
  52   27   57 1
  53   28   29 1
  54   28   58 1
  55   28   59 1
  56   29   30 1
  57   29   38 am
  58   30   31 1
  59   30   60 1
  60   30   61 1
  61   31   62 1
  62   31   63 1
  63   32   64 1
  64   32   65 1
  65   32   66 1
  66   33   34 1
  67   33   38 1
  68   34   35 1
  69   34   36 1
  70   34   37 1
  71   35   67 1
  72   35   68 1
  73   35   69 1
  74   36   70 1
  75   36   71 1
  76   36   72 1
  77   37   73 1
  78   37   74 1
  79   37   75 1
  80   38   39 2

#	End of record

