#	Name: ASD02500590
#	Creating user name:	WinNT
#	Creation time:	15. 06. 2019 20:23

#	Modifying user name:	WinNT
#	Modification time:	15. 06. 2019 20:23

#	Program:	/corina/corina34_cracker 3.40 0067  02.08.2006

@<TRIPOS>MOLECULE
ASD02500590
  68   72    0    0    0
SMALL
NO_CHARGES


@<TRIPOS>ATOM
   1 N1            -3.5915     5.1248     0.7338 N.ar    
   2 C2            -4.7919     5.6247     0.8988 C.ar    
   3 C3            -5.6165     5.2213     1.9470 C.ar    
   4 C4            -5.1789     4.2808     2.8353 C.ar    
   5 C5            -3.8893     3.7458     2.6548 C.ar    
   6 C6            -3.3713     2.7759     3.5276 C.ar    
   7 C7            -2.1190     2.2832     3.3193 C.ar    
   8 C8            -1.3440     2.7293     2.2510 C.ar    
   9 C9            -1.8148     3.6684     1.3856 C.ar    
  10 C10           -3.1028     4.2010     1.5674 C.ar    
  11 S11           -0.8131     4.2151     0.0431 S.o2    
  12 O12           -0.8565     5.6353     0.0625 O.2     
  13 O13            0.3968     3.4735     0.1172 O.2     
  14 N14           -1.5660     3.7433    -1.3543 N.am    
  15 C15           -1.7384     2.3910    -1.6287 C.ar    
  16 C16           -2.9756     1.9232    -2.0552 C.ar    
  17 C17           -3.1471     0.5779    -2.3287 C.ar    
  18 C18           -2.0672    -0.3059    -2.1728 C.ar    
  19 C19           -0.8284     0.1805    -1.7429 C.ar    
  20 C20           -0.6685     1.5106    -1.4808 C.ar    
  21 C21           -2.2385    -1.7395    -2.4606 C.2     
  22 O22           -3.1327    -2.3650    -1.9234 O.2     
  23 N23           -1.4045    -2.3588    -3.3193 N.am    
  24 C24           -1.6127    -3.7666    -3.6911 C.3     
  25 C25           -1.5990    -3.8734    -5.2197 C.3     
  26 N26           -0.3642    -3.2701    -5.7385 N.3     
  27 C27           -0.3014    -1.8353    -5.4294 C.3     
  28 C28           -0.2655    -1.6431    -3.9141 C.3     
  29 C29           -0.2304    -3.5038    -7.1826 C.3     
  30 C30            0.9640    -2.7122    -7.7189 C.3     
  31 C31           -0.0133    -4.9735    -7.4356 C.ar    
  32 C32           -0.5806    -5.5753    -8.5432 C.ar    
  33 C33           -0.3816    -6.9235    -8.7752 C.ar    
  34 C34            0.3851    -7.6697    -7.8999 C.ar    
  35 C35            0.9531    -7.0676    -6.7927 C.ar    
  36 C36            0.7577    -5.7186    -6.5630 C.ar    
  37 O37           -4.3525     0.1150    -2.7448 O.3     
  38 C38           -5.4040     1.0731    -2.8798 C.3     
  39 H39           -5.1512     6.3694     0.2039 H       
  40 H40           -6.6006     5.6523     2.0571 H       
  41 H41           -5.8046     3.9568     3.6538 H       
  42 H42           -3.9624     2.4229     4.3597 H       
  43 H43           -1.7213     1.5371     3.9913 H       
  44 H44           -0.3534     2.3236     2.1075 H       
  45 H45           -1.8868     4.4102    -1.9813 H       
  46 H46           -3.8019     2.6087    -2.1725 H       
  47 H47            0.0042    -0.4967    -1.6220 H       
  48 H48            0.2913     1.8820    -1.1533 H       
  49 H49           -0.8122    -4.3776    -3.2741 H       
  50 H50           -2.5748    -4.1078    -3.3088 H       
  51 H51           -1.6414    -4.9229    -5.5113 H       
  52 H52           -2.4610    -3.3466    -5.6289 H       
  53 H53            0.5971    -1.4066    -5.8731 H       
  54 H54           -1.1815    -1.3369    -5.8357 H       
  55 H55           -0.3374    -0.5812    -3.6792 H       
  56 H56            0.6669    -2.0462    -3.5190 H       
  57 H57           -1.1390    -3.1783    -7.6891 H       
  58 H58            1.0633    -2.8857    -8.7904 H       
  59 H59            0.8071    -1.6492    -7.5359 H       
  60 H60            1.8726    -3.0378    -7.2124 H       
  61 H61           -1.1796    -4.9924    -9.2271 H       
  62 H62           -0.8254    -7.3938    -9.6402 H       
  63 H63            0.5400    -8.7231    -8.0808 H       
  64 H64            1.5519    -7.6507    -6.1086 H       
  65 H65            1.2045    -5.2474    -5.7000 H       
  66 H66           -5.1140     1.8308    -3.6078 H       
  67 H67           -6.3108     0.5721    -3.2185 H       
  68 H68           -5.5893     1.5474    -1.9160 H       
@<TRIPOS>BOND
   1    1    2 ar
   2    1   10 ar
   3    2    3 ar
   4    2   39 1
   5    3    4 ar
   6    3   40 1
   7    4    5 ar
   8    4   41 1
   9    5    6 ar
  10    5   10 ar
  11    6    7 ar
  12    6   42 1
  13    7    8 ar
  14    7   43 1
  15    8    9 ar
  16    8   44 1
  17    9   10 ar
  18    9   11 1
  19   11   12 2
  20   11   13 2
  21   11   14 am
  22   14   15 1
  23   14   45 1
  24   15   16 ar
  25   15   20 ar
  26   16   17 ar
  27   16   46 1
  28   17   18 ar
  29   17   37 1
  30   18   19 ar
  31   18   21 1
  32   19   20 ar
  33   19   47 1
  34   20   48 1
  35   21   22 2
  36   21   23 am
  37   23   24 1
  38   23   28 1
  39   24   25 1
  40   24   49 1
  41   24   50 1
  42   25   26 1
  43   25   51 1
  44   25   52 1
  45   26   27 1
  46   26   29 1
  47   27   28 1
  48   27   53 1
  49   27   54 1
  50   28   55 1
  51   28   56 1
  52   29   30 1
  53   29   31 1
  54   29   57 1
  55   30   58 1
  56   30   59 1
  57   30   60 1
  58   31   32 ar
  59   31   36 ar
  60   32   33 ar
  61   32   61 1
  62   33   34 ar
  63   33   62 1
  64   34   35 ar
  65   34   63 1
  66   35   36 ar
  67   35   64 1
  68   36   65 1
  69   37   38 1
  70   38   66 1
  71   38   67 1
  72   38   68 1

#	End of record

