#	Name: ASD00071009
#	Creating user name:	WinNT
#	Creation time:	15. 06. 2019 18:30

#	Modifying user name:	WinNT
#	Modification time:	15. 06. 2019 18:30

#	Program:	/corina/corina34_cracker 3.40 0067  02.08.2006

@<TRIPOS>MOLECULE
ASD00071009
  43   45    0    0    0
SMALL
NO_CHARGES


@<TRIPOS>ATOM
   1 N1             1.8336     1.2423    -1.2031 N.ar    
   2 C2             1.6397    -0.0603    -1.1903 C.ar    
   3 C3             1.3733    -0.7509     0.0011 C.ar    
   4 C4             1.3113    -0.0714     1.1800 C.ar    
   5 C5             1.5202     1.3231     1.1594 C.ar    
   6 C6             1.4708     2.0841     2.3371 C.ar    
   7 C7             1.6782     3.4293     2.2793 C.ar    
   8 C8             1.9384     4.0601     1.0655 C.ar    
   9 C9             1.9929     3.3518    -0.0962 C.ar    
  10 C10            1.7847     1.9625    -0.0764 C.ar    
  11 N11            1.6998    -0.7657    -2.3827 N.pl3   
  12 C12            1.1557    -2.2419    -0.0231 C.3     
  13 C13            1.0247    -2.7534     1.3884 C.ar    
  14 C14           -0.2275    -2.8633     1.9737 C.ar    
  15 C15           -0.3455    -3.3345     3.2735 C.ar    
  16 C16            0.7836    -3.6940     3.9845 C.ar    
  17 C17            2.0324    -3.5854     3.4035 C.ar    
  18 C18            2.1552    -3.1200     2.1017 C.ar    
  19 O19            3.3833    -3.0191     1.5286 O.3     
  20 C20            4.5040    -3.4146     2.3221 C.3     
  21 O21           -1.3381    -2.5094     1.2752 O.3     
  22 C22           -2.5949    -2.6488     1.9408 C.3     
  23 C23           -3.7202    -2.2053     1.0038 C.3     
  24 H24            1.1069    -0.5872     2.1065 H       
  25 H25            1.2691     1.6060     3.2843 H       
  26 H26            1.6399     4.0141     3.1865 H       
  27 H27            2.0991     5.1279     1.0451 H       
  28 H28            2.1951     3.8562    -1.0295 H       
  29 H29            1.8010    -0.2908    -3.2225 H       
  30 H30            1.6405    -1.7338    -2.3771 H       
  31 H31            0.2446    -2.4671    -0.5772 H       
  32 H32            2.0043    -2.7251    -0.5073 H       
  33 H33           -1.3206    -3.4199     3.7299 H       
  34 H34            0.6898    -4.0602     4.9962 H       
  35 H35            2.9133    -3.8667     3.9614 H       
  36 H36            4.3977    -4.4621     2.6045 H       
  37 H37            5.4206    -3.2846     1.7468 H       
  38 H38            4.5485    -2.7989     3.2205 H       
  39 H39           -2.7445    -3.6917     2.2201 H       
  40 H40           -2.6024    -2.0280     2.8367 H       
  41 H41           -4.6789    -2.3115     1.5115 H       
  42 H42           -3.5706    -1.1623     0.7245 H       
  43 H43           -3.7128    -2.8260     0.1078 H       
@<TRIPOS>BOND
   1    1    2 ar
   2    1   10 ar
   3    2    3 ar
   4    2   11 1
   5    3    4 ar
   6    3   12 1
   7    4    5 ar
   8    4   24 1
   9    5    6 ar
  10    5   10 ar
  11    6    7 ar
  12    6   25 1
  13    7    8 ar
  14    7   26 1
  15    8    9 ar
  16    8   27 1
  17    9   10 ar
  18    9   28 1
  19   11   29 1
  20   11   30 1
  21   12   13 1
  22   12   31 1
  23   12   32 1
  24   13   14 ar
  25   13   18 ar
  26   14   15 ar
  27   14   21 1
  28   15   16 ar
  29   15   33 1
  30   16   17 ar
  31   16   34 1
  32   17   18 ar
  33   17   35 1
  34   18   19 1
  35   19   20 1
  36   20   36 1
  37   20   37 1
  38   20   38 1
  39   21   22 1
  40   22   23 1
  41   22   39 1
  42   22   40 1
  43   23   41 1
  44   23   42 1
  45   23   43 1

#	End of record

