#	Name: ASD01908030
#	Creating user name:	WinNT
#	Creation time:	15. 06. 2019 19:54

#	Modifying user name:	WinNT
#	Modification time:	15. 06. 2019 19:54

#	Program:	/corina/corina34_cracker 3.40 0067  02.08.2006

@<TRIPOS>MOLECULE
ASD01908030
  34   36    0    0    0
SMALL
NO_CHARGES


@<TRIPOS>ATOM
   1 S1            -0.0218     1.7566     0.0117 S.3     
   2 C2             0.0021    -0.0041     0.0020 C.2     
   3 N3             1.2311    -0.4189    -0.0119 N.2     
   4 C4             2.1813     0.5150    -0.0160 C.2     
   5 C5             1.7398     1.7836    -0.0050 C.2     
   6 N6            -1.1185    -0.8201     0.0087 N.pl3   
   7 Cl7            2.7347     3.2062    -0.0068 Cl      
   8 N8             5.5367    -0.8341     0.3289 N.pl3   
   9 N9             5.7799     0.2901    -0.4696 N.2     
  10 C10            4.6435     0.8979    -0.6878 C.2     
  11 C11            3.6277     0.1770    -0.0312 C.2     
  12 C12            4.2126    -0.8881     0.5880 C.2     
  13 C13            6.5436    -1.7899     0.7968 C.3     
  14 C14            7.3036    -2.3373    -0.3839 C.ar    
  15 C15            8.4485    -1.6990    -0.8237 C.ar    
  16 C16            9.1470    -2.1988    -1.9057 C.ar    
  17 C17            8.6987    -3.3420    -2.5512 C.ar    
  18 C18            7.5496    -3.9806    -2.1080 C.ar    
  19 C19            6.8578    -3.4800    -1.0220 C.ar    
  20 O20            9.3838    -3.8354    -3.6162 O.3     
  21 C21            8.8640    -5.0157    -4.2316 C.3     
  22 H22           -2.0050    -0.4266     0.0193 H       
  23 H23           -1.0161    -1.7847     0.0029 H       
  24 H24            4.5073     1.7970    -1.2704 H       
  25 H25            3.7082    -1.6389     1.1781 H       
  26 H26            7.2353    -1.2872     1.4727 H       
  27 H27            6.0513    -2.6079     1.3228 H       
  28 H28            8.7969    -0.8089    -0.3211 H       
  29 H29           10.0411    -1.6997    -2.2491 H       
  30 H30            7.1985    -4.8707    -2.6088 H       
  31 H31            5.9659    -3.9795    -0.6736 H       
  32 H32            7.8556    -4.8211    -4.5967 H       
  33 H33            9.5038    -5.3020    -5.0664 H       
  34 H34            8.8363    -5.8242    -3.5012 H       
@<TRIPOS>BOND
   1    1    2 1
   2    1    5 1
   3    2    3 2
   4    2    6 1
   5    3    4 1
   6    4    5 2
   7    4   11 1
   8    5    7 1
   9    6   22 1
  10    6   23 1
  11    8    9 1
  12    8   12 1
  13    8   13 1
  14    9   10 2
  15   10   11 1
  16   10   24 1
  17   11   12 2
  18   12   25 1
  19   13   14 1
  20   13   26 1
  21   13   27 1
  22   14   15 ar
  23   14   19 ar
  24   15   16 ar
  25   15   28 1
  26   16   17 ar
  27   16   29 1
  28   17   18 ar
  29   17   20 1
  30   18   19 ar
  31   18   30 1
  32   19   31 1
  33   20   21 1
  34   21   32 1
  35   21   33 1
  36   21   34 1

#	End of record

