#	Name: ASD01916089
#	Creating user name:	WinNT
#	Creation time:	15. 06. 2019 20:06

#	Modifying user name:	WinNT
#	Modification time:	15. 06. 2019 20:06

#	Program:	/corina/corina34_cracker 3.40 0067  02.08.2006

@<TRIPOS>MOLECULE
ASD01916089
  38   40    0    0    0
SMALL
NO_CHARGES


@<TRIPOS>ATOM
   1 C1            -0.3964     1.7260     0.1088 C.ar    
   2 C2            -0.5253     0.3756     0.3788 C.ar    
   3 N3             0.5199    -0.3512     0.7125 N.ar    
   4 C4             1.7365     0.1736     0.8043 C.ar    
   5 C5             1.9461     1.5249     0.5478 C.ar    
   6 C6             0.8600     2.3205     0.1923 C.ar    
   7 C7            -1.8827    -0.2729     0.2900 C.3     
   8 O8             1.0221     3.6430    -0.0665 O.3     
   9 C9             2.2724     4.1651     0.0382 C.ar    
  10 C10            3.2028     3.9707    -0.9723 C.ar    
  11 N11            4.4169     4.4754    -0.8759 N.ar    
  12 C12            4.7955     5.1788     0.1729 C.ar    
  13 C13            3.9240     5.4150     1.2216 C.ar    
  14 C14            2.6356     4.9071     1.1578 C.ar    
  15 C15            2.8806    -0.6874     1.1838 C.2     
  16 N16            2.6844    -1.9971     1.4341 N.am    
  17 O17            3.9959    -0.2130     1.2694 O.2     
  18 C18            3.7704    -2.8266     1.6870 C.ar    
  19 C19            3.5691    -4.1971     1.8282 C.ar    
  20 C20            4.6514    -5.0155     2.0788 C.ar    
  21 C21            5.9212    -4.4282     2.1819 C.ar    
  22 C22            6.0425    -3.0458     2.0282 C.ar    
  23 N23            4.9837    -2.3025     1.7850 N.ar    
  24 Cl24           4.4358     6.3420     2.5974 Cl      
  25 C25            7.0758    -5.2346     2.4415 C.1     
  26 N26            7.9917    -5.8742     2.6474 N.1     
  27 H27           -1.2602     2.3122    -0.1681 H       
  28 H28            2.9359     1.9503     0.6236 H       
  29 H29           -2.0428    -0.6433    -0.7226 H       
  30 H30           -1.9351    -1.1039     0.9934 H       
  31 H31           -2.6520     0.4595     0.5348 H       
  32 H32            2.9297     3.3995    -1.8473 H       
  33 H33            5.7992     5.5755     0.2144 H       
  34 H34            1.9340     5.0756     1.9614 H       
  35 H35            1.7851    -2.3608     1.4376 H       
  36 H36            2.5768    -4.6149     1.7428 H       
  37 H37            4.5241    -6.0818     2.1930 H       
  38 H38            7.0149    -2.5823     2.1055 H       
@<TRIPOS>BOND
   1    1    2 ar
   2    1    6 ar
   3    1   27 1
   4    2    3 ar
   5    2    7 1
   6    3    4 ar
   7    4    5 ar
   8    4   15 1
   9    5    6 ar
  10    5   28 1
  11    6    8 1
  12    7   29 1
  13    7   30 1
  14    7   31 1
  15    8    9 1
  16    9   10 ar
  17    9   14 ar
  18   10   11 ar
  19   10   32 1
  20   11   12 ar
  21   12   13 ar
  22   12   33 1
  23   13   14 ar
  24   13   24 1
  25   14   34 1
  26   15   16 am
  27   15   17 2
  28   16   18 1
  29   16   35 1
  30   18   19 ar
  31   18   23 ar
  32   19   20 ar
  33   19   36 1
  34   20   21 ar
  35   20   37 1
  36   21   22 ar
  37   21   25 1
  38   22   23 ar
  39   22   38 1
  40   25   26 3

#	End of record

