#	Name: ASD07300880
#	Creating user name:	WinNT
#	Creation time:	15. 06. 2019 21:10

#	Modifying user name:	WinNT
#	Modification time:	15. 06. 2019 21:10

#	Program:	/corina/corina34_cracker 3.40 0067  02.08.2006

@<TRIPOS>MOLECULE
ASD07300880
  48   52    0    0    0
SMALL
NO_CHARGES


@<TRIPOS>ATOM
   1 N1            -0.3719     1.7709     0.1014 N.am    
   2 C2            -0.1435     0.4360     0.1862 C.2     
   3 N3             1.0421    -0.0889     0.0822 N.2     
   4 C4             2.1354     0.6636    -0.1191 C.2     
   5 C5             1.9980     2.0569    -0.2207 C.2     
   6 C6             0.6565     2.6277    -0.1007 C.2     
   7 N7             3.4587     0.3928    -0.2620 N.pl3   
   8 N8             4.1376     1.6033    -0.4504 N.2     
   9 C9             3.2841     2.5895    -0.4275 C.2     
  10 O10            0.4715     3.8293    -0.1804 O.2     
  11 C11            4.0711    -0.9375    -0.2249 C.3     
  12 C12            4.7803    -1.2097    -1.5530 C.3     
  13 C13            5.4199    -2.5991    -1.5142 C.3     
  14 C14            6.4355    -2.6613    -0.3716 C.3     
  15 C15            5.7262    -2.3891     0.9565 C.3     
  16 C16            5.0867    -0.9998     0.9177 C.3     
  17 C17           -1.3180    -0.4809     0.4117 C.3     
  18 C18           -2.0516    -0.8719    -0.8820 C.3     
  19 C19           -2.1766    -2.2860    -0.2907 C.3     
  20 C20           -0.9265    -1.9621     0.5444 C.3     
  21 C21           -1.1830    -0.8065    -2.1118 C.2     
  22 O22           -1.3260     0.0443    -3.1419 O.3     
  23 C23           -0.3439    -0.2458    -4.0117 C.2     
  24 N24            0.3461    -1.2292    -3.5076 N.2     
  25 N25           -0.1524    -1.5608    -2.3687 N.2     
  26 C26           -0.0876     0.4403    -5.3287 C.3     
  27 F27            7.0203    -3.9317    -0.3362 F       
  28 F28            7.4278    -1.6967    -0.5766 F       
  29 H29           -1.2762     2.1123     0.1819 H       
  30 H30            3.5235     3.6359    -0.5468 H       
  31 H31            3.2979    -1.6891    -0.0652 H       
  32 H32            4.0568    -1.1653    -2.3670 H       
  33 H33            5.5535    -0.4581    -1.7127 H       
  34 H34            4.6467    -3.3506    -1.3545 H       
  35 H35            5.9251    -2.7930    -2.4604 H       
  36 H36            4.9531    -3.1407     1.1162 H       
  37 H37            6.4498    -2.4335     1.7705 H       
  38 H38            5.8598    -0.2482     0.7580 H       
  39 H39            4.5814    -0.8059     1.8639 H       
  40 H40           -1.9825    -0.1311     1.2018 H       
  41 H41           -3.0086    -0.3665    -1.0111 H       
  42 H42           -3.0759    -2.4310     0.3079 H       
  43 H43           -2.0202    -3.0800    -1.0208 H       
  44 H44            0.0093    -2.2128     0.0448 H       
  45 H45           -0.9753    -2.3367     1.5668 H       
  46 H46            0.6572     1.2242    -5.1911 H       
  47 H47            0.2803    -0.2874    -6.0520 H       
  48 H48           -1.0148     0.8805    -5.6956 H       
@<TRIPOS>BOND
   1    1    2 1
   2    1    6 am
   3    1   29 1
   4    2    3 2
   5    2   17 1
   6    3    4 1
   7    4    5 2
   8    4    7 1
   9    5    6 1
  10    5    9 1
  11    6   10 2
  12    7    8 1
  13    7   11 1
  14    8    9 2
  15    9   30 1
  16   11   12 1
  17   11   16 1
  18   11   31 1
  19   12   13 1
  20   12   32 1
  21   12   33 1
  22   13   14 1
  23   13   34 1
  24   13   35 1
  25   14   15 1
  26   14   27 1
  27   14   28 1
  28   15   16 1
  29   15   36 1
  30   15   37 1
  31   16   38 1
  32   16   39 1
  33   17   18 1
  34   17   20 1
  35   17   40 1
  36   18   19 1
  37   18   21 1
  38   18   41 1
  39   19   20 1
  40   19   42 1
  41   19   43 1
  42   20   44 1
  43   20   45 1
  44   21   22 1
  45   21   25 2
  46   22   23 1
  47   23   24 2
  48   23   26 1
  49   24   25 1
  50   26   46 1
  51   26   47 1
  52   26   48 1

#	End of record

