#	Name: ASD01917463
#	Creating user name:	WinNT
#	Creation time:	15. 06. 2019 20:09

#	Modifying user name:	WinNT
#	Modification time:	15. 06. 2019 20:09

#	Program:	/corina/corina34_cracker 3.40 0067  02.08.2006

@<TRIPOS>MOLECULE
ASD01917463
  52   55    0    0    0
SMALL
NO_CHARGES


@<TRIPOS>ATOM
   1 C1            -0.0168     1.3896     0.0097 C.ar    
   2 C2             0.0021    -0.0041     0.0020 C.ar    
   3 C3             1.2210    -0.6608    -0.0132 C.ar    
   4 C4             2.3830     0.1001    -0.0202 C.ar    
   5 C5             2.2882     1.4856    -0.0119 C.ar    
   6 N6             1.1163     2.0811     0.0026 N.ar    
   7 C7            -1.3128     2.1054     0.0197 C.2     
   8 O8            -2.3535     1.4779     0.0212 O.2     
   9 N9            -1.3383     3.4529     0.0271 N.am    
  10 C10           -2.6206     4.1612     0.0371 C.3     
  11 C11           -3.4936     3.8179    -1.1827 C.3     
  12 C12           -4.8898     4.4093    -0.9790 C.3     
  13 C13           -4.7981     5.9158    -0.7283 C.3     
  14 C14           -3.8691     6.1688     0.4719 C.3     
  15 C15           -4.2626     5.1662     1.5813 C.3     
  16 C16           -3.4562     3.8621     1.3031 C.3     
  17 C17           -2.4520     5.7036     0.0442 C.3     
  18 C18           -5.0718     8.1014     1.3411 C.2     
  19 C19           -5.1115     9.5055     1.8024 C.ar    
  20 C20           -6.3149    10.0692     2.2298 C.ar    
  21 C21           -6.3450    11.3796     2.6595 C.ar    
  22 C22           -5.1857    12.1352     2.6670 C.ar    
  23 C23           -3.9899    11.5826     2.2447 C.ar    
  24 C24           -3.9449    10.2713     1.8179 C.ar    
  25 O25           -6.0885     7.4352     1.3334 O.2     
  26 N26           -3.9084     7.5601     0.9291 N.am    
  27 C27           -7.6432    11.9898     3.1212 C.3     
  28 F28            3.5927    -0.5013    -0.0346 F       
  29 H29           -0.9214    -0.5641     0.0082 H       
  30 H30            1.2671    -1.7398    -0.0191 H       
  31 H31            3.1888     2.0815    -0.0170 H       
  32 H32           -0.5076     3.9537     0.0259 H       
  33 H33           -3.0460     4.2409    -2.0821 H       
  34 H34           -3.5675     2.7353    -1.2851 H       
  35 H35           -5.4918     4.2278    -1.8693 H       
  36 H36           -5.3633     3.9293    -0.1225 H       
  37 H37           -4.3940     6.4086    -1.6126 H       
  38 H38           -5.7906     6.3103    -0.5108 H       
  39 H39           -3.9981     5.5674     2.5597 H       
  40 H40           -5.3318     4.9594     1.5372 H       
  41 H41           -4.1373     3.0322     1.1151 H       
  42 H42           -2.7980     3.6253     2.1391 H       
  43 H43           -1.6936     6.0105     0.7644 H       
  44 H44           -2.2152     6.0755    -0.9527 H       
  45 H45           -7.2205     9.4807     2.2238 H       
  46 H46           -5.2148    13.1610     3.0037 H       
  47 H47           -3.0886    12.1777     2.2530 H       
  48 H48           -3.0099     9.8398     1.4924 H       
  49 H49           -3.0970     8.0917     0.9352 H       
  50 H50           -7.7606    11.8267     4.1925 H       
  51 H51           -7.6350    13.0602     2.9154 H       
  52 H52           -8.4730    11.5240     2.5897 H       
@<TRIPOS>BOND
   1    1    2 ar
   2    1    6 ar
   3    1    7 1
   4    2    3 ar
   5    2   29 1
   6    3    4 ar
   7    3   30 1
   8    4    5 ar
   9    4   28 1
  10    5    6 ar
  11    5   31 1
  12    7    8 2
  13    7    9 am
  14    9   10 1
  15    9   32 1
  16   10   11 1
  17   10   16 1
  18   10   17 1
  19   11   12 1
  20   11   33 1
  21   11   34 1
  22   12   13 1
  23   12   35 1
  24   12   36 1
  25   13   14 1
  26   13   37 1
  27   13   38 1
  28   14   15 1
  29   14   17 1
  30   14   26 1
  31   15   16 1
  32   15   39 1
  33   15   40 1
  34   16   41 1
  35   16   42 1
  36   17   43 1
  37   17   44 1
  38   18   19 1
  39   18   25 2
  40   18   26 am
  41   19   20 ar
  42   19   24 ar
  43   20   21 ar
  44   20   45 1
  45   21   22 ar
  46   21   27 1
  47   22   23 ar
  48   22   46 1
  49   23   24 ar
  50   23   47 1
  51   24   48 1
  52   26   49 1
  53   27   50 1
  54   27   51 1
  55   27   52 1

#	End of record

