#	Name: ASD03910018
#	Creating user name:	WinNT
#	Creation time:	15. 06. 2019 20:47

#	Modifying user name:	WinNT
#	Modification time:	15. 06. 2019 20:47

#	Program:	/corina/corina34_cracker 3.40 0067  02.08.2006

@<TRIPOS>MOLECULE
ASD03910018
  52   54    0    0    0
SMALL
NO_CHARGES


@<TRIPOS>ATOM
   1 C1            -0.5815    -0.5558     0.4207 C.ar    
   2 C2             0.4419     0.0302     1.1445 C.ar    
   3 C3             0.2337     1.2351     1.7904 C.ar    
   4 C4            -0.9967     1.8576     1.7145 C.ar    
   5 C5            -2.0263     1.2727     0.9885 C.ar    
   6 C6            -1.8136     0.0656     0.3365 C.ar    
   7 N7            -3.2740     1.9012     0.9104 N.am    
   8 C8            -3.3501     3.2465     0.8805 C.2     
   9 C9            -4.6837     3.9216     0.6882 C.3     
  10 O10           -2.3454     3.9138     1.0084 O.2     
  11 C11           -4.4950     5.4167     0.6924 C.ar    
  12 C12           -4.2462     6.0843    -0.4926 C.ar    
  13 C13           -4.0729     7.4548    -0.4915 C.ar    
  14 C14           -4.1487     8.1614     0.7000 C.ar    
  15 C15           -4.3985     7.4893     1.8877 C.ar    
  16 C16           -4.5767     6.1194     1.8804 C.ar    
  17 O17           -3.9781     9.5096     0.7038 O.3     
  18 C18           -4.1891    10.1867     1.9444 C.3     
  19 C19           -5.5567     9.8685     2.4916 C.2     
  20 C20           -3.0924     9.7988     2.9671 C.3     
  21 C21           -1.9037    10.7010     2.5522 C.3     
  22 C22           -2.5642    12.0362     2.1510 C.3     
  23 C23           -4.0208    11.7095     1.7638 C.3     
  24 Cl24          -0.3160    -2.0687    -0.3882 Cl      
  25 C25            1.3507     1.8694     2.5785 C.3     
  26 C26           -0.9513    10.9079     3.7316 C.3     
  27 O27           -5.7192     9.7552     3.6835 O.2     
  28 O28           -6.5944     9.7109     1.6548 O.3     
  29 H29            1.4051    -0.4545     1.2055 H       
  30 H30           -1.1583     2.7984     2.2196 H       
  31 H31           -2.6121    -0.3914    -0.2291 H       
  32 H32           -4.0841     1.3687     0.8779 H       
  33 H33           -5.1135     3.6123    -0.2645 H       
  34 H34           -5.3548     3.6378     1.4988 H       
  35 H35           -4.1869     5.5337    -1.4198 H       
  36 H36           -3.8781     7.9757    -1.4173 H       
  37 H37           -4.4580     8.0371     2.8165 H       
  38 H38           -4.7712     5.5956     2.8047 H       
  39 H39           -3.4139    10.0266     3.9834 H       
  40 H40           -2.8297     8.7454     2.8709 H       
  41 H41           -1.3737    10.2676     1.7041 H       
  42 H42           -2.5484    12.7284     2.9929 H       
  43 H43           -2.0402    12.4710     1.2998 H       
  44 H44           -4.2019    11.9858     0.7251 H       
  45 H45           -4.7098    12.2434     2.4183 H       
  46 H46            1.9272     2.5264     1.9273 H       
  47 H47            0.9314     2.4494     3.4006 H       
  48 H48            2.0012     1.0912     2.9776 H       
  49 H49           -0.5656     9.9429     4.0606 H       
  50 H50           -0.1222    11.5441     3.4218 H       
  51 H51           -1.4875    11.3839     4.5525 H       
  52 H52           -7.4521     9.5077     2.0524 H       
@<TRIPOS>BOND
   1    1    2 ar
   2    1   24 1
   3    1    6 ar
   4    2    3 ar
   5    2   29 1
   6    3    4 ar
   7    3   25 1
   8    4    5 ar
   9    4   30 1
  10    5    6 ar
  11    5    7 1
  12    6   31 1
  13    7    8 am
  14    7   32 1
  15    8    9 1
  16    8   10 2
  17    9   11 1
  18    9   33 1
  19    9   34 1
  20   11   12 ar
  21   11   16 ar
  22   12   13 ar
  23   12   35 1
  24   13   14 ar
  25   13   36 1
  26   14   15 ar
  27   14   17 1
  28   15   16 ar
  29   15   37 1
  30   16   38 1
  31   17   18 1
  32   18   19 1
  33   18   20 1
  34   18   23 1
  35   19   27 2
  36   19   28 1
  37   20   21 1
  38   20   39 1
  39   20   40 1
  40   21   22 1
  41   21   26 1
  42   21   41 1
  43   22   23 1
  44   22   42 1
  45   22   43 1
  46   23   44 1
  47   23   45 1
  48   25   46 1
  49   25   47 1
  50   25   48 1
  51   26   49 1
  52   26   50 1
  53   26   51 1
  54   28   52 1

#	End of record

