#	Name: ASD02500422
#	Creating user name:	WinNT
#	Creation time:	15. 06. 2019 20:22

#	Modifying user name:	WinNT
#	Modification time:	15. 06. 2019 20:22

#	Program:	/corina/corina34_cracker 3.40 0067  02.08.2006

@<TRIPOS>MOLECULE
ASD02500422
  61   65    0    0    0
SMALL
NO_CHARGES


@<TRIPOS>ATOM
   1 N1            -3.5473     5.4453    -0.0208 N.ar    
   2 C2            -4.7192     6.0124    -0.1733 C.ar    
   3 C3            -5.7893     5.7228     0.6708 C.ar    
   4 C4            -5.6311     4.8265     1.6891 C.ar    
   5 C5            -4.3713     4.2191     1.8496 C.ar    
   6 C6            -4.1332     3.2887     2.8736 C.ar    
   7 C7            -2.9005     2.7234     2.9959 C.ar    
   8 C8            -1.8711     3.0564     2.1182 C.ar    
   9 C9            -2.0669     3.9544     1.1144 C.ar    
  10 C10           -3.3257     4.5594     0.9556 C.ar    
  11 S11           -0.7473     4.3578     0.0187 S.o2    
  12 O12           -0.6997     5.7765    -0.0469 O.2     
  13 O13            0.3605     3.5605     0.4141 O.2     
  14 N14           -1.1854     3.8343    -1.4900 N.am    
  15 C15           -1.4045     2.4806    -1.7198 C.ar    
  16 C16           -2.5371     2.0687    -2.4167 C.ar    
  17 C17           -2.7567     0.7297    -2.6457 C.ar    
  18 C18           -1.8411    -0.2174    -2.1776 C.ar    
  19 C19           -0.7048     0.1994    -1.4781 C.ar    
  20 C20           -0.4879     1.5403    -1.2573 C.ar    
  21 C21           -2.0738    -1.6536    -2.4210 C.2     
  22 O22           -1.1428    -2.3796    -2.7123 O.2     
  23 N23           -3.3182    -2.1612    -2.3204 N.am    
  24 C24           -3.5604    -3.6033    -2.4783 C.3     
  25 C25           -4.3809    -4.0932    -1.2804 C.3     
  26 N26           -5.5911    -3.2707    -1.1507 N.3     
  27 C27           -5.2549    -1.8687    -0.8688 C.3     
  28 C28           -4.4694    -1.2885    -2.0438 C.3     
  29 C29           -6.4890    -3.8136    -0.1226 C.3     
  30 C30           -7.5903    -2.8235     0.1563 C.ar    
  31 C31           -8.6758    -2.7376    -0.6972 C.ar    
  32 C32           -9.6873    -1.8281    -0.4399 C.ar    
  33 C33           -9.6115    -1.0061     0.6703 C.ar    
  34 C34           -8.5264    -1.0932     1.5218 C.ar    
  35 C35           -7.5187    -2.0052     1.2677 C.ar    
  36 Cl36         -11.0498    -1.7187    -1.5102 Cl      
  37 Cl37          -8.7691    -3.7694    -2.0901 Cl      
  38 H38           -4.8589     6.7232    -0.9743 H       
  39 H39           -6.7428     6.2070     0.5202 H       
  40 H40           -6.4496     4.5906     2.3530 H       
  41 H41           -4.9232     3.0231     3.5605 H       
  42 H42           -2.7182     2.0077     3.7839 H       
  43 H43           -0.9019     2.5947     2.2365 H       
  44 H44           -1.2892     4.4721    -2.2135 H       
  45 H45           -3.2442     2.8008    -2.7777 H       
  46 H46           -3.6357     0.4107    -3.1861 H       
  47 H47            0.0042    -0.5298    -1.1150 H       
  48 H48            0.3922     1.8633    -0.7211 H       
  49 H49           -4.1144    -3.7829    -3.3996 H       
  50 H50           -2.6083    -4.1330    -2.5111 H       
  51 H51           -4.6637    -5.1345    -1.4346 H       
  52 H52           -3.7845    -4.0085    -0.3719 H       
  53 H53           -6.1716    -1.2968    -0.7246 H       
  54 H54           -4.6464    -1.8150     0.0339 H       
  55 H55           -4.1180    -0.2885    -1.7896 H       
  56 H56           -5.1125    -1.2413    -2.9226 H       
  57 H57           -6.9225    -4.7492    -0.4761 H       
  58 H58           -5.9252    -3.9972     0.7920 H       
  59 H59          -10.4001    -0.2960     0.8713 H       
  60 H60           -8.4674    -0.4511     2.3882 H       
  61 H61           -6.6734    -2.0756     1.9362 H       
@<TRIPOS>BOND
   1    1    2 ar
   2    1   10 ar
   3    2    3 ar
   4    2   38 1
   5    3    4 ar
   6    3   39 1
   7    4    5 ar
   8    4   40 1
   9    5    6 ar
  10    5   10 ar
  11    6    7 ar
  12    6   41 1
  13    7    8 ar
  14    7   42 1
  15    8    9 ar
  16    8   43 1
  17    9   10 ar
  18    9   11 1
  19   11   12 2
  20   11   13 2
  21   11   14 am
  22   14   15 1
  23   14   44 1
  24   15   16 ar
  25   15   20 ar
  26   16   17 ar
  27   16   45 1
  28   17   18 ar
  29   17   46 1
  30   18   19 ar
  31   18   21 1
  32   19   20 ar
  33   19   47 1
  34   20   48 1
  35   21   22 2
  36   21   23 am
  37   23   24 1
  38   23   28 1
  39   24   25 1
  40   24   49 1
  41   24   50 1
  42   25   26 1
  43   25   51 1
  44   25   52 1
  45   26   27 1
  46   26   29 1
  47   27   28 1
  48   27   53 1
  49   27   54 1
  50   28   55 1
  51   28   56 1
  52   29   30 1
  53   29   57 1
  54   29   58 1
  55   30   31 ar
  56   30   35 ar
  57   31   32 ar
  58   31   37 1
  59   32   33 ar
  60   32   36 1
  61   33   34 ar
  62   33   59 1
  63   34   35 ar
  64   34   60 1
  65   35   61 1

#	End of record

