#	Name: ASD01900855
#	Creating user name:	WinNT
#	Creation time:	15. 06. 2019 19:52

#	Modifying user name:	WinNT
#	Modification time:	15. 06. 2019 19:52

#	Program:	/corina/corina34_cracker 3.40 0067  02.08.2006

@<TRIPOS>MOLECULE
ASD01900855
  60   63    0    0    0
SMALL
NO_CHARGES


@<TRIPOS>ATOM
   1 C1             0.0901     1.4906    -1.2705 C.ar    
   2 C2             0.0358     0.1148    -1.2674 C.ar    
   3 C3             1.0367    -0.6306    -0.6371 C.ar    
   4 C4             2.0948     0.0163    -0.0004 C.ar    
   5 C5             2.1499     1.3995     0.0014 C.ar    
   6 C6             1.1494     2.1463    -0.6431 C.ar    
   7 N7             3.1813     2.0797     0.6454 N.pl3   
   8 C8             3.5212     3.4263     0.1805 C.3     
   9 N9             2.3510     4.2231    -0.1803 N.am    
  10 C10            1.2339     3.6199    -0.6397 C.2     
  11 C11            2.3881     5.6166    -0.0488 C.ar    
  12 C12            1.9367     6.2164     1.1195 C.ar    
  13 C13            1.9735     7.5907     1.2484 C.ar    
  14 C14            2.4608     8.3723     0.2110 C.ar    
  15 C15            2.9119     7.7738    -0.9564 C.ar    
  16 C16            2.8814     6.3993    -1.0844 C.ar    
  17 O17            2.4959     9.7255     0.3384 O.3     
  18 O18            0.3025     4.2868    -1.0476 O.2     
  19 C19            0.9725    -2.1087    -0.6455 C.2     
  20 C20            3.0100    10.4682    -0.7690 C.3     
  21 O21            1.8413    -2.7573    -0.0984 O.2     
  22 O22           -0.0495    -2.7349    -1.2599 O.3     
  23 C23           -0.0477    -4.1866    -1.2283 C.3     
  24 C24            4.5050     4.1600     1.1026 C.3     
  25 N25            5.1736     4.6100    -0.1392 N.3     
  26 C26            4.6323     3.4467    -0.8779 C.3     
  27 C27            6.6344     4.5200    -0.0129 C.3     
  28 C28            7.2700     4.7470    -1.3603 C.ar    
  29 C29            7.6146     6.0261    -1.7553 C.ar    
  30 C30            8.1977     6.2343    -2.9913 C.ar    
  31 C31            8.4365     5.1633    -3.8321 C.ar    
  32 C32            8.0928     3.8841    -3.4367 C.ar    
  33 C33            7.5137     3.6754    -2.1989 C.ar    
  34 H34           -0.6840     2.0612    -1.7619 H       
  35 H35           -0.7847    -0.3913    -1.7542 H       
  36 H36            2.8672    -0.5584     0.4890 H       
  37 H37            3.6617     1.6721     1.3830 H       
  38 H38            1.5567     5.6081     1.9270 H       
  39 H39            1.6225     8.0573     2.1570 H       
  40 H40            3.2908     8.3830    -1.7638 H       
  41 H41            3.2371     5.9332    -1.9915 H       
  42 H42            2.9821    11.5328    -0.5367 H       
  43 H43            4.0390    10.1655    -0.9631 H       
  44 H44            2.4011    10.2728    -1.6516 H       
  45 H45           -0.9231    -4.5626    -1.7579 H       
  46 H46            0.8563    -4.5594    -1.7099 H       
  47 H47           -0.0750    -4.5275    -0.1933 H       
  48 H48            4.0510     4.9688     1.6752 H       
  49 H49            5.1146     3.4944     1.7136 H       
  50 H50            5.2796     2.5700    -0.8526 H       
  51 H51            4.2798     3.6880    -1.8807 H       
  52 H52            6.9859     5.2781     0.6870 H       
  53 H53            6.9070     3.5311     0.3555 H       
  54 H54            7.4280     6.8628    -1.0985 H       
  55 H55            8.4662     7.2337    -3.3002 H       
  56 H56            8.8914     5.3261    -4.7980 H       
  57 H57            8.2791     3.0474    -4.0937 H       
  58 H58            7.2451     2.6760    -1.8900 H       
  59 F59           13.8914    16.5328     7.1570 F       
  60 H60           13.8914    17.4928     7.1570 H       
@<TRIPOS>BOND
   1    1    2 ar
   2    1    6 ar
   3    1   34 1
   4    2    3 ar
   5    2   35 1
   6    3    4 ar
   7    3   19 1
   8    4    5 ar
   9    4   36 1
  10    5    7 1
  11    5    6 ar
  12    6   10 1
  13    7    8 1
  14    7   37 1
  15    8    9 1
  16    8   24 1
  17    8   26 1
  18    9   10 am
  19    9   11 1
  20   10   18 2
  21   11   12 ar
  22   11   16 ar
  23   12   13 ar
  24   12   38 1
  25   13   14 ar
  26   13   39 1
  27   14   15 ar
  28   14   17 1
  29   15   16 ar
  30   15   40 1
  31   16   41 1
  32   17   20 1
  33   19   21 2
  34   19   22 1
  35   20   42 1
  36   20   43 1
  37   20   44 1
  38   22   23 1
  39   23   45 1
  40   23   46 1
  41   23   47 1
  42   24   25 1
  43   24   48 1
  44   24   49 1
  45   25   27 1
  46   25   26 1
  47   26   50 1
  48   26   51 1
  49   27   28 1
  50   27   52 1
  51   27   53 1
  52   28   29 ar
  53   28   33 ar
  54   29   30 ar
  55   29   54 1
  56   30   31 ar
  57   30   55 1
  58   31   32 ar
  59   31   56 1
  60   32   33 ar
  61   32   57 1
  62   33   58 1
  63   59   60 1

#	End of record

