#	Name: ASD09116351
#	Creating user name:	WinNT
#	Creation time:	15. 06. 2019 21:21

#	Modifying user name:	WinNT
#	Modification time:	15. 06. 2019 21:21

#	Program:	/corina/corina34_cracker 3.40 0067  02.08.2006

@<TRIPOS>MOLECULE
ASD09116351
  74   80    0    0    0
SMALL
NO_CHARGES


@<TRIPOS>ATOM
   1 N1            -0.0591     1.5279    -0.5292 N.2     
   2 N2            -0.0823     0.2494    -1.1094 N.pl3   
   3 C3             1.1948     1.9116    -0.4985 C.2     
   4 N4             1.9588     0.9478    -1.0258 N.2     
   5 C5             1.2028    -0.0622    -1.3994 C.2     
   6 N6             1.6430    -1.2346    -1.9838 N.pl3   
   7 C7            -1.2078    -0.5433    -1.3414 C.ar    
   8 N8             1.6572     3.1282     0.0030 N.pl3   
   9 C9             3.0333     3.3745     0.0839 C.ar    
  10 C10            3.5138     4.6735    -0.0230 C.ar    
  11 C11            3.9167     2.3210     0.2766 C.ar    
  12 C12            5.2747     2.5631     0.3570 C.ar    
  13 C13            5.7566     3.8594     0.2447 C.ar    
  14 C14            4.8720     4.9161     0.0568 C.ar    
  15 N15            7.1339     4.1045     0.3268 N.3     
  16 F16            5.3406     6.1785    -0.0530 F       
  17 N17           -1.1865    -1.4602    -2.2972 N.ar    
  18 N18           -2.1984    -2.2091    -2.5576 N.ar    
  19 C19           -3.3307    -2.1056    -1.8805 C.ar    
  20 C20           -3.4384    -1.1796    -0.8390 C.ar    
  21 C21           -2.3546    -0.3735    -0.5616 C.ar    
  22 C22           -4.5158    -2.9294    -2.2140 C.ar    
  23 C23           -5.7518    -2.3005    -2.3717 C.ar    
  24 C24           -5.8380    -0.8033    -2.2549 C.3     
  25 C25           -5.7907    -0.3549    -0.7968 C.3     
  26 C26           -4.7035    -1.1076    -0.0344 C.3     
  27 C27           -4.4121    -4.3077    -2.3657 C.ar    
  28 C28           -5.5406    -5.0505    -2.6541 C.ar    
  29 C29           -6.7672    -4.4260    -2.7891 C.ar    
  30 C30           -6.8731    -3.0532    -2.6471 C.ar    
  31 C31            7.6685     3.6652     1.6148 C.3     
  32 C32            9.1532     3.9966     1.7672 C.3     
  33 N33            9.9417     3.5117     0.5944 N.3     
  34 C34            9.3133     3.8609    -0.6884 C.3     
  35 C35            7.8593     3.4106    -0.7528 C.3     
  36 C36            9.6429     3.1384     2.9559 C.3     
  37 C37           10.6012     3.8913     3.8492 C.3     
  38 C38           11.6165     4.7264     3.0488 C.3     
  39 C39           12.0898     3.9080     1.8554 C.3     
  40 C40           11.2387     4.1743     0.6340 C.3     
  41 H41            2.5890    -1.3669    -2.1527 H       
  42 H42            1.0060    -1.9252    -2.2250 H       
  43 H43            1.0256     3.8037     0.2958 H       
  44 H44            2.8262     5.4935    -0.1689 H       
  45 H45            3.5423     1.3118     0.3641 H       
  46 H46            5.9612     1.7431     0.5076 H       
  47 H47           -2.3934     0.3667     0.2239 H       
  48 H48           -5.0029    -0.3550    -2.7931 H       
  49 H49           -6.7723    -0.4640    -2.7022 H       
  50 H50           -5.5824     0.7143    -0.7568 H       
  51 H51           -6.7564    -0.5493    -0.3301 H       
  52 H52           -5.0503    -2.1186     0.1795 H       
  53 H53           -4.5022    -0.5923     0.9048 H       
  54 H54           -3.4543    -4.7950    -2.2584 H       
  55 H55           -5.4647    -6.1211    -2.7748 H       
  56 H56           -7.6474    -5.0128    -3.0064 H       
  57 H57           -7.8342    -2.5719    -2.7525 H       
  58 H58            7.1128     4.1554     2.4142 H       
  59 H59            7.5358     2.5869     1.7037 H       
  60 H60            9.3061     5.0628     1.9343 H       
  61 H61            9.3557     4.9419    -0.8213 H       
  62 H62            9.8681     3.3839    -1.4964 H       
  63 H63            7.7987     2.3322    -0.6061 H       
  64 H64            7.4310     3.6785    -1.7186 H       
  65 H65            8.7808     2.8266     3.5456 H       
  66 H66           10.1437     2.2511     2.5687 H       
  67 H67           10.0307     4.5561     4.4978 H       
  68 H68           11.1425     3.1761     4.4684 H       
  69 H69           11.1410     5.6424     2.6984 H       
  70 H70           12.4676     4.9734     3.6833 H       
  71 H71           13.1248     4.1674     1.6327 H       
  72 H72           12.0344     2.8483     2.1048 H       
  73 H73           11.8034     3.8670    -0.2462 H       
  74 H74           11.0724     5.2493     0.5646 H       
@<TRIPOS>BOND
   1    1    2 1
   2    1    3 2
   3    2    7 1
   4    2    5 1
   5    3    4 1
   6    3    8 1
   7    4    5 2
   8    5    6 1
   9    6   41 1
  10    6   42 1
  11    7   17 ar
  12    7   21 ar
  13    8    9 1
  14    8   43 1
  15    9   10 ar
  16    9   11 ar
  17   10   14 ar
  18   10   44 1
  19   11   12 ar
  20   11   45 1
  21   12   13 ar
  22   12   46 1
  23   13   14 ar
  24   13   15 1
  25   14   16 1
  26   15   31 1
  27   15   35 1
  28   17   18 ar
  29   18   19 ar
  30   19   20 ar
  31   19   22 1
  32   20   21 ar
  33   20   26 1
  34   21   47 1
  35   22   23 ar
  36   22   27 ar
  37   23   24 1
  38   23   30 ar
  39   24   25 1
  40   24   48 1
  41   24   49 1
  42   25   26 1
  43   25   50 1
  44   25   51 1
  45   26   52 1
  46   26   53 1
  47   27   28 ar
  48   27   54 1
  49   28   29 ar
  50   28   55 1
  51   29   30 ar
  52   29   56 1
  53   30   57 1
  54   31   32 1
  55   31   58 1
  56   31   59 1
  57   32   33 1
  58   32   36 1
  59   32   60 1
  60   33   34 1
  61   33   40 1
  62   34   35 1
  63   34   61 1
  64   34   62 1
  65   35   63 1
  66   35   64 1
  67   36   37 1
  68   36   65 1
  69   36   66 1
  70   37   38 1
  71   37   67 1
  72   37   68 1
  73   38   39 1
  74   38   69 1
  75   38   70 1
  76   39   40 1
  77   39   71 1
  78   39   72 1
  79   40   73 1
  80   40   74 1

#	End of record

