#	Name: ASD01140393
#	Creating user name:	WinNT
#	Creation time:	15. 06. 2019 19:00

#	Modifying user name:	WinNT
#	Modification time:	15. 06. 2019 19:00

#	Program:	/corina/corina34_cracker 3.40 0067  02.08.2006

@<TRIPOS>MOLECULE
ASD01140393
  31   33    0    0    0
SMALL
NO_CHARGES


@<TRIPOS>ATOM
   1 S1            -0.0211     1.7054     0.0114 S.3     
   2 C2             0.0021    -0.0041     0.0020 C.2     
   3 N3             1.2235    -0.4333    -0.0120 N.2     
   4 C4             2.1786     0.4798    -0.0162 C.2     
   5 C5             1.7402     1.7401    -0.0052 C.2     
   6 O6            -1.0987    -0.7953     0.0087 O.3     
   7 C7            -1.8680    -4.4257     0.5834 C.3     
   8 C8            -2.0344    -2.9046     0.7288 C.3     
   9 C9            -0.8824    -2.2078    -0.0010 C.3     
  10 C10           -0.8131    -2.7026    -1.4486 C.3     
  11 C11           -0.7294    -4.2374    -1.4464 C.3     
  12 C12            0.3526    -4.6505    -0.4223 C.3     
  13 C13           -0.3998    -4.7750     0.9190 C.3     
  14 N14           -1.9987    -4.7472    -0.8627 N.3     
  15 C15           -2.1293    -6.1955    -1.0703 C.3     
  16 Br16           2.8206     3.2921    -0.0078 Br      
  17 H17            3.2285     0.2267    -0.0272 H       
  18 H18           -2.5749    -4.9771     1.2033 H       
  19 H19           -2.9836    -2.5975     0.2897 H       
  20 H20           -2.0142    -2.6344     1.7846 H       
  21 H21            0.0565    -2.4343     0.5041 H       
  22 H22           -1.7074    -2.3865    -1.9857 H       
  23 H23            0.0713    -2.2894    -1.9337 H       
  24 H24           -0.5312    -4.6392    -2.4401 H       
  25 H25            0.7925    -5.6082    -0.7007 H       
  26 H26            1.1238    -3.8832    -0.3548 H       
  27 H27            0.0015    -4.0689     1.6459 H       
  28 H28           -0.3298    -5.7938     1.3000 H       
  29 H29           -3.0156    -6.5587    -0.5501 H       
  30 H30           -2.2233    -6.4028    -2.1363 H       
  31 H31           -1.2459    -6.6998    -0.6787 H       
@<TRIPOS>BOND
   1    1    2 1
   2    1    5 1
   3    2    3 2
   4    2    6 1
   5    3    4 1
   6    4    5 2
   7    4   17 1
   8    5   16 1
   9    6    9 1
  10    7    8 1
  11    7   13 1
  12    7   14 1
  13    7   18 1
  14    8    9 1
  15    8   19 1
  16    8   20 1
  17    9   10 1
  18    9   21 1
  19   10   11 1
  20   10   22 1
  21   10   23 1
  22   11   12 1
  23   11   14 1
  24   11   24 1
  25   12   13 1
  26   12   25 1
  27   12   26 1
  28   13   27 1
  29   13   28 1
  30   14   15 1
  31   15   29 1
  32   15   30 1
  33   15   31 1

#	End of record

