#	Name: ASD01230071
#	Creating user name:	WinNT
#	Creation time:	15. 06. 2019 19:11

#	Modifying user name:	WinNT
#	Modification time:	15. 06. 2019 19:11

#	Program:	/corina/corina34_cracker 3.40 0067  02.08.2006

@<TRIPOS>MOLECULE
ASD01230071
  41   44    0    0    0
SMALL
NO_CHARGES


@<TRIPOS>ATOM
   1 C1            -0.0167     1.3804     0.0096 C.ar    
   2 C2             0.0021    -0.0041     0.0020 C.ar    
   3 C3             1.2077    -0.6847    -0.0131 C.ar    
   4 C4             2.3972     0.0143    -0.0207 C.ar    
   5 C5             2.3838     1.4082    -0.0131 C.ar    
   6 C6             1.1672     2.0887     0.0021 C.ar    
   7 Cl7           -1.4911    -0.8895     0.0121 Cl      
   8 C8             3.6592     2.1645    -0.0207 C.ar    
   9 N9             4.8256     1.5229    -0.0348 N.ar    
  10 C10            5.9638     2.1950    -0.0416 C.ar    
  11 N11            5.9912     3.5184    -0.0347 N.ar    
  12 C12            4.8711     4.2233    -0.0206 C.ar    
  13 C13            3.6556     3.5619    -0.0190 C.ar    
  14 N14            7.1676     1.4912    -0.0559 N.pl3   
  15 C15            7.3117     0.1382    -0.0645 C.2     
  16 N16            8.5826    -0.1496    -0.0771 N.2     
  17 C17            9.2994     0.9931    -0.0772 C.2     
  18 C18            8.4272     2.0335    -0.0699 C.2     
  19 C19           10.7797     1.0951    -0.0888 C.ar    
  20 C20           11.5700    -0.0594    -0.1016 C.ar    
  21 C21           11.4012     2.3406    -0.0928 C.ar    
  22 N22           12.7158     2.4363    -0.1040 N.ar    
  23 C23           13.4926     1.3637    -0.1113 C.ar    
  24 C24           12.9438     0.0849    -0.1126 C.ar    
  25 N25           14.8744     1.5173    -0.1235 N.pl3   
  26 C26            4.9189     5.7295    -0.0129 C.3     
  27 F27            6.2459     6.1547    -0.1376 F       
  28 F28            4.1677     6.2255    -1.0838 F       
  29 F29            4.3874     6.2068     1.1900 F       
  30 H30           -0.9598     1.9067     0.0169 H       
  31 H31            1.2171    -1.7647    -0.0187 H       
  32 H32            3.3371    -0.5175    -0.0322 H       
  33 H33            1.1516     3.1686     0.0077 H       
  34 H34            2.7266     4.1125    -0.0080 H       
  35 H35            6.5048    -0.5797    -0.0611 H       
  36 H36            8.6769     3.0842    -0.0680 H       
  37 H37           11.1169    -1.0398    -0.1026 H       
  38 H38           10.8000     3.2378    -0.0871 H       
  39 H39           13.5844    -0.7846    -0.1183 H       
  40 H40           15.2636     2.4058    -0.1266 H       
  41 H41           15.4492     0.7360    -0.1289 H       
@<TRIPOS>BOND
   1    1    2 ar
   2    1    6 ar
   3    1   30 1
   4    2    3 ar
   5    2    7 1
   6    3    4 ar
   7    3   31 1
   8    4    5 ar
   9    4   32 1
  10    5    6 ar
  11    5    8 1
  12    6   33 1
  13    8    9 ar
  14    8   13 ar
  15    9   10 ar
  16   10   11 ar
  17   10   14 1
  18   11   12 ar
  19   12   26 1
  20   12   13 ar
  21   13   34 1
  22   14   15 1
  23   14   18 1
  24   15   16 2
  25   15   35 1
  26   16   17 1
  27   17   18 2
  28   17   19 1
  29   18   36 1
  30   19   20 ar
  31   19   21 ar
  32   20   24 ar
  33   20   37 1
  34   21   22 ar
  35   21   38 1
  36   22   23 ar
  37   23   24 ar
  38   23   25 1
  39   24   39 1
  40   25   40 1
  41   25   41 1
  42   26   27 1
  43   26   28 1
  44   26   29 1

#	End of record

