#	Name: ASD02030368
#	Creating user name:	WinNT
#	Creation time:	15. 06. 2019 20:15

#	Modifying user name:	WinNT
#	Modification time:	15. 06. 2019 20:15

#	Program:	/corina/corina34_cracker 3.40 0067  02.08.2006

@<TRIPOS>MOLECULE
ASD02030368
  40   42    0    0    0
SMALL
NO_CHARGES


@<TRIPOS>ATOM
   1 C1            -0.0144     1.2114     0.0087 C.2     
   2 O2             0.0869     0.0002    -0.0135 O.2     
   3 N3             3.2314     2.6441    -0.0181 N.pl3   
   4 N4             2.4408     1.6288     0.0480 N.2     
   5 C5             1.1987     2.0555    -0.0286 C.2     
   6 N6             1.2270     3.3956    -0.1472 N.2     
   7 C7             2.4839     3.7602    -0.1408 C.2     
   8 C8             4.6311     2.5973     0.0347 C.ar    
   9 C9             5.2819     1.3779     0.1689 C.ar    
  10 C10            7.3944     2.5050     0.1394 C.ar    
  11 C11            5.3700     3.7694    -0.0528 C.ar    
  12 C12            6.6612     1.3351     0.2207 C.ar    
  13 C13            6.7495     3.7200    -0.0004 C.ar    
  14 C14            7.3683     0.0123     0.3664 C.3     
  15 N15           -1.2330     1.7848     0.0617 N.am    
  16 C16           -2.4547     0.9726    -0.0435 C.3     
  17 C17           -3.3776     1.3277     1.1271 C.3     
  18 N18           -3.5972     2.7800     1.1502 N.3     
  19 C19           -2.3417     3.5052     1.3863 C.3     
  20 C20           -1.3764     3.2386     0.2324 C.3     
  21 C21           -4.7185     0.6112     0.9556 C.3     
  22 H22            2.8553     4.7713    -0.2195 H       
  23 H23            4.7099     0.4641     0.2332 H       
  24 H24            8.4730     2.4690     0.1805 H       
  25 H25            4.8669     4.7187    -0.1621 H       
  26 H26            7.3247     4.6319    -0.0636 H       
  27 H27            7.5742    -0.4003    -0.6213 H       
  28 H28            8.3064     0.1587     0.9018 H       
  29 H29            6.7357    -0.6784     0.9240 H       
  30 H30           -2.9583     1.1892    -0.9856 H       
  31 H31           -2.1961    -0.0853     0.0019 H       
  32 H32           -2.9147     1.0149     2.0630 H       
  33 H33           -4.0407     3.0922     0.2994 H       
  34 H34           -2.5457     4.5739     1.4520 H       
  35 H35           -1.8932     3.1620     2.3186 H       
  36 H36           -0.4053     3.6781     0.4602 H       
  37 H37           -1.7744     3.6772    -0.6827 H       
  38 H38           -4.5548    -0.4662     0.9361 H       
  39 H39           -5.3747     0.8640     1.7884 H       
  40 H40           -5.1813     0.9254     0.0200 H       
@<TRIPOS>BOND
   1    1    2 2
   2    1    5 1
   3    1   15 am
   4    3    4 1
   5    3    7 1
   6    3    8 1
   7    4    5 2
   8    5    6 1
   9    6    7 2
  10    7   22 1
  11    8    9 ar
  12    8   11 ar
  13    9   12 ar
  14    9   23 1
  15   10   12 ar
  16   10   13 ar
  17   10   24 1
  18   11   13 ar
  19   11   25 1
  20   12   14 1
  21   13   26 1
  22   14   27 1
  23   14   28 1
  24   14   29 1
  25   15   16 1
  26   15   20 1
  27   16   17 1
  28   16   30 1
  29   16   31 1
  30   17   18 1
  31   17   21 1
  32   17   32 1
  33   18   19 1
  34   18   33 1
  35   19   20 1
  36   19   34 1
  37   19   35 1
  38   20   36 1
  39   20   37 1
  40   21   38 1
  41   21   39 1
  42   21   40 1

#	End of record

