#	Name: ASD03730197
#	Creating user name:	WinNT
#	Creation time:	15. 06. 2019 20:44

#	Modifying user name:	WinNT
#	Modification time:	15. 06. 2019 20:44

#	Program:	/corina/corina34_cracker 3.40 0067  02.08.2006

@<TRIPOS>MOLECULE
ASD03730197
  36   39    0    0    0
SMALL
NO_CHARGES


@<TRIPOS>ATOM
   1 O1            -0.0175     1.4360     0.0099 O.3     
   2 C2             0.0021    -0.0041     0.0020 C.3     
   3 C3             1.3447    -0.3158    -0.6735 C.3     
   4 C4             2.1585     0.9227    -0.4106 C.ar    
   5 C5             1.2627     1.9059     0.0002 C.ar    
   6 C6             1.7498     3.1674     0.3287 C.ar    
   7 C7             3.0989     3.4403     0.2384 C.ar    
   8 C8             3.9834     2.4579    -0.1809 C.ar    
   9 C9             3.5053     1.1962    -0.5052 C.ar    
  10 N10            2.1535    -2.4043    -1.1302 N.am    
  11 C11            1.9835    -1.5490    -0.1023 C.2     
  12 C12            1.1836    -0.5935    -2.1385 C.ar    
  13 C13            0.6720     0.1289    -3.1934 C.ar    
  14 C14            0.6612    -0.4150    -4.4654 C.ar    
  15 C15            1.1658    -1.6855    -4.6751 C.ar    
  16 C16            1.6799    -2.4129    -3.6221 C.ar    
  17 C17            1.6946    -1.8734    -2.3381 C.ar    
  18 O18            2.2875    -1.7381     1.0565 O.2     
  19 C19            2.7502    -3.7355    -0.9962 C.3     
  20 O20            5.3126     2.7296    -0.2737 O.3     
  21 C21            5.7308     4.0503     0.0767 C.3     
  22 H22           -0.0201    -0.3969     1.0185 H       
  23 H23           -0.8272    -0.3991    -0.5848 H       
  24 H24            1.0673     3.9377     0.6560 H       
  25 H25            3.4676     4.4225     0.4948 H       
  26 H26            4.1900     0.4277    -0.8322 H       
  27 H27            0.2785     1.1209    -3.0274 H       
  28 H28            0.2594     0.1512    -5.2927 H       
  29 H29            1.1568    -2.1102    -5.6681 H       
  30 H30            2.0717    -3.4046    -3.7936 H       
  31 H31            3.0231    -3.9082     0.0448 H       
  32 H32            2.0301    -4.4900    -1.3130 H       
  33 H33            3.6413    -3.7989    -1.6208 H       
  34 H34            6.8112     4.1327    -0.0413 H       
  35 H35            5.2381     4.7723    -0.5746 H       
  36 H36            5.4620     4.2535     1.1133 H       
@<TRIPOS>BOND
   1    1    2 1
   2    1    5 1
   3    2    3 1
   4    2   22 1
   5    2   23 1
   6    3    4 1
   7    3   11 1
   8    3   12 1
   9    4    5 ar
  10    4    9 ar
  11    5    6 ar
  12    6    7 ar
  13    6   24 1
  14    7    8 ar
  15    7   25 1
  16    8    9 ar
  17    8   20 1
  18    9   26 1
  19   10   11 am
  20   10   17 1
  21   10   19 1
  22   11   18 2
  23   12   13 ar
  24   12   17 ar
  25   13   14 ar
  26   13   27 1
  27   14   15 ar
  28   14   28 1
  29   15   16 ar
  30   15   29 1
  31   16   17 ar
  32   16   30 1
  33   19   31 1
  34   19   32 1
  35   19   33 1
  36   20   21 1
  37   21   34 1
  38   21   35 1
  39   21   36 1

#	End of record

