#	Name: ASD08710119
#	Creating user name:	WinNT
#	Creation time:	15. 06. 2019 21:19

#	Modifying user name:	WinNT
#	Modification time:	15. 06. 2019 21:19

#	Program:	/corina/corina34_cracker 3.40 0067  02.08.2006

@<TRIPOS>MOLECULE
ASD08710119
  47   48    0    0    0
SMALL
NO_CHARGES


@<TRIPOS>ATOM
   1 N1            -0.2243     1.0133     0.0606 N.am    
   2 C2            -0.0329    -0.4434     0.0257 C.3     
   3 C3             0.8335    -0.7949    -1.1900 C.3     
   4 N4             2.0178     0.0753    -1.1900 N.am    
   5 C5             1.8264     1.5320    -1.1552 C.3     
   6 C6             0.9600     1.8835     0.0606 C.3     
   7 C7            -1.4639     1.5418     0.0865 C.2     
   8 O8            -2.4356     0.8123     0.0811 O.2     
   9 O9            -1.6254     2.8781     0.1183 O.3     
  10 S10            3.5407    -0.5740    -1.2281 S.o2    
  11 O11            4.4304     0.4673    -0.8494 O.2     
  12 O12            3.4640    -1.8176    -0.5448 O.2     
  13 C13            3.9046    -0.9521    -2.9102 C.ar    
  14 C14            4.0604     0.0688    -3.8307 C.ar    
  15 C15            4.3459    -0.2286    -5.1509 C.ar    
  16 C16            4.4756    -1.5458    -5.5500 C.ar    
  17 C17            4.3194    -2.5654    -4.6300 C.ar    
  18 C18            4.0400    -2.2684    -3.3089 C.ar    
  19 C19            4.4599    -4.0012    -5.0658 C.3     
  20 F20            4.7464    -4.0472    -6.4344 F       
  21 F21            5.4995    -4.6059    -4.3512 F       
  22 F22            3.2642    -4.6833    -4.8165 F       
  23 Br23           3.8823     1.8703    -3.2842 Br      
  24 C24           -2.9888     3.3768     0.1449 C.3     
  25 C25           -3.7015     2.8468     1.3907 C.3     
  26 C26           -2.9718     4.9063     0.1791 C.3     
  27 C27           -3.7297     2.9028    -1.1070 C.3     
  28 H28            0.4675    -0.7686     0.9379 H       
  29 H29           -1.0007    -0.9376    -0.0595 H       
  30 H30            1.1455    -1.8374    -1.1277 H       
  31 H31            0.2623    -0.6355    -2.1046 H       
  32 H32            2.7941     2.0262    -1.0699 H       
  33 H33            1.3259     1.8571    -2.0673 H       
  34 H34            0.6479     2.9260    -0.0017 H       
  35 H35            1.5311     1.7240     0.9752 H       
  36 H36            4.4673     0.5681    -5.8699 H       
  37 H37            4.6986    -1.7781    -6.5809 H       
  38 H38            3.9228    -3.0653    -2.5894 H       
  39 H39           -3.1737     3.1844     2.2826 H       
  40 H40           -4.7250     3.2212     1.4107 H       
  41 H41           -3.7137     1.7571     1.3664 H       
  42 H42           -2.4640     5.2839    -0.7085 H       
  43 H43           -3.9953     5.2807     0.1990 H       
  44 H44           -2.4439     5.2440     1.0709 H       
  45 H45           -3.7419     1.8132    -1.1313 H       
  46 H46           -4.7532     3.2772    -1.0870 H       
  47 H47           -3.2220     3.2804    -1.9945 H       
@<TRIPOS>BOND
   1    1    2 1
   2    1    6 1
   3    1    7 am
   4    2    3 1
   5    2   28 1
   6    2   29 1
   7    3    4 1
   8    3   30 1
   9    3   31 1
  10    4    5 1
  11    4   10 am
  12    5    6 1
  13    5   32 1
  14    5   33 1
  15    6   34 1
  16    6   35 1
  17    7    8 2
  18    7    9 1
  19    9   24 1
  20   10   11 2
  21   10   12 2
  22   10   13 1
  23   13   14 ar
  24   13   18 ar
  25   14   15 ar
  26   14   23 1
  27   15   16 ar
  28   15   36 1
  29   16   17 ar
  30   16   37 1
  31   17   18 ar
  32   17   19 1
  33   18   38 1
  34   19   20 1
  35   19   21 1
  36   19   22 1
  37   24   25 1
  38   24   26 1
  39   24   27 1
  40   25   39 1
  41   25   40 1
  42   25   41 1
  43   26   42 1
  44   26   43 1
  45   26   44 1
  46   27   45 1
  47   27   46 1
  48   27   47 1

#	End of record

