#	Name: ASD00480002
#	Creating user name:	WinNT
#	Creation time:	15. 06. 2019 18:36

#	Modifying user name:	WinNT
#	Modification time:	15. 06. 2019 18:36

#	Program:	/corina/corina34_cracker 3.40 0067  02.08.2006

@<TRIPOS>MOLECULE
ASD00480002
  53   57    0    0    0
SMALL
NO_CHARGES


@<TRIPOS>ATOM
   1 C1            -0.0187     1.5258     0.0104 C.3     
   2 C2             0.0021    -0.0041     0.0020 C.3     
   3 N3             0.6878    -0.4765    -1.2033 N.pl3   
   4 C4             2.0670    -0.5899    -1.2152 C.ar    
   5 N5             2.7844    -0.2745    -0.1421 N.ar    
   6 C6             4.1010    -0.3796    -0.1445 C.ar    
   7 N7             4.7745    -0.7970    -1.1954 N.ar    
   8 C8             4.1424    -1.1352    -2.3147 C.ar    
   9 C9             2.7410    -1.0469    -2.3607 C.ar    
  10 N10            2.3564    -1.4439    -3.5975 N.2     
  11 C11            3.4070    -1.7625    -4.2964 C.2     
  12 N12            4.5333    -1.5934    -3.5474 N.pl3   
  13 C13            5.9094    -1.8459    -3.9820 C.3     
  14 O14            5.9927    -1.7679    -5.4262 O.3     
  15 C15            5.8014    -3.1019    -5.8902 C.3     
  16 C16            6.6793    -3.9377    -4.9196 C.3     
  17 C17            6.3357    -3.2794    -3.5771 C.3     
  18 O18            7.4828    -3.2426    -2.7256 O.3     
  19 O19            6.2377    -5.2924    -5.0493 O.3     
  20 P20            6.3003    -5.9414    -6.5453 P.3     
  21 O21            7.6758    -6.4015    -6.8397 O.2     
  22 O22            5.8729    -4.7699    -7.5846 O.3     
  23 C23            6.2275    -3.3920    -7.3157 C.3     
  24 O24            5.2729    -7.1764    -6.6526 O.3     
  25 C25           -1.4333    -0.5336     0.0129 C.3     
  26 C26           -1.4136    -2.0361     0.1285 C.ar    
  27 C27           -1.4292    -2.6337     1.3749 C.ar    
  28 C28           -1.4111    -4.0118     1.4809 C.ar    
  29 C29           -1.3777    -4.7924     0.3405 C.ar    
  30 C30           -1.3629    -4.1948    -0.9059 C.ar    
  31 C31           -1.3855    -2.8167    -1.0120 C.ar    
  32 H32            1.0039     1.9031     0.0027 H       
  33 H33           -0.5459     1.8868    -0.8726 H       
  34 H34           -0.5289     1.8773     0.9072 H       
  35 H35            0.5293    -0.3651     0.8851 H       
  36 H36            0.1751    -0.7099    -1.9930 H       
  37 H37            4.6453    -0.1126     0.7493 H       
  38 H38            3.3889    -2.1127    -5.3179 H       
  39 H39            6.5807    -1.1149    -3.5315 H       
  40 H40            4.7554    -3.3836    -5.7693 H       
  41 H41            7.7394    -3.8337    -5.1509 H       
  42 H42            5.5120    -3.8030    -3.0918 H       
  43 H43            7.3197    -2.8359    -1.8635 H       
  44 H44            5.7013    -2.7306    -8.0040 H       
  45 H45            7.3043    -3.2575    -7.4177 H       
  46 H46            5.2628    -7.6055    -7.5190 H       
  47 H47           -1.9701    -0.1109     0.8621 H       
  48 H48           -1.9334    -0.2470    -0.9122 H       
  49 H49           -1.4553    -2.0238     2.2658 H       
  50 H50           -1.4226    -4.4787     2.4547 H       
  51 H51           -1.3628    -5.8691     0.4233 H       
  52 H52           -1.3365    -4.8047    -1.7969 H       
  53 H53           -1.3740    -2.3498    -1.9858 H       
@<TRIPOS>BOND
   1    1    2 1
   2    1   32 1
   3    1   33 1
   4    1   34 1
   5    2    3 1
   6    2   25 1
   7    2   35 1
   8    3    4 1
   9    3   36 1
  10    4    5 ar
  11    4    9 ar
  12    5    6 ar
  13    6    7 ar
  14    6   37 1
  15    7    8 ar
  16    8    9 ar
  17    8   12 1
  18    9   10 1
  19   10   11 2
  20   11   12 1
  21   11   38 1
  22   12   13 1
  23   13   14 1
  24   13   17 1
  25   13   39 1
  26   14   15 1
  27   15   16 1
  28   15   23 1
  29   15   40 1
  30   16   17 1
  31   16   19 1
  32   16   41 1
  33   17   18 1
  34   17   42 1
  35   18   43 1
  36   19   20 1
  37   20   21 2
  38   20   22 1
  39   20   24 1
  40   22   23 1
  41   23   44 1
  42   23   45 1
  43   24   46 1
  44   25   26 1
  45   25   47 1
  46   25   48 1
  47   26   27 ar
  48   26   31 ar
  49   27   28 ar
  50   27   49 1
  51   28   29 ar
  52   28   50 1
  53   29   30 ar
  54   29   51 1
  55   30   31 ar
  56   30   52 1
  57   31   53 1

#	End of record

