#	Name: ASD03240554
#	Creating user name:	WinNT
#	Creation time:	15. 06. 2019 20:35

#	Modifying user name:	WinNT
#	Modification time:	15. 06. 2019 20:35

#	Program:	/corina/corina34_cracker 3.40 0067  02.08.2006

@<TRIPOS>MOLECULE
ASD03240554
  68   74    0    0    0
SMALL
NO_CHARGES


@<TRIPOS>ATOM
   1 C1            -0.0166     1.3754     0.0096 C.ar    
   2 C2             0.0021    -0.0041     0.0020 C.ar    
   3 N3             1.1422    -0.6683    -0.0054 N.ar    
   4 C4             2.3145    -0.0481    -0.0053 C.ar    
   5 C5             2.3702     1.3442    -0.0124 C.ar    
   6 C6             1.1861     2.0698     0.0018 C.ar    
   7 N7             3.4820    -0.8058     0.0229 N.pl3   
   8 C8             4.3587    -0.7194     1.1010 C.ar    
   9 C9             4.9950     0.4889     1.4049 C.ar    
  10 C10            4.7642     1.6832     0.5628 C.2     
  11 N11            3.5939     2.0276    -0.0512 N.pl3   
  12 C12            4.6040    -1.8390     1.8847 C.ar    
  13 C13            5.4631    -1.7535     2.9637 C.ar    
  14 C14            6.0842    -0.5556     3.2723 C.ar    
  15 C15            5.8555     0.5652     2.4998 C.ar    
  16 N16            5.6759     2.5935     0.2859 N.2     
  17 C17            5.1461     3.5393    -0.5050 C.2     
  18 C18            3.8227     3.2036    -0.7368 C.2     
  19 C19            2.8505     3.9542    -1.5549 C.ar    
  20 C20            2.7521     5.3422    -1.4304 C.ar    
  21 C21            2.0283     3.2807    -2.4616 C.ar    
  22 C22            1.1223     3.9887    -3.2232 C.ar    
  23 C23            1.0269     5.3629    -3.0912 C.ar    
  24 C24            1.8415     6.0372    -2.1986 C.ar    
  25 C25            5.8507     4.7296    -1.0355 C.ar    
  26 C26            0.0351     6.1296    -3.9277 C.3     
  27 N27           -1.0439     5.2822    -4.4528 N.3     
  28 C28           -0.4655     7.4213    -3.2601 C.3     
  29 C29           -0.3768     8.0793    -4.6472 C.3     
  30 C30            0.6897     7.0244    -4.9935 C.3     
  31 C31            6.8201     5.3692    -0.2643 C.ar    
  32 C32            7.4769     6.4819    -0.7636 C.ar    
  33 C33            7.1707     6.9603    -2.0294 C.ar    
  34 C34            6.2066     6.3264    -2.7998 C.ar    
  35 C35            5.5501     5.2094    -2.3095 C.ar    
  36 O36            8.4220     7.1061    -0.0125 O.3     
  37 C37            9.0595     8.2475    -0.5894 C.3     
  38 O38            5.9096     6.7987    -4.0390 O.3     
  39 C39            6.6286     7.9507    -4.4837 C.3     
  40 H40           -0.9556     1.9091     0.0170 H       
  41 H41           -0.9306    -0.5486     0.0025 H       
  42 H42            1.2002     3.1497     0.0057 H       
  43 H43            3.6866    -1.4002    -0.7158 H       
  44 H44            4.1228    -2.7772     1.6510 H       
  45 H45            5.6508    -2.6270     3.5704 H       
  46 H46            6.7500    -0.4976     4.1208 H       
  47 H47            6.3415     1.4986     2.7425 H       
  48 H48            3.3872     5.8696    -0.7342 H       
  49 H49            2.1022     2.2083    -2.5661 H       
  50 H50            0.4860     3.4695    -3.9246 H       
  51 H51            1.7614     7.1097    -2.1005 H       
  52 H52           -0.6711     4.4598    -4.9031 H       
  53 H53           -1.6943     5.0315    -3.7233 H       
  54 H54           -1.4829     7.3481    -2.8758 H       
  55 H55            0.2334     7.8368    -2.5342 H       
  56 H56           -1.2900     7.9843    -5.2348 H       
  57 H57            0.0079     9.0989    -4.6230 H       
  58 H58            1.7049     7.3309    -4.7417 H       
  59 H59            0.6037     6.6330    -6.0071 H       
  60 H60            7.0585     4.9978     0.7215 H       
  61 H61            7.6838     7.8284    -2.4159 H       
  62 H62            4.7997     4.7164    -2.9097 H       
  63 H63            9.5635     7.9553    -1.5106 H       
  64 H64            8.3112     9.0087    -0.8103 H       
  65 H65            9.7901     8.6492     0.1128 H       
  66 H66            6.4430     8.7805    -3.8017 H       
  67 H67            7.6955     7.7280    -4.5031 H       
  68 H68            6.2959     8.2224    -5.4855 H       
@<TRIPOS>BOND
   1    1    2 ar
   2    1    6 ar
   3    1   40 1
   4    2    3 ar
   5    2   41 1
   6    3    4 ar
   7    4    5 ar
   8    4    7 1
   9    5    6 ar
  10    5   11 1
  11    6   42 1
  12    7    8 1
  13    7   43 1
  14    8    9 ar
  15    8   12 ar
  16    9   10 1
  17    9   15 ar
  18   10   11 1
  19   10   16 2
  20   11   18 1
  21   12   13 ar
  22   12   44 1
  23   13   14 ar
  24   13   45 1
  25   14   15 ar
  26   14   46 1
  27   15   47 1
  28   16   17 1
  29   17   18 2
  30   17   25 1
  31   18   19 1
  32   19   20 ar
  33   19   21 ar
  34   20   24 ar
  35   20   48 1
  36   21   22 ar
  37   21   49 1
  38   22   23 ar
  39   22   50 1
  40   23   24 ar
  41   23   26 1
  42   24   51 1
  43   25   31 ar
  44   25   35 ar
  45   26   27 1
  46   26   28 1
  47   26   30 1
  48   27   52 1
  49   27   53 1
  50   28   29 1
  51   28   54 1
  52   28   55 1
  53   29   30 1
  54   29   56 1
  55   29   57 1
  56   30   58 1
  57   30   59 1
  58   31   32 ar
  59   31   60 1
  60   32   33 ar
  61   32   36 1
  62   33   34 ar
  63   33   61 1
  64   34   35 ar
  65   34   38 1
  66   35   62 1
  67   36   37 1
  68   37   63 1
  69   37   64 1
  70   37   65 1
  71   38   39 1
  72   39   66 1
  73   39   67 1
  74   39   68 1

#	End of record

