#	Name: ASD01883844
#	Creating user name:	WinNT
#	Creation time:	15. 06. 2019 19:47

#	Modifying user name:	WinNT
#	Modification time:	15. 06. 2019 19:47

#	Program:	/corina/corina34_cracker 3.40 0067  02.08.2006

@<TRIPOS>MOLECULE
ASD01883844
  35   38    0    0    0
SMALL
NO_CHARGES


@<TRIPOS>ATOM
   1 C1            -0.8390    -0.2068    -1.0461 C.ar    
   2 O2             0.0021    -0.0041     0.0020 O.3     
   3 C3             1.1632    -0.7071     0.0328 C.2     
   4 C4             3.5512    -0.8113    -0.0612 C.2     
   5 C5             2.3615    -0.0616    -0.0961 C.2     
   6 C6             1.1406    -2.1067     0.2038 C.2     
   7 C7             2.2921    -2.8068     0.2346 C.2     
   8 N8             5.5498    -1.5546    -0.0635 N.2     
   9 N9             4.8323    -0.4905    -0.1560 N.2     
  10 N10            3.4936    -2.1740     0.1017 N.pl3   
  11 C11            4.7869    -2.6045     0.0943 C.2     
  12 C12            5.2523    -4.0304     0.2404 C.3     
  13 C13            5.4742    -4.3452     1.7211 C.3     
  14 C14            5.8379    -5.7847     2.0905 C.3     
  15 C15            6.8984    -4.6845     2.1655 C.3     
  16 Cl16           2.4141     1.6615    -0.3010 Cl      
  17 C17           -1.3082    -1.2254    -3.1649 C.ar    
  18 C18           -2.5509    -0.6191    -3.1807 C.ar    
  19 C19           -2.9381     0.1972    -2.1343 C.ar    
  20 C20           -2.0851     0.4051    -1.0664 C.ar    
  21 C21           -0.4517    -1.0212    -2.1005 C.ar    
  22 Cl22          -2.5716     1.4297     0.2478 Cl      
  23 H23            0.1964    -2.6200     0.3108 H       
  24 H24            2.2634    -3.8784     0.3660 H       
  25 H25            4.4960    -4.7027    -0.1646 H       
  26 H26            6.1871    -4.1650    -0.3038 H       
  27 H27            4.8479    -3.7894     2.4189 H       
  28 H28            5.4511    -6.1759     3.0315 H       
  29 H29            5.9190    -6.5075     1.2786 H       
  30 H30            7.6773    -4.6835     1.4029 H       
  31 H31            7.2094    -4.3519     3.1558 H       
  32 H32           -1.0085    -1.8628    -3.9837 H       
  33 H33           -3.2187    -0.7804    -4.0141 H       
  34 H34           -3.9091     0.6698    -2.1493 H       
  35 H35            0.5188    -1.4948    -2.0892 H       
@<TRIPOS>BOND
   1    1    2 1
   2    1   21 ar
   3    1   20 ar
   4    2    3 1
   5    3    6 1
   6    3    5 2
   7    4    5 1
   8    4   10 1
   9    4    9 2
  10    5   16 1
  11    6    7 2
  12    6   23 1
  13    7   10 1
  14    7   24 1
  15    8    9 1
  16    8   11 2
  17   10   11 1
  18   11   12 1
  19   12   13 1
  20   12   25 1
  21   12   26 1
  22   13   14 1
  23   13   15 1
  24   13   27 1
  25   14   15 1
  26   14   28 1
  27   14   29 1
  28   15   30 1
  29   15   31 1
  30   17   18 ar
  31   17   21 ar
  32   17   32 1
  33   18   19 ar
  34   18   33 1
  35   19   20 ar
  36   19   34 1
  37   20   22 1
  38   21   35 1

#	End of record

