#	Name: ASD03091096
#	Creating user name:	WinNT
#	Creation time:	15. 06. 2019 20:30

#	Modifying user name:	WinNT
#	Modification time:	15. 06. 2019 20:30

#	Program:	/corina/corina34_cracker 3.40 0067  02.08.2006

@<TRIPOS>MOLECULE
ASD03091096
  49   51    0    0    0
SMALL
NO_CHARGES


@<TRIPOS>ATOM
   1 C1             0.1660     1.3041     0.9503 C.2     
   2 C2             0.0911    -0.0841     0.4593 C.ar    
   3 C3             1.2168    -0.6889    -0.1200 C.ar    
   4 C4             1.1376    -1.9969    -0.5799 C.ar    
   5 C5            -0.0442    -2.7002    -0.4684 C.ar    
   6 C6            -1.1641    -2.1066     0.1049 C.ar    
   7 C7            -1.0996    -0.8061     0.5737 C.ar    
   8 O8             1.2299     1.8931     0.9486 O.2     
   9 N9            -0.9457     1.9223     1.3958 N.am    
  10 C10           -0.8713     3.3016     1.8837 C.3     
  11 C11           -2.2407     3.7547     2.3201 C.2     
  12 O12           -3.1858     2.9997     2.2323 O.2     
  13 N13           -2.4152     4.9988     2.8080 N.am    
  14 C14           -3.7465     5.4393     3.2323 C.3     
  15 C15           -3.6079     6.5540     4.2710 C.3     
  16 C16           -4.5201     5.9640     2.0211 C.3     
  17 C17           -2.4889    -3.8205    -0.9007 C.3     
  18 N18           -2.3587    -2.8291     0.2133 N.3     
  19 C19           -3.5342    -1.9321     0.1023 C.3     
  20 C20           -4.3604    -2.4924    -1.0967 C.3     
  21 N21           -3.5361    -2.1519    -2.2990 N.3     
  22 C22           -2.3021    -2.9673    -2.1934 C.3     
  23 C23           -4.0460    -4.0234    -0.9412 C.3     
  24 N24            2.4090     0.0198    -0.2337 N.pl3   
  25 H25            2.0028    -2.4645    -1.0261 H       
  26 H26           -0.1002    -3.7169    -0.8284 H       
  27 H27           -1.9689    -0.3487     1.0224 H       
  28 H28           -1.7951     1.4538     1.3934 H       
  29 H29           -0.1855     3.3514     2.7294 H       
  30 H30           -0.5113     3.9505     1.0852 H       
  31 H31           -1.6594     5.6027     2.8782 H       
  32 H32           -4.2846     4.5989     3.6708 H       
  33 H33           -3.0698     7.3944     3.8324 H       
  34 H34           -4.5984     6.8817     4.5866 H       
  35 H35           -3.0568     6.1802     5.1339 H       
  36 H36           -3.9820     6.8044     1.5825 H       
  37 H37           -4.6189     5.1698     1.2811 H       
  38 H38           -5.5106     6.2917     2.3367 H       
  39 H39           -1.8723    -4.7159    -0.8212 H       
  40 H40           -4.1246    -1.9668     1.0178 H       
  41 H41           -3.2131    -0.9110    -0.1036 H       
  42 H42           -5.4101    -2.2014    -1.1362 H       
  43 H43           -4.0354    -2.3603    -3.1506 H       
  44 H44           -1.4289    -2.3219    -2.0980 H       
  45 H45           -2.2013    -3.6157    -3.0637 H       
  46 H46           -4.3661    -4.6023    -1.8076 H       
  47 H47           -4.4348    -4.4338    -0.0093 H       
  48 H48            2.3983     0.9898    -0.2353 H       
  49 H49            3.2506    -0.4561    -0.3114 H       
@<TRIPOS>BOND
   1    1    2 1
   2    1    8 2
   3    1    9 am
   4    2    3 ar
   5    2    7 ar
   6    3    4 ar
   7    3   24 1
   8    4    5 ar
   9    4   25 1
  10    5    6 ar
  11    5   26 1
  12    6    7 ar
  13    6   18 1
  14    7   27 1
  15    9   10 1
  16    9   28 1
  17   10   11 1
  18   10   29 1
  19   10   30 1
  20   11   12 2
  21   11   13 am
  22   13   14 1
  23   13   31 1
  24   14   15 1
  25   14   16 1
  26   14   32 1
  27   15   33 1
  28   15   34 1
  29   15   35 1
  30   16   36 1
  31   16   37 1
  32   16   38 1
  33   17   18 1
  34   17   22 1
  35   17   23 1
  36   17   39 1
  37   18   19 1
  38   19   20 1
  39   19   40 1
  40   19   41 1
  41   20   21 1
  42   20   23 1
  43   20   42 1
  44   21   22 1
  45   21   43 1
  46   22   44 1
  47   22   45 1
  48   23   46 1
  49   23   47 1
  50   24   48 1
  51   24   49 1

#	End of record

