#	Name: ASD01908124
#	Creating user name:	WinNT
#	Creation time:	15. 06. 2019 19:54

#	Modifying user name:	WinNT
#	Modification time:	15. 06. 2019 19:54

#	Program:	/corina/corina34_cracker 3.40 0067  02.08.2006

@<TRIPOS>MOLECULE
ASD01908124
  43   46    0    0    0
SMALL
NO_CHARGES


@<TRIPOS>ATOM
   1 C1            -0.0173     1.3862     0.0215 C.ar    
   2 C2             1.1712     2.1094     0.0076 C.ar    
   3 C3             2.3741     1.4268     0.0161 C.ar    
   4 C4             2.3481     0.0384     0.0383 C.ar    
   5 C5             1.1322    -0.6150     0.0512 C.ar    
   6 N6            -0.0002     0.0623     0.0426 N.ar    
   7 N7            -1.2344     2.0600     0.0191 N.pl3   
   8 S8            -2.5465    -0.3871    -0.3562 S.3     
   9 C9            -2.4218     1.3480    -0.0840 C.2     
  10 N10           -3.6107     1.8578     0.0060 N.2     
  11 C11           -4.6373     1.0170    -0.1179 C.2     
  12 C12           -4.3041    -0.2694    -0.3232 C.2     
  13 F13           -5.1690    -1.2956    -0.4781 F       
  14 N14           -7.8601     2.5594     0.5408 N.pl3   
  15 N15           -8.2112     1.6025    -0.4192 N.2     
  16 C16           -7.1342     0.9484    -0.7666 C.2     
  17 C17           -6.0498     1.4690    -0.0347 C.2     
  18 C18           -6.5315     2.4635     0.7645 C.2     
  19 C19           -8.7743     3.5049     1.1862 C.3     
  20 C20           -9.5055     4.2957     0.1322 C.ar    
  21 C21          -10.7078     3.8316    -0.3686 C.ar    
  22 C22          -11.3801     4.5546    -1.3349 C.ar    
  23 C23          -10.8479     5.7473    -1.8027 C.ar    
  24 C24           -9.6414     6.2108    -1.2986 C.ar    
  25 C25           -8.9758     5.4869    -0.3284 C.ar    
  26 O26          -11.5071     6.4602    -2.7536 O.3     
  27 C27          -10.9001     7.6787    -3.1881 C.3     
  28 H28            1.1547     3.1891    -0.0099 H       
  29 H29            3.3124     1.9614     0.0054 H       
  30 H30            3.2699    -0.5243     0.0451 H       
  31 H31            1.1074    -1.6946     0.0681 H       
  32 H32           -1.2535     3.0273     0.0893 H       
  33 H33           -7.0847     0.1473    -1.4893 H       
  34 H34           -5.9552     3.0652     1.4517 H       
  35 H35           -9.4942     2.9570     1.7941 H       
  36 H36           -8.2055     4.1845     1.8209 H       
  37 H37          -11.1215     2.9029    -0.0043 H       
  38 H38          -12.3190     4.1915    -1.7260 H       
  39 H39           -9.2250     7.1390    -1.6613 H       
  40 H40           -8.0389     5.8497     0.0678 H       
  41 H41          -10.7914     8.3535    -2.3390 H       
  42 H42           -9.9182     7.4651    -3.6104 H       
  43 H43          -11.5277     8.1470    -3.9463 H       
@<TRIPOS>BOND
   1    1    2 ar
   2    1    6 ar
   3    1    7 1
   4    2    3 ar
   5    2   28 1
   6    3    4 ar
   7    3   29 1
   8    4    5 ar
   9    4   30 1
  10    5    6 ar
  11    5   31 1
  12    7    9 1
  13    7   32 1
  14    8    9 1
  15    8   12 1
  16    9   10 2
  17   10   11 1
  18   11   12 2
  19   11   17 1
  20   12   13 1
  21   14   15 1
  22   14   18 1
  23   14   19 1
  24   15   16 2
  25   16   17 1
  26   16   33 1
  27   17   18 2
  28   18   34 1
  29   19   20 1
  30   19   35 1
  31   19   36 1
  32   20   21 ar
  33   20   25 ar
  34   21   22 ar
  35   21   37 1
  36   22   23 ar
  37   22   38 1
  38   23   24 ar
  39   23   26 1
  40   24   25 ar
  41   24   39 1
  42   25   40 1
  43   26   27 1
  44   27   41 1
  45   27   42 1
  46   27   43 1

#	End of record

