#	Name: ASD01420178
#	Creating user name:	WinNT
#	Creation time:	15. 06. 2019 19:20

#	Modifying user name:	WinNT
#	Modification time:	15. 06. 2019 19:20

#	Program:	/corina/corina34_cracker 3.40 0067  02.08.2006

@<TRIPOS>MOLECULE
ASD01420178
  65   67    0    0    0
SMALL
NO_CHARGES


@<TRIPOS>ATOM
   1 C1            -0.0144     1.2120     0.0087 C.2     
   2 O2             0.1295     0.0132     0.1550 O.2     
   3 C3             1.0482     3.4383    -0.4762 C.3     
   4 N4             1.0607     2.0008    -0.1871 N.am    
   5 C5             2.4666     1.5859    -0.1513 C.3     
   6 C6             3.3115     2.8044    -0.4254 C.ar    
   7 C7             4.6838     2.9617    -0.5044 C.ar    
   8 C8             5.2254     4.2090    -0.7748 C.ar    
   9 C9             4.3880     5.2987    -0.9658 C.ar    
  10 C10            3.0193     5.1372    -0.8861 C.ar    
  11 C11            2.4800     3.8905    -0.6160 C.ar    
  12 O12            6.5733     4.3641    -0.8520 O.3     
  13 C13            7.0601     5.6777    -1.1339 C.3     
  14 C14            8.5892     5.6556    -1.1815 C.3     
  15 N15            9.0320     4.8265    -2.3104 N.3     
  16 C16           10.4983     4.7821    -2.3877 C.3     
  17 C17           10.9204     3.9113    -3.5728 C.3     
  18 C18           10.3593     4.5043    -4.8668 C.3     
  19 C19           12.4476     3.8650    -3.6533 C.3     
  20 C20           10.3765     2.4939    -3.3835 C.3     
  21 C21           -1.3642     1.8009     0.0395 C.ar    
  22 C22           -2.2646     1.4465     1.0559 C.ar    
  23 C23           -3.5307     2.0049     1.0776 C.ar    
  24 C24           -3.9067     2.9113     0.0969 C.ar    
  25 C25           -3.0151     3.2637    -0.9115 C.ar    
  26 C26           -1.7517     2.7198    -0.9406 C.ar    
  27 C27           -3.4329     4.2491    -1.9723 C.3     
  28 C28           -2.5005     5.4617    -1.9376 C.3     
  29 C29           -3.3523     3.5830    -3.3473 C.3     
  30 O30           -5.1495     3.4561     0.1210 O.3     
  31 O31           -1.8953     0.5593     2.0135 O.3     
  32 H32            0.5099     3.6235    -1.4058 H       
  33 H33            0.5693     3.9756     0.3423 H       
  34 H34            2.7078     1.1827     0.8323 H       
  35 H35            2.6484     0.8306    -0.9158 H       
  36 H36            5.3338     2.1122    -0.3550 H       
  37 H37            4.8063     6.2719    -1.1762 H       
  38 H38            2.3674     5.9853    -1.0348 H       
  39 H39            6.6714     6.0105    -2.0963 H       
  40 H40            6.7308     6.3627    -0.3525 H       
  41 H41            8.9635     6.6715    -1.3080 H       
  42 H42            8.9757     5.2392    -0.2513 H       
  43 H43            8.6448     3.8968    -2.2500 H       
  44 H44           10.8858     5.7919    -2.5225 H       
  45 H45           10.8981     4.3596    -1.4658 H       
  46 H46           10.7468     5.5142    -5.0016 H       
  47 H47           10.6600     3.8840    -5.7111 H       
  48 H48            9.2713     4.5373    -4.8095 H       
  49 H49           12.8474     3.4425    -2.7314 H       
  50 H50           12.7483     3.2447    -4.4976 H       
  51 H51           12.8351     4.8748    -3.7881 H       
  52 H52            9.2885     2.5268    -3.3262 H       
  53 H53           10.6772     1.8735    -4.2278 H       
  54 H54           10.7762     2.0714    -2.4617 H       
  55 H55           -4.2265     1.7347     1.8582 H       
  56 H56           -1.0610     2.9993    -1.7224 H       
  57 H57           -4.4568     4.5726    -1.7848 H       
  58 H58           -1.4766     5.1382    -2.1252 H       
  59 H59           -2.8026     6.1744    -2.7049 H       
  60 H60           -2.5579     5.9362    -0.9581 H       
  61 H61           -4.0166     2.7191    -3.3721 H       
  62 H62           -3.6545     4.2957    -4.1146 H       
  63 H63           -2.3285     3.2595    -3.5349 H       
  64 H64           -5.2087     4.2783     0.6266 H       
  65 H65           -1.4866     0.9660     2.7898 H       
@<TRIPOS>BOND
   1    1    2 2
   2    1    4 am
   3    1   21 1
   4    3    4 1
   5    3   11 1
   6    3   32 1
   7    3   33 1
   8    4    5 1
   9    5    6 1
  10    5   34 1
  11    5   35 1
  12    6    7 ar
  13    6   11 ar
  14    7    8 ar
  15    7   36 1
  16    8    9 ar
  17    8   12 1
  18    9   10 ar
  19    9   37 1
  20   10   11 ar
  21   10   38 1
  22   12   13 1
  23   13   14 1
  24   13   39 1
  25   13   40 1
  26   14   15 1
  27   14   41 1
  28   14   42 1
  29   15   16 1
  30   15   43 1
  31   16   17 1
  32   16   44 1
  33   16   45 1
  34   17   18 1
  35   17   19 1
  36   17   20 1
  37   18   46 1
  38   18   47 1
  39   18   48 1
  40   19   49 1
  41   19   50 1
  42   19   51 1
  43   20   52 1
  44   20   53 1
  45   20   54 1
  46   21   22 ar
  47   21   26 ar
  48   22   23 ar
  49   22   31 1
  50   23   24 ar
  51   23   55 1
  52   24   25 ar
  53   24   30 1
  54   25   26 ar
  55   25   27 1
  56   26   56 1
  57   27   28 1
  58   27   29 1
  59   27   57 1
  60   28   58 1
  61   28   59 1
  62   28   60 1
  63   29   61 1
  64   29   62 1
  65   29   63 1
  66   30   64 1
  67   31   65 1

#	End of record

