#	Name: ASD01814399
#	Creating user name:	WinNT
#	Creation time:	15. 06. 2019 19:32

#	Modifying user name:	WinNT
#	Modification time:	15. 06. 2019 19:32

#	Program:	/corina/corina34_cracker 3.40 0067  02.08.2006

@<TRIPOS>MOLECULE
ASD01814399
  45   49    0    0    0
SMALL
NO_CHARGES


@<TRIPOS>ATOM
   1 C1            -0.0167     1.3819     0.0096 C.ar    
   2 C2             0.0021    -0.0041     0.0020 C.ar    
   3 C3             1.1970    -0.6936    -0.0126 C.ar    
   4 C4             2.3990     0.0034    -0.0203 C.ar    
   5 C5             2.3751     1.4118    -0.0130 C.ar    
   6 C6             1.1661     2.0940     0.0022 C.ar    
   7 N7             3.6102    -0.6577    -0.0345 N.pl3   
   8 N8             4.7455    -0.0610    -0.0416 N.2     
   9 C9             4.8827     1.2395    -0.0363 C.2     
  10 C10            3.6768     2.1037    -0.0217 C.2     
  11 C11            6.0122     2.1720    -0.0422 C.2     
  12 N12            5.4770     3.4118    -0.0314 N.am    
  13 N13            4.0818     3.3389    -0.0194 N.2     
  14 C14            3.5986    -2.1226    -0.0412 C.3     
  15 C15            3.5816    -2.6183    -1.4643 C.ar    
  16 C16            4.7702    -2.9512    -2.0855 C.ar    
  17 C17            4.7442    -3.4063    -3.3950 C.ar    
  18 C18            3.5171    -3.5099    -4.0334 C.ar    
  19 C19            2.3689    -3.1581    -3.3470 C.ar    
  20 N20            2.4320    -2.7343    -2.1001 N.ar    
  21 Br21           3.4154    -4.1234    -5.8192 Br      
  22 O22            7.1978     1.8862    -0.0541 O.2     
  23 C23            6.2152     4.6009    -0.0321 C.ar    
  24 C24            7.1592     4.8334    -1.0238 C.ar    
  25 C25            7.8860     6.0080    -1.0216 C.ar    
  26 C26            7.6749     6.9515    -0.0332 C.ar    
  27 C27            6.7355     6.7230     0.9560 C.ar    
  28 C28            6.0012     5.5537     0.9560 C.ar    
  29 C29            4.9778     5.3056     2.0341 C.3     
  30 H30           -0.9605     1.9069     0.0169 H       
  31 H31           -0.9294    -0.5505     0.0080 H       
  32 H32            1.1981    -1.7735    -0.0177 H       
  33 H33            1.1510     3.1739     0.0077 H       
  34 H34            4.4903    -2.4954     0.4627 H       
  35 H35            2.7105    -2.4813     0.4791 H       
  36 H36            5.7078    -2.8577    -1.5577 H       
  37 H37            5.6575    -3.6733    -3.9057 H       
  38 H38            1.4093    -3.2354    -3.8367 H       
  39 H39            7.3250     4.0965    -1.7958 H       
  40 H40            8.6203     6.1894    -1.7925 H       
  41 H41            8.2451     7.8688    -0.0332 H       
  42 H42            6.5730     7.4620     1.7266 H       
  43 H43            4.0119     5.6974     1.7153 H       
  44 H44            4.8934     4.2341     2.2152 H       
  45 H45            5.2880     5.8058     2.9515 H       
@<TRIPOS>BOND
   1    1    2 ar
   2    1    6 ar
   3    1   30 1
   4    2    3 ar
   5    2   31 1
   6    3    4 ar
   7    3   32 1
   8    4    5 ar
   9    4    7 1
  10    5    6 ar
  11    5   10 1
  12    6   33 1
  13    7    8 1
  14    7   14 1
  15    8    9 2
  16    9   10 1
  17    9   11 1
  18   10   13 2
  19   11   12 am
  20   11   22 2
  21   12   13 1
  22   12   23 1
  23   14   15 1
  24   14   34 1
  25   14   35 1
  26   15   16 ar
  27   15   20 ar
  28   16   17 ar
  29   16   36 1
  30   17   18 ar
  31   17   37 1
  32   18   19 ar
  33   18   21 1
  34   19   20 ar
  35   19   38 1
  36   23   24 ar
  37   23   28 ar
  38   24   25 ar
  39   24   39 1
  40   25   26 ar
  41   25   40 1
  42   26   27 ar
  43   26   41 1
  44   27   28 ar
  45   27   42 1
  46   28   29 1
  47   29   43 1
  48   29   44 1
  49   29   45 1

#	End of record

