#	Name: ASD05130057
#	Creating user name:	WinNT
#	Creation time:	15. 06. 2019 20:56

#	Modifying user name:	WinNT
#	Modification time:	15. 06. 2019 20:56

#	Program:	/corina/corina34_cracker 3.40 0067  02.08.2006

@<TRIPOS>MOLECULE
ASD05130057
  54   57    0    0    0
SMALL
NO_CHARGES


@<TRIPOS>ATOM
   1 N1            -0.0246     1.3721    -0.1696 N.am    
   2 C2            -1.0615     2.0184     0.3993 C.2     
   3 O3            -0.9207     3.1565     0.8033 O.2     
   4 N4            -2.2545     1.4032     0.5202 N.am    
   5 C5            -3.2996     2.0319     1.2064 C.ar    
   6 C6            -4.6144     1.8309     0.8071 C.ar    
   7 C7            -5.6436     2.4528     1.4863 C.ar    
   8 C8            -5.3659     3.2754     2.5627 C.ar    
   9 C9            -4.0578     3.4776     2.9628 C.ar    
  10 C10           -3.0245     2.8536     2.2915 C.ar    
  11 C11            1.1811     2.0465    -0.3966 C.ar    
  12 C12            1.1717     3.3983    -0.7044 C.ar    
  13 C13            2.3739     4.0657    -0.9292 C.ar    
  14 C14            3.5806     3.3691    -0.8430 C.ar    
  15 C15            3.5799     2.0226    -0.5358 C.ar    
  16 C16            2.3870     1.3622    -0.3077 C.ar    
  17 N17            2.6234     7.2666    -2.9326 N.am    
  18 C18            2.6258     5.9532    -2.6317 C.2     
  19 C19            2.3715     5.5102    -1.2590 C.2     
  20 C20            2.1312     6.4390    -0.2833 C.2     
  21 C21            2.1340     7.8122    -0.6244 C.ar    
  22 C22            1.8934     8.7967     0.3420 C.ar    
  23 N23            1.8995    10.0688     0.0083 N.ar    
  24 C24            2.1300    10.4732    -1.2363 C.ar    
  25 C25            2.3780     9.5643    -2.2552 C.ar    
  26 C26            2.3827     8.2067    -1.9573 C.ar    
  27 O27            2.8404     5.1311    -3.5046 O.2     
  28 N28            2.1221    11.8304    -1.5228 N.pl3   
  29 C29            2.3745    12.2919    -2.8901 C.3     
  30 C30            2.8847     7.6973    -4.3083 C.3     
  31 C31            1.5642     7.7783    -5.0769 C.3     
  32 Cl32           5.0818     4.1951    -1.1225 Cl      
  33 H33           -0.1124     0.4386    -0.4181 H       
  34 H34           -2.3887     0.5246     0.1317 H       
  35 H35           -4.8318     1.1891    -0.0339 H       
  36 H36           -6.6663     2.2969     1.1763 H       
  37 H37           -6.1724     3.7612     3.0918 H       
  38 H38           -3.8442     4.1206     3.8038 H       
  39 H39           -2.0033     3.0084     2.6072 H       
  40 H40            0.2353     3.9323    -0.7702 H       
  41 H41            4.5141     1.4849    -0.4698 H       
  42 H42            2.3922     0.3103    -0.0634 H       
  43 H43            1.9416     6.1280     0.7334 H       
  44 H44            1.7017     8.5101     1.3655 H       
  45 H45            2.5635     9.9060    -3.2628 H       
  46 H46            1.9495    12.4739    -0.8178 H       
  47 H47            3.3631    11.9614    -3.2085 H       
  48 H48            1.6200    11.8773    -3.5586 H       
  49 H49            2.3281    13.3805    -2.9205 H       
  50 H50            3.3598     8.6783    -4.2979 H       
  51 H51            3.5448     6.9791    -4.7947 H       
  52 H52            1.7586     8.0988    -6.1004 H       
  53 H53            1.0891     6.7974    -5.0873 H       
  54 H54            0.9042     8.4965    -4.5904 H       
@<TRIPOS>BOND
   1    1    2 am
   2    1   11 1
   3    1   33 1
   4    2    3 2
   5    2    4 am
   6    4    5 1
   7    4   34 1
   8    5    6 ar
   9    5   10 ar
  10    6    7 ar
  11    6   35 1
  12    7    8 ar
  13    7   36 1
  14    8    9 ar
  15    8   37 1
  16    9   10 ar
  17    9   38 1
  18   10   39 1
  19   11   12 ar
  20   11   16 ar
  21   12   13 ar
  22   12   40 1
  23   13   14 ar
  24   13   19 1
  25   14   15 ar
  26   14   32 1
  27   15   16 ar
  28   15   41 1
  29   16   42 1
  30   17   18 am
  31   17   26 1
  32   17   30 1
  33   18   19 1
  34   18   27 2
  35   19   20 2
  36   20   21 1
  37   20   43 1
  38   21   22 ar
  39   21   26 ar
  40   22   23 ar
  41   22   44 1
  42   23   24 ar
  43   24   25 ar
  44   24   28 1
  45   25   26 ar
  46   25   45 1
  47   28   29 1
  48   28   46 1
  49   29   47 1
  50   29   48 1
  51   29   49 1
  52   30   31 1
  53   30   50 1
  54   30   51 1
  55   31   52 1
  56   31   53 1
  57   31   54 1

#	End of record

