#	Name: ASD03240508
#	Creating user name:	WinNT
#	Creation time:	15. 06. 2019 20:35

#	Modifying user name:	WinNT
#	Modification time:	15. 06. 2019 20:35

#	Program:	/corina/corina34_cracker 3.40 0067  02.08.2006

@<TRIPOS>MOLECULE
ASD03240508
  45   47    0    0    0
SMALL
NO_CHARGES


@<TRIPOS>ATOM
   1 C1             0.1795     1.2456     0.1377 C.ar    
   2 C2             0.0574    -0.1134    -0.0886 C.ar    
   3 C3             1.4151     1.8543     0.0484 C.ar    
   4 C4             2.5402     1.0974    -0.2704 C.ar    
   5 C5             2.4116    -0.2709    -0.4975 C.ar    
   6 C6             1.1714    -0.8697    -0.4051 C.ar    
   7 C7             3.8718     1.7469    -0.3683 C.2     
   8 C8             5.0500     1.1289    -0.6706 C.2     
   9 N9             6.0179     2.0674    -0.6580 N.pl3   
  10 N10            5.4300     3.2979    -0.3408 N.2     
  11 C11            4.1474     3.1141    -0.1721 C.2     
  12 C12           -1.2942    -0.7726     0.0103 C.3     
  13 C13           -1.5876    -1.5316    -1.2853 C.3     
  14 C14           -1.2996    -1.7360     1.1691 C.ar    
  15 C15           -0.8069    -3.0153     0.9959 C.ar    
  16 C16           -0.8164    -3.8941     2.0686 C.ar    
  17 C17           -1.3234    -3.4508     3.2803 C.ar    
  18 C18           -1.7992    -2.1567     3.3782 C.ar    
  19 N19           -1.7696    -1.3466     2.3383 N.ar    
  20 C20           -3.0087    -2.0963    -1.2350 C.3     
  21 N21           -3.2903    -2.8251    -2.4790 N.3     
  22 C22           -4.5472    -3.5783    -2.3749 C.3     
  23 C23           -3.3176    -1.9119    -3.6294 C.3     
  24 H24           -0.6941     1.8323     0.3804 H       
  25 H25            1.5093     2.9156     0.2250 H       
  26 H26            3.2807    -0.8623    -0.7450 H       
  27 H27            1.0706    -1.9306    -0.5806 H       
  28 H28            5.1832     0.0781    -0.8818 H       
  29 H29            6.9591     1.9162    -0.8374 H       
  30 H30            3.4254     3.8765     0.0808 H       
  31 H31           -2.0589    -0.0118     0.1668 H       
  32 H32           -1.4963    -0.8524    -2.1330 H       
  33 H33           -0.8754    -2.3493    -1.3966 H       
  34 H34           -0.4196    -3.3270     0.0371 H       
  35 H35           -0.4381    -4.9001     1.9624 H       
  36 H36           -1.3466    -4.1082     4.1367 H       
  37 H37           -2.1962    -1.8037     4.3186 H       
  38 H38           -3.1000    -2.7755    -0.3874 H       
  39 H39           -3.7208    -1.2786    -1.1238 H       
  40 H40           -5.3688    -2.8890    -2.1799 H       
  41 H41           -4.7316    -4.1084    -3.3092 H       
  42 H42           -4.4738    -4.2964    -1.5581 H       
  43 H43           -2.3503    -1.4186    -3.7247 H       
  44 H44           -3.5281    -2.4774    -4.5372 H       
  45 H45           -4.0946    -1.1623    -3.4800 H       
@<TRIPOS>BOND
   1    1    2 ar
   2    1    3 ar
   3    1   24 1
   4    2   12 1
   5    2    6 ar
   6    3    4 ar
   7    3   25 1
   8    4    5 ar
   9    4    7 1
  10    5    6 ar
  11    5   26 1
  12    6   27 1
  13    7    8 2
  14    7   11 1
  15    8    9 1
  16    8   28 1
  17    9   10 1
  18    9   29 1
  19   10   11 2
  20   11   30 1
  21   12   13 1
  22   12   14 1
  23   12   31 1
  24   13   20 1
  25   13   32 1
  26   13   33 1
  27   14   15 ar
  28   14   19 ar
  29   15   16 ar
  30   15   34 1
  31   16   17 ar
  32   16   35 1
  33   17   18 ar
  34   17   36 1
  35   18   19 ar
  36   18   37 1
  37   20   21 1
  38   20   38 1
  39   20   39 1
  40   21   22 1
  41   21   23 1
  42   22   40 1
  43   22   41 1
  44   22   42 1
  45   23   43 1
  46   23   44 1
  47   23   45 1

#	End of record

