#	Name: ASD04882167
#	Creating user name:	WinNT
#	Creation time:	15. 06. 2019 20:54

#	Modifying user name:	WinNT
#	Modification time:	15. 06. 2019 20:54

#	Program:	/corina/corina34_cracker 3.40 0067  02.08.2006

@<TRIPOS>MOLECULE
ASD04882167
  77   81    0    0    0
SMALL
NO_CHARGES


@<TRIPOS>ATOM
   1 C1            -0.1617     1.4744     0.4544 C.2     
   2 C2            -0.1422     0.0093     0.4887 C.2     
   3 N3            -1.1636    -0.6908    -0.0431 N.am    
   4 C4            -1.0912    -2.0880    -0.1180 C.ar    
   5 C5            -2.2495    -2.8570     0.0250 C.ar    
   6 C6            -2.1791    -4.2435    -0.0490 C.ar    
   7 C7            -0.9684    -4.8642    -0.2629 C.ar    
   8 C8             0.1938    -4.1011    -0.4063 C.ar    
   9 C9             0.1247    -2.7067    -0.3389 C.ar    
  10 N10           -3.4756    -2.2337     0.2423 N.3     
  11 C11           -3.5002    -1.5611     1.5487 C.3     
  12 C12           -4.5823    -3.1936     0.1265 C.3     
  13 C13           -5.9131    -2.4562     0.2927 C.3     
  14 N14           -5.9377    -1.7836     1.5990 N.3     
  15 C15           -4.8310    -0.8237     1.7149 C.3     
  16 C16           -7.1675    -1.1584     1.8170 C.ar    
  17 C17           -7.6087    -0.1684     0.9485 C.ar    
  18 C18           -7.9549    -1.5293     2.8999 C.ar    
  19 C19           -9.1701    -0.9091     3.1126 C.ar    
  20 C20           -9.6040     0.0800     2.2487 C.ar    
  21 C21           -8.8253     0.4479     1.1670 C.ar    
  22 C22            1.4906    -4.7663    -0.6350 C.2     
  23 N23            1.5552    -6.1107    -0.7058 N.am    
  24 O24            2.5012    -4.1017    -0.7596 O.2     
  25 O25            0.7965    -0.5751     0.9976 O.2     
  26 C26            2.8429    -6.7712    -0.9328 C.3     
  27 C27            2.6390    -8.2871    -0.9703 C.3     
  28 C28            3.9839    -8.9769    -1.2074 C.3     
  29 N29            3.7886   -10.4284    -1.2433 N.am    
  30 C30            3.5202   -11.1303    -2.3578 C.2     
  31 C31            3.3709   -12.5984    -2.0248 C.3     
  32 C32            3.1766   -12.6215    -0.4909 C.3     
  33 C33            3.8671   -11.3038    -0.0679 C.3     
  34 C34           -7.4834    -2.6076     3.8412 C.3     
  35 O35            3.4129   -10.6556    -3.4687 O.2     
  36 C36            0.8104     2.2922     0.9582 C.2     
  37 C37            0.5368     3.6290     0.7908 C.2     
  38 C38           -0.6186     3.8988     0.1719 C.2     
  39 S39           -1.4360     2.4614    -0.2482 S.3     
  40 C40           -1.1270     5.2870    -0.1204 C.3     
  41 H41           -1.9489    -0.2275    -0.3741 H       
  42 H42           -3.0758    -4.8352     0.0618 H       
  43 H43           -0.9170    -5.9415    -0.3196 H       
  44 H44            1.0211    -2.1145    -0.4494 H       
  45 H45           -3.3934    -2.3018     2.3412 H       
  46 H46           -2.6790    -0.8465     1.6054 H       
  47 H47           -4.5500    -3.6693    -0.8537 H       
  48 H48           -4.4878    -3.9529     0.9028 H       
  49 H49           -6.0198    -1.7155    -0.4998 H       
  50 H50           -6.7343    -3.1707     0.2360 H       
  51 H51           -4.8633    -0.3480     2.6951 H       
  52 H52           -4.9255    -0.0644     0.9386 H       
  53 H53           -7.0009     0.1195     0.1034 H       
  54 H54           -9.7827    -1.1969     3.9542 H       
  55 H55          -10.5552     0.5630     2.4169 H       
  56 H56           -9.1670     1.2207     0.4944 H       
  57 H57            0.7490    -6.6408    -0.6064 H       
  58 H58            3.2601    -6.4372    -1.8828 H       
  59 H59            3.5292    -6.5168    -0.1251 H       
  60 H60            2.2218    -8.6211    -0.0203 H       
  61 H61            1.9527    -8.5415    -1.7780 H       
  62 H62            4.4010    -8.6429    -2.1574 H       
  63 H63            4.6702    -8.7225    -0.3997 H       
  64 H64            2.4980   -13.0165    -2.5262 H       
  65 H65            4.2710   -13.1463    -2.3036 H       
  66 H66            2.1179   -12.6125    -0.2316 H       
  67 H67            3.6781   -13.4815    -0.0471 H       
  68 H68            4.9065   -11.4920     0.2010 H       
  69 H69            3.3360   -10.8516     0.7697 H       
  70 H70           -6.9056    -2.1579     4.6487 H       
  71 H71           -8.3454    -3.1287     4.2578 H       
  72 H72           -6.8582    -3.3162     3.2979 H       
  73 H73            1.7044     1.9249     1.4401 H       
  74 H74            1.2052     4.4048     1.1340 H       
  75 H75           -0.7669     5.6076    -1.0980 H       
  76 H76           -2.2170     5.2827    -0.1181 H       
  77 H77           -0.7648     5.9749     0.6437 H       
@<TRIPOS>BOND
   1    1    2 1
   2    1   36 2
   3    1   39 1
   4    2    3 am
   5    2   25 2
   6    3    4 1
   7    3   41 1
   8    4    5 ar
   9    4    9 ar
  10    5    6 ar
  11    5   10 1
  12    6    7 ar
  13    6   42 1
  14    7    8 ar
  15    7   43 1
  16    8    9 ar
  17    8   22 1
  18    9   44 1
  19   10   11 1
  20   10   12 1
  21   11   15 1
  22   11   45 1
  23   11   46 1
  24   12   13 1
  25   12   47 1
  26   12   48 1
  27   13   14 1
  28   13   49 1
  29   13   50 1
  30   14   15 1
  31   14   16 1
  32   15   51 1
  33   15   52 1
  34   16   17 ar
  35   16   18 ar
  36   17   21 ar
  37   17   53 1
  38   18   19 ar
  39   18   34 1
  40   19   20 ar
  41   19   54 1
  42   20   21 ar
  43   20   55 1
  44   21   56 1
  45   22   23 am
  46   22   24 2
  47   23   26 1
  48   23   57 1
  49   26   27 1
  50   26   58 1
  51   26   59 1
  52   27   28 1
  53   27   60 1
  54   27   61 1
  55   28   29 1
  56   28   62 1
  57   28   63 1
  58   29   30 am
  59   29   33 1
  60   30   31 1
  61   30   35 2
  62   31   32 1
  63   31   64 1
  64   31   65 1
  65   32   33 1
  66   32   66 1
  67   32   67 1
  68   33   68 1
  69   33   69 1
  70   34   70 1
  71   34   71 1
  72   34   72 1
  73   36   37 1
  74   36   73 1
  75   37   38 2
  76   37   74 1
  77   38   39 1
  78   38   40 1
  79   40   75 1
  80   40   76 1
  81   40   77 1

#	End of record

