#	Name: ASD01890423
#	Creating user name:	WinNT
#	Creation time:	15. 06. 2019 19:50

#	Modifying user name:	WinNT
#	Modification time:	15. 06. 2019 19:50

#	Program:	/corina/corina34_cracker 3.40 0067  02.08.2006

@<TRIPOS>MOLECULE
ASD01890423
  61   63    0    0    0
SMALL
NO_CHARGES


@<TRIPOS>ATOM
   1 C1             1.0386     0.3834    -0.7699 C.2     
   2 C2            -0.3793     0.0014    -0.4314 C.3     
   3 C3            -0.9970    -0.7230    -1.5996 C.2     
   4 O4             1.5979    -0.1384    -1.7052 O.2     
   5 O5             1.6783     1.3073    -0.0358 O.3     
   6 O6            -0.2911    -1.2018    -2.4553 O.2     
   7 O7            -2.3315    -0.8362    -1.6895 O.3     
   8 C8            -0.3821    -0.9133     0.7951 C.3     
   9 C9            -1.8113    -1.3787     1.0810 C.3     
  10 C10           -2.6483    -0.1994     1.5050 C.2     
  11 C11           -4.0999    -0.3559     1.6901 C.ar    
  12 C12           -4.8968     0.7586     1.9708 C.ar    
  13 C13           -6.2562     0.6038     2.1424 C.ar    
  14 C14           -6.8323    -0.6502     2.0375 C.ar    
  15 C15           -6.0503    -1.7581     1.7603 C.ar    
  16 C16           -4.6903    -1.6189     1.5804 C.ar    
  17 C17           -8.3188    -0.8104     2.2264 C.3     
  18 F18           -8.9638    -0.6669     0.9933 F       
  19 F19           -8.5884    -2.0799     2.7488 F       
  20 F20           -8.7842     0.1670     3.1127 F       
  21 C21            0.4928    -2.1113     0.5303 C.2     
  22 C22            1.5663    -2.4454     1.2419 C.2     
  23 C23            2.2208    -3.5980     0.8111 C.2     
  24 C24            1.6600    -4.1903    -0.2592 C.2     
  25 S25            0.2419    -3.2789    -0.7600 S.3     
  26 C26            3.4357    -4.1283     1.4777 C.ar    
  27 C27            4.0462    -5.2865     1.0003 C.ar    
  28 C28            5.1763    -5.7750     1.6239 C.ar    
  29 C29            5.7028    -5.1176     2.7212 C.ar    
  30 C30            5.1007    -3.9678     3.1996 C.ar    
  31 C31            3.9738    -3.4669     2.5800 C.ar    
  32 O32           -2.1257     0.8784     1.6938 O.2     
  33 C33            3.0733     1.5529    -0.3552 C.3     
  34 C34            3.6608     2.5423     0.6531 C.3     
  35 C35           -2.8566    -1.5469    -2.8417 C.3     
  36 C36           -4.3848    -1.5733    -2.7717 C.3     
  37 H37           -0.9561     0.9007    -0.2153 H       
  38 H38            0.0012    -0.3668     1.6568 H       
  39 H39           -2.2365    -1.8208     0.1800 H       
  40 H40           -1.7989    -2.1211     1.8790 H       
  41 H41           -4.4487     1.7377     2.0533 H       
  42 H42           -6.8729     1.4634     2.3596 H       
  43 H43           -6.5071    -2.7335     1.6807 H       
  44 H44           -4.0821    -2.4836     1.3594 H       
  45 H45            1.9050    -1.8671     2.0888 H       
  46 H46            2.0228    -5.0893    -0.7351 H       
  47 H47            3.6356    -5.8010     0.1441 H       
  48 H48            5.6503    -6.6725     1.2548 H       
  49 H49            6.5871    -5.5036     3.2064 H       
  50 H50            5.5157    -3.4587     4.0569 H       
  51 H51            3.5070    -2.5666     2.9516 H       
  52 H52            3.6271     0.6152    -0.3091 H       
  53 H53            3.1481     1.9700    -1.3594 H       
  54 H54            3.5077     2.1647     1.6641 H       
  55 H55            4.7283     2.6599     0.4670 H       
  56 H56            3.1650     3.5071     0.5466 H       
  57 H57           -2.5435    -1.0404    -3.7547 H       
  58 H58           -2.4753    -2.5680    -2.8436 H       
  59 H59           -4.7790    -2.1068    -3.6366 H       
  60 H60           -4.6979    -2.0798    -1.8587 H       
  61 H61           -4.7661    -0.5522    -2.7698 H       
@<TRIPOS>BOND
   1    1    2 1
   2    1    4 2
   3    1    5 1
   4    2    3 1
   5    2    8 1
   6    2   37 1
   7    3    6 2
   8    3    7 1
   9    5   33 1
  10    7   35 1
  11    8    9 1
  12    8   21 1
  13    8   38 1
  14    9   10 1
  15    9   39 1
  16    9   40 1
  17   10   11 1
  18   10   32 2
  19   11   12 ar
  20   11   16 ar
  21   12   13 ar
  22   12   41 1
  23   13   14 ar
  24   13   42 1
  25   14   15 ar
  26   14   17 1
  27   15   16 ar
  28   15   43 1
  29   16   44 1
  30   17   18 1
  31   17   19 1
  32   17   20 1
  33   21   22 2
  34   21   25 1
  35   22   23 1
  36   22   45 1
  37   23   24 2
  38   23   26 1
  39   24   25 1
  40   24   46 1
  41   26   27 ar
  42   26   31 ar
  43   27   28 ar
  44   27   47 1
  45   28   29 ar
  46   28   48 1
  47   29   30 ar
  48   29   49 1
  49   30   31 ar
  50   30   50 1
  51   31   51 1
  52   33   34 1
  53   33   52 1
  54   33   53 1
  55   34   54 1
  56   34   55 1
  57   34   56 1
  58   35   36 1
  59   35   57 1
  60   35   58 1
  61   36   59 1
  62   36   60 1
  63   36   61 1

#	End of record

