#	Name: ASD03731657
#	Creating user name:	WinNT
#	Creation time:	15. 06. 2019 20:46

#	Modifying user name:	WinNT
#	Modification time:	15. 06. 2019 20:46

#	Program:	/corina/corina34_cracker 3.40 0067  02.08.2006

@<TRIPOS>MOLECULE
ASD03731657
  40   41    0    0    0
SMALL
NO_CHARGES


@<TRIPOS>ATOM
   1 C1            -0.4040     1.1039    -1.9608 C.2     
   2 C2            -0.2825    -0.2740    -1.4504 C.ar    
   3 C3             0.9014    -0.9943    -1.6488 C.ar    
   4 C4             1.0105    -2.2838    -1.1686 C.ar    
   5 C5            -0.0519    -2.8663    -0.4904 C.ar    
   6 C6            -1.2313    -2.1531    -0.2910 C.ar    
   7 C7            -1.3472    -0.8632    -0.7617 C.ar    
   8 O8             0.5249     1.6164    -2.5551 O.2     
   9 N9            -1.5467     1.7936    -1.7735 N.am    
  10 S10           -1.6833     3.3412    -2.3468 S.o2    
  11 O11           -2.9855     3.7483    -1.9497 O.2     
  12 O12           -0.5265     4.0015    -1.8519 O.2     
  13 C13           -1.5935     3.1655    -4.1500 C.3     
  14 F14           -2.2618    -2.7251     0.3693 F       
  15 F15            1.9351    -0.4284    -2.3094 F       
  16 O16            0.0593    -4.1349    -0.0206 O.3     
  17 C17            1.2623    -4.7568    -0.1405 C.ar    
  18 C18            2.2130    -4.6276     0.8615 C.ar    
  19 C19            3.4351    -5.2594     0.7396 C.ar    
  20 C20            3.7121    -6.0227    -0.3849 C.ar    
  21 C21            2.7617    -6.1520    -1.3869 C.ar    
  22 C22            1.5372    -5.5253    -1.2623 C.ar    
  23 O23            4.9157    -6.6439    -0.5053 O.3     
  24 C24            5.1329    -7.4136    -1.6895 C.3     
  25 C25            6.5317    -8.0321    -1.6464 C.3     
  26 H26            1.9233    -2.8406    -1.3210 H       
  27 H27           -2.2609    -0.3097    -0.6028 H       
  28 H28           -2.2892     1.3834    -1.3030 H       
  29 H29           -2.4098     2.5305    -4.4943 H       
  30 H30           -1.6761     4.1477    -4.6153 H       
  31 H31           -0.6406     2.7127    -4.4239 H       
  32 H32            1.9976    -4.0326     1.7368 H       
  33 H33            4.1752    -5.1588     1.5197 H       
  34 H34            2.9775    -6.7464    -2.2624 H       
  35 H35            0.7954    -5.6300    -2.0402 H       
  36 H36            4.3870    -8.2061    -1.7498 H       
  37 H37            5.0481    -6.7676    -2.5634 H       
  38 H38            7.2777    -7.2396    -1.5861 H       
  39 H39            6.6165    -8.6781    -0.7725 H       
  40 H40            6.6974    -8.6191    -2.5497 H       
@<TRIPOS>BOND
   1    1    2 1
   2    1    8 2
   3    1    9 am
   4    2    3 ar
   5    2    7 ar
   6    3    4 ar
   7    3   15 1
   8    4    5 ar
   9    4   26 1
  10    5    6 ar
  11    5   16 1
  12    6    7 ar
  13    6   14 1
  14    7   27 1
  15    9   10 am
  16    9   28 1
  17   10   11 2
  18   10   12 2
  19   10   13 1
  20   13   29 1
  21   13   30 1
  22   13   31 1
  23   16   17 1
  24   17   18 ar
  25   17   22 ar
  26   18   19 ar
  27   18   32 1
  28   19   20 ar
  29   19   33 1
  30   20   21 ar
  31   20   23 1
  32   21   22 ar
  33   21   34 1
  34   22   35 1
  35   23   24 1
  36   24   25 1
  37   24   36 1
  38   24   37 1
  39   25   38 1
  40   25   39 1
  41   25   40 1

#	End of record

