#	Name: ASD01901158
#	Creating user name:	WinNT
#	Creation time:	15. 06. 2019 19:53

#	Modifying user name:	WinNT
#	Modification time:	15. 06. 2019 19:53

#	Program:	/corina/corina34_cracker 3.40 0067  02.08.2006

@<TRIPOS>MOLECULE
ASD01901158
  52   55    0    0    0
SMALL
NO_CHARGES


@<TRIPOS>ATOM
   1 C1             1.4789     1.3955    -1.2133 C.ar    
   2 C2             1.5065     0.0166    -1.2141 C.ar    
   3 C3             1.3827    -0.6820    -0.0260 C.ar    
   4 C4             1.2305    -0.0040     1.1707 C.ar    
   5 C5             1.2006     1.3747     1.1871 C.ar    
   6 C6             1.3255     2.0871    -0.0087 C.ar    
   7 C7             1.2963     3.5188     0.0004 C.1     
   8 C8             1.2724     4.6925     0.0078 C.1     
   9 C9             1.2433     6.1242     0.0168 C.ar    
  10 C10            1.0897     6.8146     1.2226 C.ar    
  11 C11            1.0621     8.1920     1.2267 C.ar    
  12 C12            1.1863     8.8951     0.0342 C.ar    
  13 C13            1.3387     8.2127    -1.1671 C.ar    
  14 C14            1.3741     6.8355    -1.1796 C.ar    
  15 N15            1.1573    10.2954     0.0429 N.am    
  16 C16            2.3091    10.9805     0.1368 C.2     
  17 N17            2.3608    12.3034    -0.0882 N.am    
  18 C18            1.1843    13.0321    -0.5661 C.3     
  19 C19           -0.0767    12.4376     0.0654 C.3     
  20 C20           -0.0234    10.9344    -0.0483 C.2     
  21 O21            3.3286    10.3889     0.4328 O.2     
  22 O22           -1.0437    10.3020    -0.2181 O.2     
  23 C23            3.6121    13.0278     0.1482 C.3     
  24 C24            1.3063    14.5052    -0.1711 C.3     
  25 C25            1.0951    12.9203    -2.0663 C.ar    
  26 C26            0.0161    13.4651    -2.7370 C.ar    
  27 C27            2.0951    12.2781    -2.7722 C.ar    
  28 C28            2.0133    12.1755    -4.1483 C.ar    
  29 C29            0.9313    12.7149    -4.8185 C.ar    
  30 C30           -0.0657    13.3626    -4.1131 C.ar    
  31 H31            1.5801     1.9395    -2.1407 H       
  32 H32            1.6247    -0.5192    -2.1443 H       
  33 H33            1.4047    -1.7618    -0.0328 H       
  34 H34            1.1344    -0.5559     2.0941 H       
  35 H35            1.0810     1.9025     2.1217 H       
  36 H36            0.9924     6.2690     2.1496 H       
  37 H37            0.9435     8.7262     2.1578 H       
  38 H38            1.4345     8.7629    -2.0914 H       
  39 H39            1.4973     6.3061    -2.1128 H       
  40 H40           -0.1285    12.7253     1.1155 H       
  41 H41           -0.9568    12.8099    -0.4589 H       
  42 H42            4.3742    12.3317     0.4988 H       
  43 H43            3.9439    13.4925    -0.7802 H       
  44 H44            3.4491    13.7980     0.9021 H       
  45 H45            1.3704    14.5863     0.9140 H       
  46 H46            2.2043    14.9287    -0.6208 H       
  47 H47            0.4311    15.0500    -0.5252 H       
  48 H48           -0.7632    13.9704    -2.1859 H       
  49 H49            2.9405    11.8567    -2.2486 H       
  50 H50            2.7950    11.6743    -4.6999 H       
  51 H51            0.8675    12.6351    -5.8936 H       
  52 H52           -0.9089    13.7879    -4.6371 H       
@<TRIPOS>BOND
   1    1    2 ar
   2    1    6 ar
   3    1   31 1
   4    2    3 ar
   5    2   32 1
   6    3    4 ar
   7    3   33 1
   8    4    5 ar
   9    4   34 1
  10    5    6 ar
  11    5   35 1
  12    6    7 1
  13    7    8 3
  14    8    9 1
  15    9   10 ar
  16    9   14 ar
  17   10   11 ar
  18   10   36 1
  19   11   12 ar
  20   11   37 1
  21   12   13 ar
  22   12   15 1
  23   13   14 ar
  24   13   38 1
  25   14   39 1
  26   15   16 am
  27   15   20 am
  28   16   17 am
  29   16   21 2
  30   17   23 1
  31   17   18 1
  32   18   19 1
  33   18   24 1
  34   18   25 1
  35   19   20 1
  36   19   40 1
  37   19   41 1
  38   20   22 2
  39   23   42 1
  40   23   43 1
  41   23   44 1
  42   24   45 1
  43   24   46 1
  44   24   47 1
  45   25   27 ar
  46   25   26 ar
  47   26   30 ar
  48   26   48 1
  49   27   28 ar
  50   27   49 1
  51   28   29 ar
  52   28   50 1
  53   29   30 ar
  54   29   51 1
  55   30   52 1

#	End of record

