#	Name: ASD01030015
#	Creating user name:	WinNT
#	Creation time:	15. 06. 2019 18:58

#	Modifying user name:	WinNT
#	Modification time:	15. 06. 2019 18:58

#	Program:	/corina/corina34_cracker 3.40 0067  02.08.2006

@<TRIPOS>MOLECULE
ASD01030015
  34   34    0    0    0
SMALL
NO_CHARGES


@<TRIPOS>ATOM
   1 C1            -0.0069     1.6555     0.2508 C.3     
   2 C2             0.1262     0.1311     0.2037 C.3     
   3 N3             0.9548    -0.2529    -0.9418 N.am    
   4 C4            -1.2662    -0.4910     0.0597 C.3     
   5 O5            -1.1586    -1.9156     0.0886 O.3     
   6 C6            -2.1465    -0.0199     1.2213 C.3     
   7 C7            -2.1918     1.5104     1.2291 C.3     
   8 O8            -0.8626     2.0244     1.3342 O.3     
   9 C9            -3.0203     1.9902     2.4224 C.3     
  10 O10           -3.1509     3.4123     2.3706 O.3     
  11 O11            1.2827     2.2408     0.4414 O.3     
  12 C12            2.2976    -0.2691    -0.8268 C.2     
  13 O13            2.8199     0.0342     0.2249 O.2     
  14 C14            3.1500    -0.6640    -2.0051 C.3     
  15 S15           -2.3861    -1.6252     3.0903 S.o2    
  16 O16           -1.8110    -1.8456     4.3709 O.2     
  17 O17           -3.7603    -1.3187     2.8978 O.2     
  18 O18           -1.5990    -0.4877     2.4556 O.3     
  19 O19           -2.1066    -2.8779     2.2723 O.3     
  20 H20           -0.4330     2.0123    -0.6869 H       
  21 H21            0.5907    -0.2226     1.1242 H       
  22 H22            0.5371    -0.4954    -1.7829 H       
  23 H23           -1.7094    -0.1779    -0.8857 H       
  24 H24           -0.6083    -2.2829    -0.6166 H       
  25 H25           -3.1553    -0.4135     1.0968 H       
  26 H26           -2.6467     1.8652     0.3043 H       
  27 H27           -4.0091     1.5330     2.3856 H       
  28 H28           -2.5222     1.7046     3.3490 H       
  29 H29           -3.6657     3.7868     3.0985 H       
  30 H30            1.2742     3.2069     0.4810 H       
  31 H31            2.5089    -0.9005    -2.8544 H       
  32 H32            3.8114     0.1615    -2.2680 H       
  33 H33            3.7462    -1.5388    -1.7453 H       
  34 H34           -2.5629    -3.6675     2.5937 H       
@<TRIPOS>BOND
   1    1    2 1
   2    1   11 1
   3    1    8 1
   4    1   20 1
   5    2    3 1
   6    2    4 1
   7    2   21 1
   8    3   12 am
   9    3   22 1
  10    4    5 1
  11    4    6 1
  12    4   23 1
  13    5   24 1
  14    6    7 1
  15    6   18 1
  16    6   25 1
  17    7    8 1
  18    7    9 1
  19    7   26 1
  20    9   10 1
  21    9   27 1
  22    9   28 1
  23   10   29 1
  24   11   30 1
  25   12   13 2
  26   12   14 1
  27   14   31 1
  28   14   32 1
  29   14   33 1
  30   15   16 2
  31   15   17 2
  32   15   18 1
  33   15   19 1
  34   19   34 1

#	End of record

