#	Name: ASD01910615
#	Creating user name:	WinNT
#	Creation time:	15. 06. 2019 19:56

#	Modifying user name:	WinNT
#	Modification time:	15. 06. 2019 19:56

#	Program:	/corina/corina34_cracker 3.40 0067  02.08.2006

@<TRIPOS>MOLECULE
ASD01910615
  44   47    0    0    0
SMALL
NO_CHARGES


@<TRIPOS>ATOM
   1 C1             0.0268     1.3023    -0.0557 C.ar    
   2 C2             0.0597    -0.0809    -0.0645 C.ar    
   3 C3             1.2706    -0.7502    -0.0703 C.ar    
   4 C4             2.4540    -0.0412    -0.0672 C.ar    
   5 C5             2.4279     1.3543    -0.0588 C.ar    
   6 C6             1.2029     2.0233    -0.0530 C.ar    
   7 C7             3.6921     2.1203    -0.0550 C.2     
   8 N8             3.8178     3.4355    -0.0471 N.2     
   9 C9             5.1391     3.6706    -0.0461 C.2     
  10 N10            5.7438     2.5194    -0.0531 N.2     
  11 O11            4.9354     1.6153    -0.0529 O.3     
  12 C12            5.8021     5.0239    -0.0389 C.3     
  13 C13            6.6748     5.1585     1.2111 C.3     
  14 C14            7.3227     6.5447     1.2361 C.3     
  15 C15            8.2163     6.7087     0.0026 C.3     
  16 N16            7.4167     6.4379    -1.1999 N.am    
  17 C17            6.6785     5.1705    -1.2868 C.3     
  18 C18            7.3615     7.3350    -2.2042 C.2     
  19 C19            8.0319     8.6421    -2.0637 C.ar    
  20 O20            6.7595     7.0673    -3.2261 O.2     
  21 C21            9.3913     8.7029    -1.7482 C.ar    
  22 C22           10.0124     9.9260    -1.6185 C.ar    
  23 C23            9.2915    11.0971    -1.8004 C.ar    
  24 C24            7.9430    11.0460    -2.1135 C.ar    
  25 C25            7.3096     9.8260    -2.2515 C.ar    
  26 F26            9.9072    12.2927    -1.6713 F       
  27 F27            5.9946     9.7760    -2.5573 F       
  28 H28           -0.9218     1.8187    -0.0554 H       
  29 H29           -0.8640    -0.6406    -0.0666 H       
  30 H30            1.2894    -1.8300    -0.0768 H       
  31 H31            3.3986    -0.5649    -0.0710 H       
  32 H32            1.1759     3.1029    -0.0468 H       
  33 H33            5.0395     5.8026    -0.0357 H       
  34 H34            6.0578     5.0300     2.1004 H       
  35 H35            7.4522     4.3946     1.1953 H       
  36 H36            6.5461     7.3095     1.2269 H       
  37 H37            7.9255     6.6484     2.1383 H       
  38 H38            8.6017     7.7275    -0.0366 H       
  39 H39            9.0460     6.0038     0.0561 H       
  40 H40            7.3827     4.3402    -1.3384 H       
  41 H41            6.0492     5.1745    -2.1768 H       
  42 H42            9.9547     7.7926    -1.6057 H       
  43 H43           11.0633     9.9730    -1.3743 H       
  44 H44            7.3868    11.9611    -2.2536 H       
@<TRIPOS>BOND
   1    1    2 ar
   2    1    6 ar
   3    1   28 1
   4    2    3 ar
   5    2   29 1
   6    3    4 ar
   7    3   30 1
   8    4    5 ar
   9    4   31 1
  10    5    6 ar
  11    5    7 1
  12    6   32 1
  13    7    8 2
  14    7   11 1
  15    8    9 1
  16    9   10 2
  17    9   12 1
  18   10   11 1
  19   12   13 1
  20   12   17 1
  21   12   33 1
  22   13   14 1
  23   13   34 1
  24   13   35 1
  25   14   15 1
  26   14   36 1
  27   14   37 1
  28   15   16 1
  29   15   38 1
  30   15   39 1
  31   16   17 1
  32   16   18 am
  33   17   40 1
  34   17   41 1
  35   18   19 1
  36   18   20 2
  37   19   21 ar
  38   19   25 ar
  39   21   22 ar
  40   21   42 1
  41   22   23 ar
  42   22   43 1
  43   23   24 ar
  44   23   26 1
  45   24   25 ar
  46   24   44 1
  47   25   27 1

#	End of record

