#	Name: ASD09116039
#	Creating user name:	WinNT
#	Creation time:	15. 06. 2019 21:20

#	Modifying user name:	WinNT
#	Modification time:	15. 06. 2019 21:20

#	Program:	/corina/corina34_cracker 3.40 0067  02.08.2006

@<TRIPOS>MOLECULE
ASD09116039
  33   35    0    0    0
SMALL
NO_CHARGES


@<TRIPOS>ATOM
   1 C1            -0.0168     1.3899     0.0097 C.ar    
   2 C2             0.0021    -0.0041     0.0020 C.ar    
   3 C3            -1.3056    -0.7735    -0.0476 C.3     
   4 C4            -2.0436    -0.6170     1.2771 C.3     
   5 C5            -2.9187     0.6314     1.2841 C.3     
   6 C6            -2.1354     1.9165     1.3313 C.3     
   7 C7            -1.3145     2.0829     0.0730 C.2     
   8 C8             1.1815     2.1049     0.0021 C.ar    
   9 C9             2.3796     1.4182     0.0104 C.ar    
  10 C10            2.3907     0.0346     0.0259 C.ar    
  11 C11            1.2023    -0.6783     0.0223 C.ar    
  12 C12           -3.0335     3.1298     1.5387 C.3     
  13 C13           -3.6530     3.5483     0.2316 C.2     
  14 N14           -3.0088     3.3937    -0.8890 N.2     
  15 N15           -1.7540     2.7806    -0.9266 N.2     
  16 N16           -4.9062     4.0973     0.2217 N.pl3   
  17 N17           -5.4751     4.4795    -0.9599 N.3     
  18 H18           -1.9248    -0.3847    -0.8560 H       
  19 H19           -1.0989    -1.8289    -0.2252 H       
  20 H20           -2.6712    -1.4930     1.4411 H       
  21 H21           -1.3150    -0.5459     2.0847 H       
  22 H22           -3.5341     0.6309     0.3844 H       
  23 H23           -3.5761     0.5916     2.1527 H       
  24 H24           -1.4508     1.8656     2.1779 H       
  25 H25            1.1721     3.1848    -0.0105 H       
  26 H26            3.3119     1.9634     0.0044 H       
  27 H27            3.3326    -0.4936     0.0409 H       
  28 H28            1.2176    -1.7581     0.0350 H       
  29 H29           -3.8221     2.8783     2.2479 H       
  30 H30           -2.4414     3.9534     1.9378 H       
  31 H31           -5.3907     4.2152     1.0537 H       
  32 H32           -5.5071     3.7097    -1.6115 H       
  33 H33           -6.3954     4.8649    -0.8102 H       
@<TRIPOS>BOND
   1    1    2 ar
   2    1    8 ar
   3    1    7 1
   4    2    3 1
   5    2   11 ar
   6    3    4 1
   7    3   18 1
   8    3   19 1
   9    4    5 1
  10    4   20 1
  11    4   21 1
  12    5    6 1
  13    5   22 1
  14    5   23 1
  15    6    7 1
  16    6   12 1
  17    6   24 1
  18    7   15 2
  19    8    9 ar
  20    8   25 1
  21    9   10 ar
  22    9   26 1
  23   10   11 ar
  24   10   27 1
  25   11   28 1
  26   12   13 1
  27   12   29 1
  28   12   30 1
  29   13   14 2
  30   13   16 1
  31   14   15 1
  32   16   17 1
  33   16   31 1
  34   17   32 1
  35   17   33 1

#	End of record

