#	Name: ASD03091654
#	Creating user name:	WinNT
#	Creation time:	15. 06. 2019 20:31

#	Modifying user name:	WinNT
#	Modification time:	15. 06. 2019 20:31

#	Program:	/corina/corina34_cracker 3.40 0067  02.08.2006

@<TRIPOS>MOLECULE
ASD03091654
  50   53    0    0    0
SMALL
NO_CHARGES


@<TRIPOS>ATOM
   1 C1            -0.0170     1.3994     0.0097 C.ar    
   2 C2            -1.2293     2.0682     0.0306 C.ar    
   3 C3            -2.4101     1.3484     0.0435 C.ar    
   4 C4            -2.3918    -0.0369     0.0355 C.ar    
   5 C5            -1.1919    -0.7186     0.0148 C.ar    
   6 C6             0.0021    -0.0041     0.0020 C.ar    
   7 O7             1.1632     2.0664     0.0020 O.3     
   8 C8             2.2622     1.4580     0.6804 C.3     
   9 N9             2.4082     0.0564     0.2863 N.am    
  10 C10            1.3144    -0.6822    -0.0142 C.2     
  11 C11           -3.6891    -0.8036     0.0501 C.3     
  12 C12           -4.2050    -0.9447    -1.3588 C.ar    
  13 C13           -5.0415     0.0143    -1.8944 C.ar    
  14 C14           -3.8394    -2.0375    -2.1333 C.ar    
  15 C15           -4.3352    -2.1291    -3.4216 C.ar    
  16 C16           -5.1783    -1.1290    -3.8947 C.ar    
  17 N17           -5.4992    -0.0990    -3.1267 N.ar    
  18 O18            1.4088    -1.8632    -0.2876 O.2     
  19 C19            3.7407    -0.5486     0.2168 C.3     
  20 C20            4.0030    -1.0467    -1.2078 C.3     
  21 O21            4.0071     0.0625    -2.1088 O.3     
  22 N22           -5.6833    -1.2082    -5.1873 N.pl3   
  23 Cl23          -1.2667     3.8038     0.0412 Cl      
  24 C24           -3.7287     2.0776     0.0669 C.3     
  25 C25            3.8162    -1.7322     1.1849 C.3     
  26 O26            5.0970    -2.3561     1.0732 O.3     
  27 C27            5.3781    -2.8832    -0.2250 C.3     
  28 C28            5.3653    -1.7459    -1.2497 C.3     
  29 H29           -1.1798    -1.7985     0.0090 H       
  30 H30            3.1775     1.9965     0.4345 H       
  31 H31            2.0937     1.5120     1.7559 H       
  32 H32           -3.5218    -1.7927     0.4765 H       
  33 H33           -4.4215    -0.2670     0.6532 H       
  34 H34           -5.3251     0.8680    -1.2969 H       
  35 H35           -3.1825    -2.7987    -1.7390 H       
  36 H36           -4.0709    -2.9656    -4.0516 H       
  37 H37            4.4920     0.1928     0.4886 H       
  38 H38            3.2219    -1.7494    -1.4980 H       
  39 H39            4.1746    -0.1797    -3.0299 H       
  40 H40           -5.4474    -1.9585    -5.7551 H       
  41 H41           -6.2716    -0.5132    -5.5216 H       
  42 H42           -4.0615     2.2594    -0.9550 H       
  43 H43           -4.4699     1.4715     0.5879 H       
  44 H44           -3.6086     3.0292     0.5846 H       
  45 H45            3.6727    -1.3769     2.2053 H       
  46 H46            3.0376    -2.4539     0.9381 H       
  47 H47            6.3597    -3.3571    -0.2202 H       
  48 H48            4.6199    -3.6200    -0.4902 H       
  49 H49            5.5358    -2.1520    -2.2467 H       
  50 H50            6.1502    -1.0291    -1.0082 H       
@<TRIPOS>BOND
   1    1    6 ar
   2    1    7 1
   3    1    2 ar
   4    2    3 ar
   5    2   23 1
   6    3    4 ar
   7    3   24 1
   8    4    5 ar
   9    4   11 1
  10    5    6 ar
  11    5   29 1
  12    6   10 1
  13    7    8 1
  14    8    9 1
  15    8   30 1
  16    8   31 1
  17    9   10 am
  18    9   19 1
  19   10   18 2
  20   11   12 1
  21   11   32 1
  22   11   33 1
  23   12   14 ar
  24   12   13 ar
  25   13   17 ar
  26   13   34 1
  27   14   15 ar
  28   14   35 1
  29   15   16 ar
  30   15   36 1
  31   16   22 1
  32   16   17 ar
  33   19   25 1
  34   19   20 1
  35   19   37 1
  36   20   21 1
  37   20   28 1
  38   20   38 1
  39   21   39 1
  40   22   40 1
  41   22   41 1
  42   24   42 1
  43   24   43 1
  44   24   44 1
  45   25   26 1
  46   25   45 1
  47   25   46 1
  48   26   27 1
  49   27   28 1
  50   27   47 1
  51   27   48 1
  52   28   49 1
  53   28   50 1

#	End of record

