#	Name: ASD00170293
#	Creating user name:	WinNT
#	Creation time:	15. 06. 2019 18:31

#	Modifying user name:	WinNT
#	Modification time:	15. 06. 2019 18:31

#	Program:	/corina/corina34_cracker 3.40 0067  02.08.2006

@<TRIPOS>MOLECULE
ASD00170293
  30   32    0    0    0
SMALL
NO_CHARGES


@<TRIPOS>ATOM
   1 C1            -0.1325     1.2952    -0.1123 C.2     
   2 C2            -0.0354    -0.0657     0.0022 C.2     
   3 C3            -1.3213    -0.7222     0.1580 C.2     
   4 C4            -2.3398     0.1445     0.1575 C.2     
   5 S5            -1.7588     1.7912    -0.0274 S.3     
   6 C6             1.2398    -0.7883    -0.0293 C.2     
   7 C7             1.7833    -1.2614    -1.3068 C.2     
   8 O8             1.8486    -0.9959     1.0065 O.2     
   9 N9             0.9424     2.1492    -0.2692 N.pl3   
  10 S10            1.0099    -1.0766    -2.8750 S.3     
  11 C11            2.2995    -1.8741    -3.6574 C.2     
  12 C12            3.2378    -2.2454    -2.7767 C.2     
  13 C13            2.9746    -1.9112    -1.4694 C.2     
  14 Br14           2.3914    -2.1917    -5.5193 Br      
  15 C15           -1.4977    -2.2252     0.3051 C.3     
  16 C16           -2.8943    -2.5050     0.8646 C.3     
  17 C17           -3.9318    -1.7494     0.0287 C.3     
  18 C18           -3.7973    -0.2491     0.3038 C.3     
  19 H19            1.8474     1.8026    -0.2276 H       
  20 H20            0.7919     3.0954    -0.4210 H       
  21 H21            4.1368    -2.7658    -3.0723 H       
  22 H22            3.6395    -2.1456    -0.6513 H       
  23 H23           -1.3921    -2.7025    -0.6691 H       
  24 H24           -0.7449    -2.6162     0.9894 H       
  25 H25           -3.0979    -3.5748     0.8176 H       
  26 H26           -2.9460    -2.1686     1.9001 H       
  27 H27           -3.7585    -1.9433    -1.0298 H       
  28 H28           -4.9330    -2.0820     0.3026 H       
  29 H29           -4.1352    -0.0316     1.3170 H       
  30 H30           -4.4000     0.3093    -0.4125 H       
@<TRIPOS>BOND
   1    1    2 2
   2    1    9 1
   3    1    5 1
   4    2    3 1
   5    2    6 1
   6    3    4 2
   7    3   15 1
   8    4    5 1
   9    4   18 1
  10    6    7 1
  11    6    8 2
  12    7   10 1
  13    7   13 2
  14    9   19 1
  15    9   20 1
  16   10   11 1
  17   11   12 2
  18   11   14 1
  19   12   13 1
  20   12   21 1
  21   13   22 1
  22   15   16 1
  23   15   23 1
  24   15   24 1
  25   16   17 1
  26   16   25 1
  27   16   26 1
  28   17   18 1
  29   17   27 1
  30   17   28 1
  31   18   29 1
  32   18   30 1

#	End of record

