#	Name: ASD07730030
#	Creating user name:	WinNT
#	Creation time:	15. 06. 2019 21:11

#	Modifying user name:	WinNT
#	Modification time:	15. 06. 2019 21:11

#	Program:	/corina/corina34_cracker 3.40 0067  02.08.2006

@<TRIPOS>MOLECULE
ASD07730030
  18   19    0    0    0
SMALL
NO_CHARGES


@<TRIPOS>ATOM
   1 C1            -0.0156     1.2969     0.0092 C.2     
   2 N2             0.0021    -0.0041     0.0020 N.2     
   3 C3             1.2869    -0.4431    -0.0126 C.ar    
   4 C4             2.1089     0.6968    -0.0143 C.ar    
   5 N5             1.2554     1.7819    -0.0004 N.pl3   
   6 C6             1.8715    -1.7119    -0.0257 C.ar    
   7 C7             3.2323    -1.8344    -0.0400 C.ar    
   8 C8             4.0442    -0.7094    -0.0417 C.ar    
   9 C9             3.4892     0.5529    -0.0287 C.ar    
  10 C10           -1.2624     2.1432     0.0199 C.3     
  11 F11           -2.3620     1.3492     0.3630 F       
  12 F12           -1.1196     3.1721     0.9571 F       
  13 F13           -1.4631     2.6940    -1.2503 F       
  14 H14            1.5140     2.7168     0.0017 H       
  15 H15            1.2490    -2.5944    -0.0241 H       
  16 H16            3.6805    -2.8170    -0.0497 H       
  17 H17            5.1181    -0.8230    -0.0531 H       
  18 H18            4.1257     1.4254    -0.0301 H       
@<TRIPOS>BOND
   1    1    2 2
   2    1    5 1
   3    1   10 1
   4    2    3 1
   5    3    4 ar
   6    3    6 ar
   7    4    5 1
   8    4    9 ar
   9    5   14 1
  10    6    7 ar
  11    6   15 1
  12    7    8 ar
  13    7   16 1
  14    8    9 ar
  15    8   17 1
  16    9   18 1
  17   10   11 1
  18   10   12 1
  19   10   13 1

#	End of record

