#	Name: ASD04590074
#	Creating user name:	WinNT
#	Creation time:	15. 06. 2019 20:50

#	Modifying user name:	WinNT
#	Modification time:	15. 06. 2019 20:50

#	Program:	/corina/corina34_cracker 3.40 0067  02.08.2006

@<TRIPOS>MOLECULE
ASD04590074
  37   38    0    0    0
SMALL
NO_CHARGES


@<TRIPOS>ATOM
   1 C1            -0.0179     1.4698     0.0101 C.2     
   2 C2             0.0021    -0.0041     0.0020 C.ar    
   3 C3             1.2235    -0.6928    -0.0133 C.ar    
   4 C4             1.2301    -2.0794    -0.0209 C.ar    
   5 C5             0.0386    -2.7775    -0.0138 C.ar    
   6 C6            -1.1701    -2.1010     0.0014 C.ar    
   7 C7            -1.1958    -0.7233     0.0154 C.ar    
   8 O8             1.0260     2.0916     0.0035 O.2     
   9 O9            -1.1939     2.1276     0.0193 O.3     
  10 O10            2.3931    -0.0059    -0.0212 O.3     
  11 C11            3.5972    -0.7751    -0.0368 C.3     
  12 C12            4.8036     0.1659    -0.0438 C.3     
  13 N13            4.8419     0.9222     1.2150 N.3     
  14 C14            6.1110     1.6606     1.3494 C.3     
  15 C15            5.7555     3.1505     1.5368 C.3     
  16 C16            4.2983     3.0982     2.0665 C.3     
  17 C17            3.7252     1.8885     1.2867 C.3     
  18 C18           -1.1376     3.5785     0.0269 C.3     
  19 H19            2.1683    -2.6142    -0.0327 H       
  20 H20            0.0492    -3.8574    -0.0204 H       
  21 H21           -2.0966    -2.6560     0.0065 H       
  22 H22           -2.1405    -0.2001     0.0321 H       
  23 H23            3.6354    -1.4083     0.8496 H       
  24 H24            3.6181    -1.3992    -0.9302 H       
  25 H25            5.7188    -0.4173    -0.1452 H       
  26 H26            4.7194     0.8584    -0.8813 H       
  27 H27            6.6605     1.2983     2.2182 H       
  28 H28            6.7114     1.5331     0.4486 H       
  29 H29            6.4154     3.6149     2.2696 H       
  30 H30            5.8010     3.6802     0.5853 H       
  31 H31            4.2796     2.9145     3.1407 H       
  32 H32            3.7598     4.0129     1.8189 H       
  33 H33            3.4214     2.1923     0.2849 H       
  34 H34            2.8822     1.4551     1.8248 H       
  35 H35           -2.1504     3.9814     0.0339 H       
  36 H36           -0.6058     3.9168     0.9162 H       
  37 H37           -0.6143     3.9265    -0.8637 H       
@<TRIPOS>BOND
   1    1    2 1
   2    1    8 2
   3    1    9 1
   4    2    3 ar
   5    2    7 ar
   6    3    4 ar
   7    3   10 1
   8    4    5 ar
   9    4   19 1
  10    5    6 ar
  11    5   20 1
  12    6    7 ar
  13    6   21 1
  14    7   22 1
  15    9   18 1
  16   10   11 1
  17   11   12 1
  18   11   23 1
  19   11   24 1
  20   12   13 1
  21   12   25 1
  22   12   26 1
  23   13   14 1
  24   13   17 1
  25   14   15 1
  26   14   27 1
  27   14   28 1
  28   15   16 1
  29   15   29 1
  30   15   30 1
  31   16   17 1
  32   16   31 1
  33   16   32 1
  34   17   33 1
  35   17   34 1
  36   18   35 1
  37   18   36 1
  38   18   37 1

#	End of record

