#	Name: ASD01200334
#	Creating user name:	WinNT
#	Creation time:	15. 06. 2019 19:09

#	Modifying user name:	WinNT
#	Modification time:	15. 06. 2019 19:09

#	Program:	/corina/corina34_cracker 3.40 0067  02.08.2006

@<TRIPOS>MOLECULE
ASD01200334
  52   55    0    0    0
SMALL
NO_CHARGES


@<TRIPOS>ATOM
   1 C1            -2.0104    -3.8832    -0.0699 C.ar    
   2 C2            -1.2422    -4.9270     0.4746 C.ar    
   3 C3             0.1383    -4.9863     0.2421 C.ar    
   4 C4             0.7438    -4.0143    -0.5251 C.ar    
   5 C5            -0.0196    -2.9725    -1.0687 C.ar    
   6 C6            -1.3925    -2.9104    -0.8397 C.ar    
   7 O7            -3.2888    -4.0865     0.3104 O.3     
   8 C8            -3.3934    -5.1936     1.0645 C.2     
   9 C9            -2.1883    -5.7636     1.2182 C.2     
  10 C10           -4.6767    -5.7158     1.6573 C.3     
  11 C11            0.6348    -1.9344    -1.8885 C.2     
  12 O12            0.8767    -5.9967     0.7709 O.3     
  13 O13           -0.0239    -1.0288    -2.3620 O.2     
  14 N14            1.9627    -1.9902    -2.1124 N.am    
  15 C15            2.2112    -6.0069     0.5248 C.ar    
  16 C16            3.0756    -5.1770     1.2386 C.ar    
  17 N17            4.3672    -5.2150     0.9717 N.ar    
  18 C18            4.8449    -6.0277     0.0398 C.ar    
  19 N19            4.0543    -6.8303    -0.6586 N.ar    
  20 C20            2.7526    -6.8517    -0.4441 C.ar    
  21 C21            6.3031    -6.0388    -0.2291 C.2     
  22 N22            6.7540    -6.1175    -1.4968 N.am    
  23 O23            7.0914    -5.9770     0.6934 O.2     
  24 C24            8.1834    -5.9607    -1.7769 C.3     
  25 C25            5.8147    -6.3597    -2.5947 C.3     
  26 C26            2.5632    -1.0736    -2.9725 C.ar    
  27 N27            1.8532    -0.0760    -3.4819 N.ar    
  28 C28            2.4264     0.7921    -4.2979 C.ar    
  29 C29            3.7638     0.6610    -4.6209 C.ar    
  30 N30            4.4756    -0.3323    -4.1151 N.ar    
  31 C31            3.9121    -1.1990    -3.2952 C.ar    
  32 C32            4.4127     1.6523    -5.5522 C.3     
  33 H33            1.8075    -4.0555    -0.7072 H       
  34 H34           -1.9749    -2.1049    -1.2621 H       
  35 H35           -1.9622    -6.6625     1.7724 H       
  36 H36           -5.4998    -5.0578     1.3786 H       
  37 H37           -4.8698    -6.7196     1.2787 H       
  38 H38           -4.5888    -5.7478     2.7432 H       
  39 H39            2.5002    -2.6687    -1.6746 H       
  40 H40            2.6930    -4.5123     1.9989 H       
  41 H41            2.1146    -7.5115    -1.0134 H       
  42 H42            8.6705    -6.9350    -1.7363 H       
  43 H43            8.3140    -5.5303    -2.7697 H       
  44 H44            8.6291    -5.3004    -1.0330 H       
  45 H45            4.8706    -5.8581    -2.3824 H       
  46 H46            6.2325    -5.9700    -3.5229 H       
  47 H47            5.6422    -7.4312    -2.6955 H       
  48 H48            1.8486     1.6047    -4.7130 H       
  49 H49            4.4949    -2.0072    -2.8786 H       
  50 H50            4.8208     2.4811    -4.9736 H       
  51 H51            5.2164     1.1623    -6.1018 H       
  52 H52            3.6701     2.0307    -6.2548 H       
@<TRIPOS>BOND
   1    1    2 ar
   2    1    6 ar
   3    1    7 1
   4    2    3 ar
   5    2    9 1
   6    3    4 ar
   7    3   12 1
   8    4    5 ar
   9    4   33 1
  10    5    6 ar
  11    5   11 1
  12    6   34 1
  13    7    8 1
  14    8    9 2
  15    8   10 1
  16    9   35 1
  17   10   36 1
  18   10   37 1
  19   10   38 1
  20   11   13 2
  21   11   14 am
  22   12   15 1
  23   14   26 1
  24   14   39 1
  25   15   16 ar
  26   15   20 ar
  27   16   17 ar
  28   16   40 1
  29   17   18 ar
  30   18   19 ar
  31   18   21 1
  32   19   20 ar
  33   20   41 1
  34   21   22 am
  35   21   23 2
  36   22   24 1
  37   22   25 1
  38   24   42 1
  39   24   43 1
  40   24   44 1
  41   25   45 1
  42   25   46 1
  43   25   47 1
  44   26   27 ar
  45   26   31 ar
  46   27   28 ar
  47   28   29 ar
  48   28   48 1
  49   29   30 ar
  50   29   32 1
  51   30   31 ar
  52   31   49 1
  53   32   50 1
  54   32   51 1
  55   32   52 1

#	End of record

