#	Name: ASD04590565
#	Creating user name:	WinNT
#	Creation time:	15. 06. 2019 20:51

#	Modifying user name:	WinNT
#	Modification time:	15. 06. 2019 20:51

#	Program:	/corina/corina34_cracker 3.40 0067  02.08.2006

@<TRIPOS>MOLECULE
ASD04590565
  52   57    0    0    0
SMALL
NO_CHARGES


@<TRIPOS>ATOM
   1 N1             2.2756     1.4479    -0.0337 N.ar    
   2 C2             2.4033     0.1287    -0.0496 C.ar    
   3 C3             1.2882    -0.6784    -0.0313 C.ar    
   4 C4             0.0243    -0.0953    -0.0031 C.ar    
   5 C5            -0.0734     1.2828     0.0100 C.ar    
   6 C6             1.0942     2.0390    -0.0050 C.ar    
   7 C7             3.7943    -0.4527    -0.0948 C.3     
   8 C8             3.7582    -1.9255     0.3131 C.3     
   9 N9             2.7196    -2.6054    -0.4771 N.3     
  10 C10            1.3873    -2.1803    -0.0354 C.3     
  11 N11            1.0173     3.4288     0.0107 N.pl3   
  12 C12            2.1738     4.1856     0.1078 C.ar    
  13 N13            2.0850     5.5022     0.0129 N.ar    
  14 C14            3.1725     6.2623     0.1011 C.ar    
  15 C15            4.4180     5.6324     0.2975 C.ar    
  16 C16            4.4616     4.2450     0.3912 C.ar    
  17 N17            3.3308     3.5647     0.2980 N.ar    
  18 N18            3.3770     7.6185     0.0406 N.pl3   
  19 C19            4.7213     7.9120     0.1907 C.ar    
  20 C20            5.4211     6.7033     0.3554 C.ar    
  21 C21            5.4399     9.1004     0.2053 C.ar    
  22 N22            6.7471     9.0912     0.3696 N.ar    
  23 C23            7.4340     7.9735     0.5269 C.ar    
  24 C24            6.8042     6.7470     0.5267 C.ar    
  25 C25            2.3210     8.6147    -0.1561 C.3     
  26 C26            1.6043     8.3659    -1.4948 C.3     
  27 C27            0.1253     8.0859    -1.1575 C.3     
  28 C28           -0.0847     8.7621     0.2201 C.3     
  29 C29            1.2525     8.4773     0.9480 C.3     
  30 H30           -0.8641    -0.7093     0.0079 H       
  31 H31           -1.0396     1.7648     0.0312 H       
  32 H32            4.1895    -0.3672    -1.1071 H       
  33 H33            4.4388     0.0971     0.5911 H       
  34 H34            4.7272    -2.3839     0.1155 H       
  35 H35            3.5220    -2.0057     1.3742 H       
  36 H36            2.8454    -2.4338    -1.4634 H       
  37 H37            1.2045    -2.5561     0.9713 H       
  38 H38            0.6362    -2.5891    -0.7113 H       
  39 H39            0.1540     3.8675    -0.0463 H       
  40 H40            5.4007     3.7331     0.5413 H       
  41 H41            4.9227    10.0403     0.0806 H       
  42 H42            8.5050     8.0214     0.6576 H       
  43 H43            7.3717     5.8371     0.6554 H       
  44 H44            2.7472     9.6179    -0.1416 H       
  45 H45            1.6819     9.2486    -2.1296 H       
  46 H46            2.0421     7.5038    -1.9982 H       
  47 H47           -0.5282     8.5340    -1.9060 H       
  48 H48           -0.0534     7.0130    -1.0870 H       
  49 H49           -0.2406     9.8346     0.1042 H       
  50 H50           -0.9190     8.3046     0.7519 H       
  51 H51            1.2559     7.4676     1.3586 H       
  52 H52            1.4217     9.2111     1.7361 H       
@<TRIPOS>BOND
   1    1    2 ar
   2    1    6 ar
   3    2    3 ar
   4    2    7 1
   5    3    4 ar
   6    3   10 1
   7    4    5 ar
   8    4   30 1
   9    5    6 ar
  10    5   31 1
  11    6   11 1
  12    7    8 1
  13    7   32 1
  14    7   33 1
  15    8    9 1
  16    8   34 1
  17    8   35 1
  18    9   10 1
  19    9   36 1
  20   10   37 1
  21   10   38 1
  22   11   12 1
  23   11   39 1
  24   12   13 ar
  25   12   17 ar
  26   13   14 ar
  27   14   15 ar
  28   14   18 1
  29   15   16 ar
  30   15   20 1
  31   16   17 ar
  32   16   40 1
  33   18   19 1
  34   18   25 1
  35   19   20 ar
  36   19   21 ar
  37   20   24 ar
  38   21   22 ar
  39   21   41 1
  40   22   23 ar
  41   23   24 ar
  42   23   42 1
  43   24   43 1
  44   25   26 1
  45   25   29 1
  46   25   44 1
  47   26   27 1
  48   26   45 1
  49   26   46 1
  50   27   28 1
  51   27   47 1
  52   27   48 1
  53   28   29 1
  54   28   49 1
  55   28   50 1
  56   29   51 1
  57   29   52 1

#	End of record

