#	Name: ASD00431406
#	Creating user name:	WinNT
#	Creation time:	15. 06. 2019 18:35

#	Modifying user name:	WinNT
#	Modification time:	15. 06. 2019 18:35

#	Program:	/corina/corina34_cracker 3.40 0067  02.08.2006

@<TRIPOS>MOLECULE
ASD00431406
  21   21    0    0    0
SMALL
NO_CHARGES


@<TRIPOS>ATOM
   1 C1            -0.0168     1.3849     0.0097 C.ar    
   2 C2             0.0021    -0.0041     0.0020 C.ar    
   3 C3             1.2198    -0.6610    -0.0132 C.ar    
   4 C4             2.3824     0.0992    -0.0202 C.ar    
   5 C5             2.2882     1.4772    -0.0119 C.ar    
   6 N6             1.1116     2.0745     0.0026 N.ar    
   7 O7            -1.2047     2.0406     0.0188 O.3     
   8 C8            -1.1574     3.4688     0.0264 C.3     
   9 C9            -1.1473     3.9863    -1.4134 C.3     
  10 C10           -2.3857     4.0159     0.7564 C.3     
  11 Br11           4.0752    -0.7432    -0.0404 Br      
  12 H12           -0.9215    -0.5638     0.0082 H       
  13 H13            1.2654    -1.7400    -0.0191 H       
  14 H14            3.1888     2.0733    -0.0174 H       
  15 H15           -0.2535     3.7997     0.5377 H       
  16 H16           -2.0513     3.6554    -1.9248 H       
  17 H17           -1.1113     5.0757    -1.4076 H       
  18 H18           -0.2723     3.5966    -1.9335 H       
  19 H19           -2.3928     3.6472     1.7821 H       
  20 H20           -2.3496     5.1053     0.7622 H       
  21 H21           -3.2896     3.6850     0.2451 H       
@<TRIPOS>BOND
   1    1    2 ar
   2    1    6 ar
   3    1    7 1
   4    2    3 ar
   5    2   12 1
   6    3    4 ar
   7    3   13 1
   8    4    5 ar
   9    4   11 1
  10    5    6 ar
  11    5   14 1
  12    7    8 1
  13    8    9 1
  14    8   10 1
  15    8   15 1
  16    9   16 1
  17    9   17 1
  18    9   18 1
  19   10   19 1
  20   10   20 1
  21   10   21 1

#	End of record

