#	Name: ASD02030792
#	Creating user name:	WinNT
#	Creation time:	15. 06. 2019 20:16

#	Modifying user name:	WinNT
#	Modification time:	15. 06. 2019 20:16

#	Program:	/corina/corina34_cracker 3.40 0067  02.08.2006

@<TRIPOS>MOLECULE
ASD02030792
  81   84    0    0    0
SMALL
NO_CHARGES


@<TRIPOS>ATOM
   1 H1            -0.8242     1.0984    -1.0321 H       
   2 C2            -0.5910     2.1631    -1.0364 C.3     
   3 C3            -0.7103     2.7328    -2.4719 C.3     
   4 C4             0.7162     3.1906    -2.8815 C.3     
   5 C5             1.6205     2.3360    -1.9865 C.3     
   6 H6             1.6644     1.3126    -2.3592 H       
   7 C7             3.0155     2.8830    -1.7431 C.3     
   8 H8             2.9586     3.8864    -1.3210 H       
   9 C9             3.8017     2.8846    -3.0588 C.3     
  10 H10            3.3597     3.6059    -3.7463 H       
  11 C11            3.7556     1.4887    -3.6834 C.3     
  12 C12            5.2272     3.2644    -2.7821 C.2     
  13 C13            5.8046     3.0616    -1.6343 C.2     
  14 C14            7.2570     3.4794    -1.4763 C.3     
  15 C15            8.0444     2.2897    -0.9195 C.3     
  16 O16            9.3904     2.6907    -0.6560 O.3     
  17 C17            8.0422     1.1526    -1.9433 C.3     
  18 C18            8.7205    -0.0787    -1.3394 C.3     
  19 C19            7.3923     1.8088     0.3779 C.3     
  20 C20            5.9829     1.2908     0.0846 C.3     
  21 C21            5.1220     2.4370    -0.4539 C.3     
  22 C22            5.0010     3.4968     0.6429 C.3     
  23 C23            3.7220     1.9346    -0.7648 C.3     
  24 H24            3.8059     0.9551    -1.2356 H       
  25 C25            2.9346     1.7664     0.5315 C.3     
  26 C26            1.4841     1.3347     0.2656 C.3     
  27 C27            0.8628     2.3873    -0.6328 C.3     
  28 C28            1.0188     3.7727    -0.0025 C.3     
  29 C29           -1.5266     2.9138    -0.0867 C.3     
  30 H30           -1.2361     3.9635    -0.0448 H       
  31 C31           -1.4311     2.3020     1.3125 C.3     
  32 C32           -2.9655     2.8026    -0.5947 C.3     
  33 C33           -3.8837     3.6552     0.2834 C.3     
  34 C34           -5.3226     3.5440    -0.2247 C.3     
  35 C35           -6.2200     4.4918     0.5737 C.3     
  36 C36           -5.3711     3.9229    -1.7062 C.3     
  37 O37           -5.7831     2.2012    -0.0611 O.3     
  38 H38           -1.0651     1.9594    -3.1531 H       
  39 H39           -1.3931     3.5824    -2.4817 H       
  40 H40            0.9024     2.9771    -3.9341 H       
  41 H41            0.8563     4.2509    -2.6712 H       
  42 H42            2.7196     1.2127    -3.8800 H       
  43 H43            4.3149     1.4906    -4.6190 H       
  44 H44            4.1994     0.7684    -2.9963 H       
  45 H45            5.7999     3.7269    -3.5724 H       
  46 H46            7.6636     3.7674    -2.4457 H       
  47 H47            7.3241     4.3197    -0.7853 H       
  48 H48            9.9485     1.9856    -0.3004 H       
  49 H49            7.0146     0.9067    -2.2109 H       
  50 H50            8.5850     1.4657    -2.8352 H       
  51 H51            8.1778    -0.3917    -0.4475 H       
  52 H52            8.7190    -0.8887    -2.0687 H       
  53 H53            9.7481     0.1673    -1.0717 H       
  54 H54            7.9911     1.0067     0.8093 H       
  55 H55            7.3346     2.6375     1.0837 H       
  56 H56            6.0353     0.4952    -0.6587 H       
  57 H57            5.5397     0.9032     1.0019 H       
  58 H58            4.3016     4.2701     0.3254 H       
  59 H59            4.6370     3.0316     1.5590 H       
  60 H60            5.9783     3.9437     0.8258 H       
  61 H61            3.4225     1.0115     1.1481 H       
  62 H62            2.9301     2.7142     1.0699 H       
  63 H63            1.4704     0.3656    -0.2332 H       
  64 H64            0.9352     1.2776     1.2055 H       
  65 H65            0.4754     3.8055     0.9418 H       
  66 H66            2.0749     3.9725     0.1789 H       
  67 H67            0.6173     4.5271    -0.6791 H       
  68 H68           -0.4266     2.4538     1.7076 H       
  69 H69           -2.1563     2.7824     1.9693 H       
  70 H70           -1.6423     1.2341     1.2573 H       
  71 H71           -3.0157     3.1569    -1.6243 H       
  72 H72           -3.2863     1.7617    -0.5526 H       
  73 H73           -3.8335     3.3009     1.3130 H       
  74 H74           -3.5629     4.6961     0.2413 H       
  75 H75           -5.8687     5.5160     0.4489 H       
  76 H76           -7.2451     4.4126     0.2118 H       
  77 H77           -6.1855     4.2219     1.6292 H       
  78 H78           -4.7317     3.2477    -2.2750 H       
  79 H79           -6.3962     3.8437    -2.0682 H       
  80 H80           -5.0198     4.9472    -1.8310 H       
  81 H81           -6.6904     2.0570    -0.3630 H       
@<TRIPOS>BOND
   1    1    2 1
   2    2   27 1
   3    2    3 1
   4    2   29 1
   5    3    4 1
   6    3   38 1
   7    3   39 1
   8    4    5 1
   9    4   40 1
  10    4   41 1
  11    5   27 1
  12    5    6 1
  13    5    7 1
  14    7   23 1
  15    7    8 1
  16    7    9 1
  17    9   10 1
  18    9   11 1
  19    9   12 1
  20   11   42 1
  21   11   43 1
  22   11   44 1
  23   12   13 2
  24   12   45 1
  25   13   21 1
  26   13   14 1
  27   14   15 1
  28   14   46 1
  29   14   47 1
  30   15   16 1
  31   15   17 1
  32   15   19 1
  33   16   48 1
  34   17   18 1
  35   17   49 1
  36   17   50 1
  37   18   51 1
  38   18   52 1
  39   18   53 1
  40   19   20 1
  41   19   54 1
  42   19   55 1
  43   20   21 1
  44   20   56 1
  45   20   57 1
  46   21   22 1
  47   21   23 1
  48   22   58 1
  49   22   59 1
  50   22   60 1
  51   23   24 1
  52   23   25 1
  53   25   26 1
  54   25   61 1
  55   25   62 1
  56   26   27 1
  57   26   63 1
  58   26   64 1
  59   27   28 1
  60   28   65 1
  61   28   66 1
  62   28   67 1
  63   29   30 1
  64   29   31 1
  65   29   32 1
  66   31   68 1
  67   31   69 1
  68   31   70 1
  69   32   33 1
  70   32   71 1
  71   32   72 1
  72   33   34 1
  73   33   73 1
  74   33   74 1
  75   34   35 1
  76   34   36 1
  77   34   37 1
  78   35   75 1
  79   35   76 1
  80   35   77 1
  81   36   78 1
  82   36   79 1
  83   36   80 1
  84   37   81 1

#	End of record

