#	Name: ASD01040018
#	Creating user name:	WinNT
#	Creation time:	15. 06. 2019 18:58

#	Modifying user name:	WinNT
#	Modification time:	15. 06. 2019 18:58

#	Program:	/corina/corina34_cracker 3.40 0067  02.08.2006

@<TRIPOS>MOLECULE
ASD01040018
  38   40    0    0    0
SMALL
NO_CHARGES


@<TRIPOS>ATOM
   1 C1            -0.8473     1.7571     0.6015 C.ar    
   2 C2             0.0683     2.7622     0.8283 C.ar    
   3 C3             1.4283     2.4809     0.8155 C.ar    
   4 O4             2.3277     3.4740     1.0399 O.3     
   5 C5             1.8711     1.1869     0.5743 C.ar    
   6 C6             0.9616     0.1764     0.3466 C.ar    
   7 C7            -0.4061     0.4552     0.3587 C.ar    
   8 C8            -1.3856    -0.6265     0.1153 C.2     
   9 C9            -1.5191    -1.7356     1.0853 C.ar    
  10 C10           -1.1840    -3.0377     0.7098 C.ar    
  11 C11           -1.3097    -4.0684     1.6163 C.ar    
  12 C12           -1.7695    -3.8129     2.9016 C.ar    
  13 O13           -1.8921    -4.8314     3.7923 O.3     
  14 C14           -2.1039    -2.5188     3.2790 C.ar    
  15 C15           -1.9749    -1.4818     2.3800 C.ar    
  16 C16           -2.1611    -0.6014    -0.9968 C.2     
  17 C17           -1.9193     0.4073    -2.0391 C.ar    
  18 C18           -0.6149     0.8252    -2.3242 C.ar    
  19 C19           -0.3966     1.7710    -3.3033 C.ar    
  20 C20           -1.4636     2.3071    -4.0031 C.ar    
  21 C21           -2.7571     1.8990    -3.7271 C.ar    
  22 C22           -2.9918     0.9499    -2.7549 C.ar    
  23 H23           -1.9049     1.9758     0.6161 H       
  24 H24           -0.2723     3.7698     1.0159 H       
  25 H25            2.5609     3.5905     1.9711 H       
  26 H26            2.9295     0.9720     0.5647 H       
  27 H27            1.3068    -0.8295     0.1588 H       
  28 H28           -0.8271    -3.2372    -0.2898 H       
  29 H29           -1.0507    -5.0760     1.3265 H       
  30 H30           -1.0975    -4.9902     4.3201 H       
  31 H31           -2.4611    -2.3240     4.2794 H       
  32 H32           -2.2348    -0.4757     2.6743 H       
  33 H33           -2.9563    -1.3222    -1.1170 H       
  34 H34            0.2186     0.4083    -1.7785 H       
  35 H35            0.6097     2.0947    -3.5246 H       
  36 H36           -1.2864     3.0512    -4.7655 H       
  37 H37           -3.5844     2.3224    -4.2773 H       
  38 H38           -4.0016     0.6321    -2.5410 H       
@<TRIPOS>BOND
   1    1    7 ar
   2    1    2 ar
   3    1   23 1
   4    2    3 ar
   5    2   24 1
   6    3    5 ar
   7    3    4 1
   8    4   25 1
   9    5   26 1
  10    5    6 ar
  11    6   27 1
  12    6    7 ar
  13    7    8 1
  14    8    9 1
  15    8   16 2
  16    9   10 ar
  17    9   15 ar
  18   10   11 ar
  19   10   28 1
  20   11   29 1
  21   11   12 ar
  22   12   13 1
  23   12   14 ar
  24   13   30 1
  25   14   31 1
  26   14   15 ar
  27   15   32 1
  28   16   33 1
  29   16   17 1
  30   17   18 ar
  31   17   22 ar
  32   18   34 1
  33   18   19 ar
  34   19   35 1
  35   19   20 ar
  36   20   21 ar
  37   20   36 1
  38   21   22 ar
  39   21   37 1
  40   22   38 1

#	End of record

