#	Name: ASD04590542
#	Creating user name:	WinNT
#	Creation time:	15. 06. 2019 20:51

#	Modifying user name:	WinNT
#	Modification time:	15. 06. 2019 20:51

#	Program:	/corina/corina34_cracker 3.40 0067  02.08.2006

@<TRIPOS>MOLECULE
ASD04590542
  60   64    0    0    0
SMALL
NO_CHARGES


@<TRIPOS>ATOM
   1 C1            -0.0167     1.3834     0.0096 C.ar    
   2 C2             0.0021    -0.0041     0.0020 C.ar    
   3 C3             2.3948     0.0191    -0.0208 C.ar    
   4 C4             2.3756     1.4249    -0.0130 C.ar    
   5 C5             1.1624     2.0987     0.0022 C.ar    
   6 N6             3.6952    -0.3636    -0.0357 N.2     
   7 C7             4.4665     0.6967    -0.0377 C.2     
   8 N8             3.6970     1.8290    -0.0239 N.pl3   
   9 C9             5.9437     0.6731    -0.0520 C.2     
  10 C10            6.7565    -0.4840    -0.0663 C.2     
  11 C11            8.0503    -0.0800    -0.0772 C.2     
  12 N12            8.0626     1.2789    -0.0702 N.pl3   
  13 N13            6.7358     1.7273    -0.0594 N.2     
  14 N14            6.3042    -1.8135    -0.0682 N.am    
  15 C15            7.1921    -2.8273    -0.0826 C.2     
  16 O16            8.3854    -2.5907    -0.0938 O.2     
  17 C17            1.1863    -0.6848    -0.0130 C.ar    
  18 C18           -1.2971    -0.7677     0.0109 C.3     
  19 N19           -1.7331    -1.0083    -1.3711 N.3     
  20 C20            6.7181    -4.2208    -0.0847 C.ar    
  21 C21            7.6402    -5.2773    -0.0996 C.ar    
  22 C22           -2.8628    -1.9482    -1.4111 C.3     
  23 C23           -3.3225    -2.1239    -2.8608 C.3     
  24 O24           -2.2194    -2.5691    -3.6548 O.3     
  25 C25           -1.1017    -1.6771    -3.6392 C.3     
  26 C26           -0.6195    -1.4969    -2.1973 C.3     
  27 C27            7.1898    -6.5864    -0.1010 C.ar    
  28 C28            5.8286    -6.8538    -0.0882 C.ar    
  29 C29            4.9051    -5.8030    -0.0737 C.ar    
  30 C30            5.3450    -4.4956    -0.0659 C.ar    
  31 O31            8.9723    -5.0167    -0.1131 O.3     
  32 C32            9.8533    -6.1418    -0.1279 C.3     
  33 N33            5.3799    -8.1730    -0.0901 N.pl3   
  34 N34            3.5301    -6.0793    -0.0617 N.pl3   
  35 H35           -0.9614     1.9069     0.0170 H       
  36 H36            1.1417     3.1785     0.0079 H       
  37 H37            4.0192     2.7439    -0.0225 H       
  38 H38            8.9174    -0.7238    -0.0888 H       
  39 H39            8.8531     1.8409    -0.0753 H       
  40 H40            5.3528    -2.0021    -0.0593 H       
  41 H41            1.1893    -1.7648    -0.0185 H       
  42 H42           -1.1543    -1.7218     0.5182 H       
  43 H43           -2.0561    -0.1872     0.5354 H       
  44 H44           -2.5490    -2.9117    -1.0095 H       
  45 H45           -3.6851    -1.5545    -0.8137 H       
  46 H46           -4.1224    -2.8632    -2.9020 H       
  47 H47           -3.6865    -1.1711    -3.2452 H       
  48 H48           -0.2955    -2.0932    -4.2433 H       
  49 H49           -1.4011    -0.7113    -4.0462 H       
  50 H50            0.1957    -0.7737    -2.1739 H       
  51 H51           -0.2699    -2.4532    -1.8083 H       
  52 H52            7.8993    -7.4006    -0.1125 H       
  53 H53            4.6314    -3.6849    -0.0543 H       
  54 H54            9.6630    -6.7406    -1.0185 H       
  55 H55           10.8864    -5.7941    -0.1377 H       
  56 H56            9.6826    -6.7486     0.7613 H       
  57 H57            6.0189    -8.9026    -0.1004 H       
  58 H58            4.4284    -8.3616    -0.0811 H       
  59 H59            3.2200    -6.9984    -0.0634 H       
  60 H60            2.8891    -5.3513    -0.0517 H       
@<TRIPOS>BOND
   1    1    2 ar
   2    1    5 ar
   3    1   35 1
   4    2   17 ar
   5    2   18 1
   6    3    4 ar
   7    3    6 1
   8    3   17 ar
   9    4    5 ar
  10    4    8 1
  11    5   36 1
  12    6    7 2
  13    7    8 1
  14    7    9 1
  15    8   37 1
  16    9   10 1
  17    9   13 2
  18   10   11 2
  19   10   14 1
  20   11   12 1
  21   11   38 1
  22   12   13 1
  23   12   39 1
  24   14   15 am
  25   14   40 1
  26   15   16 2
  27   15   20 1
  28   17   41 1
  29   18   19 1
  30   18   42 1
  31   18   43 1
  32   19   22 1
  33   19   26 1
  34   20   21 ar
  35   20   30 ar
  36   21   27 ar
  37   21   31 1
  38   22   23 1
  39   22   44 1
  40   22   45 1
  41   23   24 1
  42   23   46 1
  43   23   47 1
  44   24   25 1
  45   25   26 1
  46   25   48 1
  47   25   49 1
  48   26   50 1
  49   26   51 1
  50   27   28 ar
  51   27   52 1
  52   28   29 ar
  53   28   33 1
  54   29   30 ar
  55   29   34 1
  56   30   53 1
  57   31   32 1
  58   32   54 1
  59   32   55 1
  60   32   56 1
  61   33   57 1
  62   33   58 1
  63   34   59 1
  64   34   60 1

#	End of record

