#	Name: ASD01911048
#	Creating user name:	WinNT
#	Creation time:	15. 06. 2019 19:57

#	Modifying user name:	WinNT
#	Modification time:	15. 06. 2019 19:57

#	Program:	/corina/corina34_cracker 3.40 0067  02.08.2006

@<TRIPOS>MOLECULE
ASD01911048
  50   53    0    0    0
SMALL
NO_CHARGES


@<TRIPOS>ATOM
   1 N1            -4.7490    -3.3381     1.0009 N.3     
   2 C2            -3.5012    -2.6353     1.3280 C.3     
   3 C3            -2.6776    -2.4421     0.0502 C.3     
   4 N4            -3.5217    -1.7762    -0.9534 N.am    
   5 C5            -4.8479    -2.3459    -1.2359 C.3     
   6 C6            -5.5860    -2.5429     0.0925 C.3     
   7 C7            -3.0915    -0.6728    -1.5969 C.2     
   8 C8            -3.9008    -0.0912    -2.6893 C.ar    
   9 C9            -4.0132     1.2952    -2.8150 C.ar    
  10 C10           -4.7690     1.8411    -3.8341 C.ar    
  11 C11           -5.4184     1.0221    -4.7354 C.ar    
  12 C12           -5.3148    -0.3680    -4.6219 C.ar    
  13 C13           -4.5480    -0.9250    -3.5985 C.ar    
  14 C14           -5.9897    -1.2170    -5.5569 C.1     
  15 O15           -2.0382    -0.1559    -1.2794 O.2     
  16 C16           -6.5429    -1.9131    -6.3236 C.1     
  17 C17           -7.2178    -2.7621    -7.2586 C.ar    
  18 N18           -7.1149    -4.0827    -7.1446 N.ar    
  19 C19           -7.7207    -4.8968    -7.9843 C.ar    
  20 C20           -8.4908    -4.4037    -9.0218 C.ar    
  21 C21           -8.6259    -3.0306    -9.1786 C.ar    
  22 C22           -7.9845    -2.1967    -8.2810 C.ar    
  23 C23           -5.4444    -3.6746     2.1492 C.ar    
  24 N24           -6.5985    -4.3164     2.0417 N.ar    
  25 C25           -7.2881    -4.6527     3.1193 C.ar    
  26 C26           -6.7896    -4.3254     4.3705 C.ar    
  27 C27           -5.5795    -3.6539     4.4467 C.ar    
  28 N28           -4.9377    -3.3519     3.3301 N.ar    
  29 C29           -6.2411     1.6269    -5.8438 C.3     
  30 F30           -6.1941     3.0220    -5.7514 F       
  31 F31           -5.7257     1.2238    -7.0804 F       
  32 F32           -7.5672     1.1963    -5.7285 F       
  33 H33           -3.7343    -1.6626     1.7610 H       
  34 H34           -2.9287    -3.2249     2.0440 H       
  35 H35           -1.8072    -1.8225     0.2658 H       
  36 H36           -2.3554    -3.4123    -0.3279 H       
  37 H37           -5.4123    -1.6628    -1.8706 H       
  38 H38           -4.7343    -3.3069    -1.7376 H       
  39 H39           -6.5255    -3.0655    -0.0874 H       
  40 H40           -5.7902    -1.5715     0.5427 H       
  41 H41           -3.5081     1.9423    -2.1132 H       
  42 H42           -4.8524     2.9139    -3.9260 H       
  43 H43           -4.4643    -1.9977    -3.5057 H       
  44 H44           -7.6143    -5.9644    -7.8612 H       
  45 H45           -8.9827    -5.0808    -9.7044 H       
  46 H46           -9.2223    -2.6229    -9.9814 H       
  47 H47           -8.0686    -1.1240    -8.3735 H       
  48 H48           -8.2284    -5.1755     3.0253 H       
  49 H49           -7.3324    -4.5877     5.2665 H       
  50 H50           -5.1636    -3.3840     5.4062 H       
@<TRIPOS>BOND
   1    1    2 1
   2    1   23 1
   3    1    6 1
   4    2    3 1
   5    2   33 1
   6    2   34 1
   7    3    4 1
   8    3   35 1
   9    3   36 1
  10    4    5 1
  11    4    7 am
  12    5    6 1
  13    5   37 1
  14    5   38 1
  15    6   39 1
  16    6   40 1
  17    7    8 1
  18    7   15 2
  19    8    9 ar
  20    8   13 ar
  21    9   10 ar
  22    9   41 1
  23   10   11 ar
  24   10   42 1
  25   11   12 ar
  26   11   29 1
  27   12   13 ar
  28   12   14 1
  29   13   43 1
  30   14   16 3
  31   16   17 1
  32   17   18 ar
  33   17   22 ar
  34   18   19 ar
  35   19   20 ar
  36   19   44 1
  37   20   21 ar
  38   20   45 1
  39   21   22 ar
  40   21   46 1
  41   22   47 1
  42   23   24 ar
  43   23   28 ar
  44   24   25 ar
  45   25   26 ar
  46   25   48 1
  47   26   27 ar
  48   26   49 1
  49   27   28 ar
  50   27   50 1
  51   29   30 1
  52   29   31 1
  53   29   32 1

#	End of record

