#	Name: ASD06720001
#	Creating user name:	WinNT
#	Creation time:	15. 06. 2019 21:08

#	Modifying user name:	WinNT
#	Modification time:	15. 06. 2019 21:08

#	Program:	/corina/corina34_cracker 3.40 0067  02.08.2006

@<TRIPOS>MOLECULE
ASD06720001
  63   67    0    0    0
SMALL
NO_CHARGES


@<TRIPOS>ATOM
   1 C1             3.7247    -0.3004     0.9307 C.ar    
   2 C2             4.4756    -1.0835     0.0741 C.ar    
   3 C3             4.9643    -0.5478    -1.1027 C.ar    
   4 C4             4.7016     0.7710    -1.4234 C.ar    
   5 C5             3.9499     1.5538    -0.5673 C.ar    
   6 C6             3.4624     1.0185     0.6103 C.ar    
   7 C7             3.6644     2.9918    -0.9163 C.3     
   8 C8             2.3406     3.0820    -1.6308 C.ar    
   9 C9             3.6103     3.8265     0.3648 C.3     
  10 C10            1.1716     2.7698    -0.9622 C.ar    
  11 C11           -0.0427     2.8525    -1.6176 C.ar    
  12 C12           -0.0881     3.2477    -2.9415 C.ar    
  13 C13            1.0808     3.5607    -3.6098 C.ar    
  14 C14            2.2947     3.4822    -2.9531 C.ar    
  15 C15            5.0154     3.9337     0.9644 C.3     
  16 C16            5.4137     5.4134     1.0309 C.3     
  17 N17            3.1100     5.1720     0.0524 N.3     
  18 C18            5.3736     5.9950    -0.3879 C.3     
  19 C19            3.9586     5.8313    -0.9498 C.3     
  20 C20            4.3872     6.1580     1.8940 C.3     
  21 C21            2.9998     5.9898     1.2682 C.3     
  22 H22            2.9439     3.3483     1.0826 H       
  23 N23            5.9690     3.2049     0.1173 N.3     
  24 C24            7.3245     3.2630     0.6803 C.3     
  25 C25            8.2727     2.5062    -0.2137 C.ar    
  26 C26            8.7637     3.1011    -1.3666 C.ar    
  27 C27            9.6369     2.4019    -2.1874 C.ar    
  28 C28           10.0151     1.1157    -1.8550 C.ar    
  29 C29            9.5238     0.5247    -0.7053 C.ar    
  30 C30            8.6581     1.2213     0.1172 C.ar    
  31 O31            8.3898     4.3666    -1.6917 O.3     
  32 C32            8.9348     4.9155    -2.8933 C.3     
  33 H33            3.3391    -0.7202     1.8480 H       
  34 H34            4.6809    -2.1138     0.3246 H       
  35 H35            5.5516    -1.1595    -1.7716 H       
  36 H36            5.0840     1.1897    -2.3425 H       
  37 H37            2.8748     1.6301     1.2790 H       
  38 H38            4.4538     3.3720    -1.5647 H       
  39 H39            1.2071     2.4610     0.0721 H       
  40 H40           -0.9559     2.6079    -1.0955 H       
  41 H41           -1.0367     3.3116    -3.4538 H       
  42 H42            1.0454     3.8692    -4.6442 H       
  43 H43            3.2079     3.7268    -3.4753 H       
  44 H44            5.0174     3.5094     1.9684 H       
  45 H45            6.4153     5.5136     1.4489 H       
  46 H46            5.6339     7.0530    -0.3564 H       
  47 H47            6.0821     5.4615    -1.0215 H       
  48 H48            3.9942     5.2226    -1.8534 H       
  49 H49            3.5459     6.8118    -1.1875 H       
  50 H50            4.3864     5.7415     2.9013 H       
  51 H51            4.6436     7.2166     1.9347 H       
  52 H52            2.5951     6.9690     1.0124 H       
  53 H53            2.3374     5.4965     1.9795 H       
  54 H54            5.6747     2.2494    -0.0190 H       
  55 H55            7.6441     4.3026     0.7517 H       
  56 H56            7.3250     2.8138     1.6735 H       
  57 H57           10.0203     2.8628    -3.0857 H       
  58 H58           10.6947     0.5710    -2.4936 H       
  59 H59            9.8201    -0.4814    -0.4475 H       
  60 H60            8.2758     0.7575     1.0144 H       
  61 H61           10.0221     4.9409    -2.8207 H       
  62 H62            8.6416     4.2965    -3.7412 H       
  63 H63            8.5563     5.9279    -3.0345 H       
@<TRIPOS>BOND
   1    1    2 ar
   2    1    6 ar
   3    1   33 1
   4    2    3 ar
   5    2   34 1
   6    3    4 ar
   7    3   35 1
   8    4    5 ar
   9    4   36 1
  10    5    6 ar
  11    5    7 1
  12    6   37 1
  13    7    8 1
  14    7    9 1
  15    7   38 1
  16    8   10 ar
  17    8   14 ar
  18    9   17 1
  19    9   22 1
  20    9   15 1
  21   10   11 ar
  22   10   39 1
  23   11   12 ar
  24   11   40 1
  25   12   13 ar
  26   12   41 1
  27   13   14 ar
  28   13   42 1
  29   14   43 1
  30   15   16 1
  31   15   23 1
  32   15   44 1
  33   16   18 1
  34   16   20 1
  35   16   45 1
  36   17   19 1
  37   17   21 1
  38   18   19 1
  39   18   46 1
  40   18   47 1
  41   19   48 1
  42   19   49 1
  43   20   21 1
  44   20   50 1
  45   20   51 1
  46   21   52 1
  47   21   53 1
  48   23   24 1
  49   23   54 1
  50   24   25 1
  51   24   55 1
  52   24   56 1
  53   25   26 ar
  54   25   30 ar
  55   26   27 ar
  56   26   31 1
  57   27   28 ar
  58   27   57 1
  59   28   29 ar
  60   28   58 1
  61   29   30 ar
  62   29   59 1
  63   30   60 1
  64   31   32 1
  65   32   61 1
  66   32   62 1
  67   32   63 1

#	End of record

