#	Name: ASD01914674
#	Creating user name:	WinNT
#	Creation time:	15. 06. 2019 20:04

#	Modifying user name:	WinNT
#	Modification time:	15. 06. 2019 20:04

#	Program:	/corina/corina34_cracker 3.40 0067  02.08.2006

@<TRIPOS>MOLECULE
ASD01914674
  36   38    0    0    0
SMALL
NO_CHARGES


@<TRIPOS>ATOM
   1 N1            -0.0158     1.3157     0.0093 N.ar    
   2 C2             7.1866    -1.2915    -0.0712 C.2     
   3 N3             8.1073    -2.3015    -0.0838 N.pl3   
   4 C4             5.9569    -1.8823    -0.0624 C.2     
   5 N5             6.1459    -3.2258    -0.0696 N.2     
   6 C6             7.4241    -3.4773    -0.0823 C.2     
   7 C7             4.6945    -1.2064    -0.0476 C.1     
   8 C8             3.6596    -0.6523    -0.0355 C.1     
   9 C9             2.3972     0.0236    -0.0207 C.ar    
  10 C10            1.1940    -0.6962    -0.0126 C.ar    
  11 C11            0.0021    -0.0041     0.0020 C.ar    
  12 C12            1.0927     2.0325     0.0025 C.ar    
  13 C13            2.3292     1.4244    -0.0125 C.ar    
  14 C14            8.0456    -4.8501    -0.0941 C.3     
  15 C15            1.0047     3.5369     0.0110 C.3     
  16 C16            9.5012    -2.1525    -0.0964 C.ar    
  17 C17           10.1017    -1.3067    -1.0191 C.ar    
  18 C18           11.4754    -1.1606    -1.0299 C.ar    
  19 C19           12.2534    -1.8556    -0.1232 C.ar    
  20 C20           11.6582    -2.7009     0.7989 C.ar    
  21 C21           10.2827    -2.8461     0.8174 C.ar    
  22 F22           12.4209    -3.3794     1.6838 F       
  23 H23            7.3925    -0.2314    -0.0649 H       
  24 H24            1.2009    -1.7762    -0.0181 H       
  25 H25           -0.9302    -0.5492     0.0080 H       
  26 H26            3.2319     2.0174    -0.0176 H       
  27 H27            8.1856    -5.1768    -1.1245 H       
  28 H28            9.0110    -4.8163     0.4107 H       
  29 H29            7.3895    -5.5503     0.4230 H       
  30 H30            0.9735     3.9048    -1.0146 H       
  31 H31            0.1001     3.8450     0.5352 H       
  32 H32            1.8769     3.9491     0.5184 H       
  33 H33            9.4951    -0.7634    -1.7284 H       
  34 H34           11.9421    -0.5028    -1.7482 H       
  35 H35           13.3271    -1.7396    -0.1337 H       
  36 H36            9.8182    -3.5050     1.5360 H       
@<TRIPOS>BOND
   1    1   11 ar
   2    1   12 ar
   3    2    3 1
   4    2    4 2
   5    2   23 1
   6    3   16 1
   7    3    6 1
   8    4    5 1
   9    4    7 1
  10    5    6 2
  11    6   14 1
  12    7    8 3
  13    8    9 1
  14    9   10 ar
  15    9   13 ar
  16   10   11 ar
  17   10   24 1
  18   11   25 1
  19   12   13 ar
  20   12   15 1
  21   13   26 1
  22   14   27 1
  23   14   28 1
  24   14   29 1
  25   15   30 1
  26   15   31 1
  27   15   32 1
  28   16   17 ar
  29   16   21 ar
  30   17   18 ar
  31   17   33 1
  32   18   19 ar
  33   18   34 1
  34   19   20 ar
  35   19   35 1
  36   20   21 ar
  37   20   22 1
  38   21   36 1

#	End of record

