#	Name: ASD03092842
#	Creating user name:	WinNT
#	Creation time:	15. 06. 2019 20:33

#	Modifying user name:	WinNT
#	Modification time:	15. 06. 2019 20:33

#	Program:	/corina/corina34_cracker 3.40 0067  02.08.2006

@<TRIPOS>MOLECULE
ASD03092842
  54   57    0    0    0
SMALL
NO_CHARGES


@<TRIPOS>ATOM
   1 C1             3.5015    -1.8931     1.3926 C.3     
   2 C2             3.0268    -1.6202    -0.0361 C.3     
   3 H3             3.7587    -2.0099    -0.7436 H       
   4 C4             1.6757    -2.3068    -0.2667 C.3     
   5 N5             1.1542    -1.8777    -1.5741 N.am    
   6 C6             1.1118    -0.4352    -1.8622 C.3     
   7 C7             2.4903     0.1601    -1.5538 C.3     
   8 H8             3.2201    -0.2224    -2.2675 H       
   9 C9             2.4236     1.6851    -1.6591 C.3     
  10 O10            2.8790    -0.2114    -0.2293 O.3     
  11 C11            0.7285    -2.7791    -2.4810 C.2     
  12 O12            0.2025    -2.4033    -3.5114 O.2     
  13 C13            0.9000    -4.2184    -2.2247 C.2     
  14 N14            1.5623    -4.7276    -1.2255 N.2     
  15 C15            1.6195    -6.0341    -1.1415 C.2     
  16 C16            0.9550    -6.7092    -2.1461 C.2     
  17 S17            0.2342    -5.5104    -3.2184 S.3     
  18 C18            0.8598    -8.1748    -2.2925 C.ar    
  19 C19            0.5003    -8.9672    -1.1998 C.ar    
  20 C20            0.4129   -10.3362    -1.3439 C.ar    
  21 C21            0.6807   -10.9249    -2.5673 C.ar    
  22 C22            1.0374   -10.1460    -3.6540 C.ar    
  23 C23            1.1232    -8.7754    -3.5258 C.ar    
  24 S24            0.5677   -12.6745    -2.7419 S.o2    
  25 N25           -0.9878   -13.0229    -3.1908 N.am    
  26 O26            1.3914   -13.0216    -3.8465 O.2     
  27 O27            0.7416   -13.2197    -1.4412 O.2     
  28 C28            2.3420    -6.7330    -0.0527 C.ar    
  29 C29            3.2309    -7.7639    -0.3524 C.ar    
  30 C30            3.9015    -8.4120     0.6647 C.ar    
  31 C31            3.6929    -8.0406     1.9830 C.ar    
  32 F32            4.3524    -8.6789     2.9745 F       
  33 C33            2.8108    -7.0169     2.2882 C.ar    
  34 C34            2.1389    -6.3573     1.2771 C.ar    
  35 F35            1.2834    -5.3548     1.5743 F       
  36 H36            2.7691    -1.5032     2.0995 H       
  37 H37            3.6122    -2.9675     1.5397 H       
  38 H38            4.4613    -1.4032     1.5564 H       
  39 H39            1.8081    -3.3887    -0.2614 H       
  40 H40            0.9782    -2.0180     0.5195 H       
  41 H41            0.8707    -0.2778    -2.9135 H       
  42 H42            0.3575     0.0420    -1.2366 H       
  43 H43            1.6950     2.0671    -0.9440 H       
  44 H44            3.4040     2.1077    -1.4397 H       
  45 H45            2.1240     1.9668    -2.6686 H       
  46 H46            0.2917    -8.5091    -0.2443 H       
  47 H47            0.1350   -10.9501    -0.5000 H       
  48 H48            1.2455   -10.6121    -4.6058 H       
  49 H49            1.3976    -8.1683    -4.3758 H       
  50 H50           -1.6314   -12.3063    -3.3057 H       
  51 H51           -1.2553   -13.9434    -3.3388 H       
  52 H52            3.3944    -8.0553    -1.3795 H       
  53 H53            4.5903    -9.2108     0.4325 H       
  54 H54            2.6513    -6.7313     3.3175 H       
@<TRIPOS>BOND
   1    1    2 1
   2    1   36 1
   3    1   37 1
   4    1   38 1
   5    2    3 1
   6    2   10 1
   7    2    4 1
   8    4    5 1
   9    4   39 1
  10    4   40 1
  11    5    6 1
  12    5   11 am
  13    6    7 1
  14    6   41 1
  15    6   42 1
  16    7    8 1
  17    7    9 1
  18    7   10 1
  19    9   43 1
  20    9   44 1
  21    9   45 1
  22   11   12 2
  23   11   13 1
  24   13   17 1
  25   13   14 2
  26   14   15 1
  27   15   16 2
  28   15   28 1
  29   16   17 1
  30   16   18 1
  31   18   23 ar
  32   18   19 ar
  33   19   20 ar
  34   19   46 1
  35   20   21 ar
  36   20   47 1
  37   21   22 ar
  38   21   24 1
  39   22   23 ar
  40   22   48 1
  41   23   49 1
  42   24   25 am
  43   24   26 2
  44   24   27 2
  45   25   50 1
  46   25   51 1
  47   28   34 ar
  48   28   29 ar
  49   29   30 ar
  50   29   52 1
  51   30   31 ar
  52   30   53 1
  53   31   32 1
  54   31   33 ar
  55   33   34 ar
  56   33   54 1
  57   34   35 1

#	End of record

