#	Name: ASD03330220
#	Creating user name:	WinNT
#	Creation time:	15. 06. 2019 20:36

#	Modifying user name:	WinNT
#	Modification time:	15. 06. 2019 20:36

#	Program:	/corina/corina34_cracker 3.40 0067  02.08.2006

@<TRIPOS>MOLECULE
ASD03330220
  57   59    0    0    0
SMALL
NO_CHARGES


@<TRIPOS>ATOM
   1 C1            -0.6677     0.5743     0.2355 C.3     
   2 N2            -0.5954    -0.8809     0.0426 N.3     
   3 C3            -0.0235    -1.2155    -1.2742 C.3     
   4 C4             1.2514    -0.4296    -1.4416 C.2     
   5 N5             1.5879     0.6351    -0.6672 N.pl3   
   6 C6             0.7446     1.1449     0.4177 C.3     
   7 C7             2.2552    -0.6099    -2.3359 C.2     
   8 N8             3.1907     0.3380    -2.0993 N.2     
   9 C9             2.7948     1.0891    -1.0961 C.2     
  10 C10            3.5383     2.2356    -0.5287 C.ar    
  11 C11            4.6011     2.7994    -1.2346 C.ar    
  12 C12            5.2906     3.8686    -0.7000 C.ar    
  13 C13            4.9297     4.3812     0.5331 C.ar    
  14 C14            3.8767     3.8261     1.2383 C.ar    
  15 C15            3.1755     2.7609     0.7120 C.ar    
  16 C16            2.3158    -1.6510    -3.3771 C.2     
  17 O17            1.4069    -2.4512    -3.4905 O.2     
  18 O18            5.7332    -2.2062    -5.3247 O.2     
  19 C19            4.8776    -3.0221    -5.5953 C.2     
  20 C20            3.4386    -2.7515    -5.2386 C.3     
  21 N21            3.3784    -1.7165    -4.2036 N.am    
  22 C22            2.6862    -2.2736    -6.4821 C.3     
  23 C23            2.7479    -3.3552    -7.5626 C.3     
  24 C24            1.2256    -1.9975    -6.1197 C.3     
  25 C25            3.3326    -0.9903    -7.0076 C.3     
  26 N26            5.2138    -4.1708    -6.2149 N.am    
  27 C27            6.5976    -4.3961    -6.6398 C.3     
  28 C28            6.4395     4.4787    -1.4609 C.3     
  29 H29           -1.1340     1.0327    -0.6366 H       
  30 H30           -1.2641     0.7932     1.1212 H       
  31 H31           -0.0720    -1.3186     0.7859 H       
  32 H32            0.1927    -2.2828    -1.3215 H       
  33 H33           -0.7282    -0.9464    -2.0610 H       
  34 H34            0.7096     2.2335     0.3758 H       
  35 H35            1.1489     0.8262     1.3785 H       
  36 H36            4.8841     2.3998    -2.1972 H       
  37 H37            5.4724     5.2181     0.9472 H       
  38 H38            3.6002     4.2303     2.2009 H       
  39 H39            2.3535     2.3287     1.2632 H       
  40 H40            2.9787    -3.6663    -4.8649 H       
  41 H41            4.1032    -1.0783    -4.1131 H       
  42 H42            2.2733    -4.2645    -7.1939 H       
  43 H43            2.2253    -3.0084    -8.4541 H       
  44 H44            3.7890    -3.5631    -7.8095 H       
  45 H45            1.1816    -1.2270    -5.3500 H       
  46 H46            0.6895    -1.6571    -7.0056 H       
  47 H47            0.7650    -2.9118    -5.7454 H       
  48 H48            4.3732    -1.1870    -7.2658 H       
  49 H49            2.7966    -0.6499    -7.8935 H       
  50 H50            3.2887    -0.2198    -6.2379 H       
  51 H51            4.5394    -4.8483    -6.3796 H       
  52 H52            6.8917    -3.6199    -7.3463 H       
  53 H53            7.2544    -4.3639    -5.7704 H       
  54 H54            6.6763    -5.3721    -7.1187 H       
  55 H55            6.0666     5.2752    -2.1049 H       
  56 H56            7.1639     4.8894    -0.7575 H       
  57 H57            6.9189     3.7129    -2.0706 H       
@<TRIPOS>BOND
   1    1    2 1
   2    1    6 1
   3    1   29 1
   4    1   30 1
   5    2    3 1
   6    2   31 1
   7    3    4 1
   8    3   32 1
   9    3   33 1
  10    4    5 1
  11    4    7 2
  12    5    6 1
  13    5    9 1
  14    6   34 1
  15    6   35 1
  16    7    8 1
  17    7   16 1
  18    8    9 2
  19    9   10 1
  20   10   11 ar
  21   10   15 ar
  22   11   12 ar
  23   11   36 1
  24   12   13 ar
  25   12   28 1
  26   13   14 ar
  27   13   37 1
  28   14   15 ar
  29   14   38 1
  30   15   39 1
  31   16   17 2
  32   16   21 am
  33   18   19 2
  34   19   26 am
  35   19   20 1
  36   20   21 1
  37   20   22 1
  38   20   40 1
  39   21   41 1
  40   22   23 1
  41   22   24 1
  42   22   25 1
  43   23   42 1
  44   23   43 1
  45   23   44 1
  46   24   45 1
  47   24   46 1
  48   24   47 1
  49   25   48 1
  50   25   49 1
  51   25   50 1
  52   26   27 1
  53   26   51 1
  54   27   52 1
  55   27   53 1
  56   27   54 1
  57   28   55 1
  58   28   56 1
  59   28   57 1

#	End of record

