#	Name: ASD06170063
#	Creating user name:	WinNT
#	Creation time:	15. 06. 2019 21:05

#	Modifying user name:	WinNT
#	Modification time:	15. 06. 2019 21:05

#	Program:	/corina/corina34_cracker 3.40 0067  02.08.2006

@<TRIPOS>MOLECULE
ASD06170063
  73   77    0    0    0
SMALL
NO_CHARGES


@<TRIPOS>ATOM
   1 N1             0.0623     1.1972    -0.6206 N.pl3   
   2 N2             0.0484    -0.1917    -0.4617 N.am    
   3 C3             1.2857    -0.5959    -0.1068 C.2     
   4 C4             2.1186     0.6154    -0.0414 C.2     
   5 C5             1.2960     1.6753    -0.3698 C.2     
   6 C6             3.5432     0.6841     0.3057 C.2     
   7 O7             4.1143     1.7585     0.3224 O.2     
   8 N8             4.2187    -0.4429     0.6060 N.am    
   9 C9            -1.0623    -1.0229    -0.6402 C.ar    
  10 C10           -1.9043    -0.8350    -1.7286 C.ar    
  11 C11           -2.9999    -1.6577    -1.9022 C.ar    
  12 C12           -3.2592    -2.6674    -0.9936 C.ar    
  13 C13           -2.4228    -2.8571     0.0912 C.ar    
  14 C14           -1.3223    -2.0415     0.2674 C.ar    
  15 O15            1.6427    -1.7378     0.1159 O.2     
  16 C16            1.7098     3.1228    -0.4370 C.3     
  17 C17           -1.0923     2.0111    -1.0086 C.3     
  18 C18           -1.7265     2.6252     0.2411 C.3     
  19 C19           -3.0033     3.3722    -0.1495 C.3     
  20 C20           -3.6374     3.9863     1.1001 C.3     
  21 C21           -2.0693     1.5153     1.2368 C.3     
  22 O22           -0.8060     3.5375     0.8430 O.3     
  23 C23            5.6074    -0.4013     0.7806 C.ar    
  24 C24            6.2192     0.7710     1.2055 C.ar    
  25 C25            7.5900     0.8109     1.3780 C.ar    
  26 C26            8.3548    -0.3219     1.1262 C.ar    
  27 C27            7.7430    -1.4915     0.7022 C.ar    
  28 C28            6.3723    -1.5335     0.5346 C.ar    
  29 O29            9.7037    -0.2829     1.2954 O.3     
  30 N30           11.1478    -0.2263     5.1581 N.ar    
  31 C31            9.8559    -0.1627     4.9354 C.ar    
  32 C32            9.3330    -0.1791     3.6488 C.ar    
  33 C33           10.1859    -0.2645     2.5621 C.ar    
  34 C34           11.5751    -0.3325     2.8137 C.ar    
  35 C35           12.5009    -0.4202     1.7639 C.ar    
  36 C36           13.8323    -0.4837     2.0385 C.ar    
  37 C37           14.2921    -0.4626     3.3584 C.ar    
  38 C38           13.4085    -0.3776     4.4105 C.ar    
  39 C39           12.0296    -0.3104     4.1549 C.ar    
  40 O40           15.6261    -0.5271     3.6057 O.3     
  41 C41           16.4925    -0.6145     2.4727 C.3     
  42 F42            8.1862     1.9508     1.7908 F       
  43 H43            3.7428    -1.2828     0.7011 H       
  44 H44           -1.7028    -0.0462    -2.4382 H       
  45 H45           -3.6551    -1.5122    -2.7484 H       
  46 H46           -4.1170    -3.3090    -1.1312 H       
  47 H47           -2.6281    -3.6465     0.7990 H       
  48 H48           -0.6672    -2.1927     1.1126 H       
  49 H49            1.5629     3.5883     0.5376 H       
  50 H50            2.7615     3.1875    -0.7158 H       
  51 H51            1.1041     3.6396    -1.1815 H       
  52 H52           -0.7673     2.8064    -1.6794 H       
  53 H53           -1.8247     1.3838    -1.5169 H       
  54 H54           -2.7590     4.1629    -0.8590 H       
  55 H55           -3.7054     2.6763    -0.6087 H       
  56 H56           -3.8817     3.1956     1.8095 H       
  57 H57           -2.9353     4.6822     1.5593 H       
  58 H58           -4.5470     4.5185     0.8219 H       
  59 H59           -1.1597     0.9831     1.5151 H       
  60 H60           -2.5211     1.9528     2.1271 H       
  61 H61           -2.7715     0.8194     0.7777 H       
  62 H62           -0.5438     4.2689     0.2673 H       
  63 H63            5.6242     1.6510     1.4006 H       
  64 H64            8.3378    -2.3715     0.5067 H       
  65 H65            5.8961    -2.4462     0.2082 H       
  66 H66            9.1808    -0.0958     5.7757 H       
  67 H67            8.2650    -0.1261     3.4969 H       
  68 H68           12.1581    -0.4378     0.7399 H       
  69 H69           14.5420    -0.5515     1.2272 H       
  70 H70           13.7738    -0.3626     5.4267 H       
  71 H71           16.2564    -1.5134     1.9032 H       
  72 H72           16.3539     0.2628     1.8408 H       
  73 H73           17.5281    -0.6595     2.8097 H       
@<TRIPOS>BOND
   1    1    2 1
   2    1    5 1
   3    1   17 1
   4    2    3 am
   5    2    9 1
   6    3    4 1
   7    3   15 2
   8    4    5 2
   9    4    6 1
  10    5   16 1
  11    6    7 2
  12    6    8 am
  13    8   23 1
  14    8   43 1
  15    9   10 ar
  16    9   14 ar
  17   10   11 ar
  18   10   44 1
  19   11   12 ar
  20   11   45 1
  21   12   13 ar
  22   12   46 1
  23   13   14 ar
  24   13   47 1
  25   14   48 1
  26   16   49 1
  27   16   50 1
  28   16   51 1
  29   17   18 1
  30   17   52 1
  31   17   53 1
  32   18   19 1
  33   18   21 1
  34   18   22 1
  35   19   20 1
  36   19   54 1
  37   19   55 1
  38   20   56 1
  39   20   57 1
  40   20   58 1
  41   21   59 1
  42   21   60 1
  43   21   61 1
  44   22   62 1
  45   23   24 ar
  46   23   28 ar
  47   24   25 ar
  48   24   63 1
  49   25   26 ar
  50   25   42 1
  51   26   27 ar
  52   26   29 1
  53   27   28 ar
  54   27   64 1
  55   28   65 1
  56   29   33 1
  57   30   31 ar
  58   30   39 ar
  59   31   32 ar
  60   31   66 1
  61   32   33 ar
  62   32   67 1
  63   33   34 ar
  64   34   35 ar
  65   34   39 ar
  66   35   36 ar
  67   35   68 1
  68   36   37 ar
  69   36   69 1
  70   37   38 ar
  71   37   40 1
  72   38   39 ar
  73   38   70 1
  74   40   41 1
  75   41   71 1
  76   41   72 1
  77   41   73 1

#	End of record

