#	Name: ASD01208636
#	Creating user name:	WinNT
#	Creation time:	15. 06. 2019 19:10

#	Modifying user name:	WinNT
#	Modification time:	15. 06. 2019 19:10

#	Program:	/corina/corina34_cracker 3.40 0067  02.08.2006

@<TRIPOS>MOLECULE
ASD01208636
  50   52    0    0    0
SMALL
NO_CHARGES


@<TRIPOS>ATOM
   1 C1            -0.0167     1.3781     0.0096 C.ar    
   2 C2             0.0021    -0.0041     0.0020 C.ar    
   3 C3             1.2213    -0.6632    -0.0132 C.ar    
   4 C4             2.3826     0.0966    -0.0203 C.ar    
   5 C5             2.2848     1.4762    -0.0119 C.ar    
   6 N6             1.1067     2.0685     0.0026 N.ar    
   7 S7            -1.5603     2.2276     0.0215 S.o2    
   8 O8            -1.8443     2.5628    -1.3299 O.2     
   9 O9            -2.4366     1.4562     0.8316 O.2     
  10 N10           -1.3255     3.6598     0.8191 N.am    
  11 C11           -0.9210     4.8550     0.0748 C.3     
  12 C12           -2.1422     5.6652    -0.2765 C.ar    
  13 C13           -2.5959     6.6413     0.5914 C.ar    
  14 C14           -3.7151     7.3854     0.2716 C.ar    
  15 C15           -4.3838     7.1526    -0.9214 C.ar    
  16 C16           -3.9265     6.1727    -1.7905 C.ar    
  17 C17           -2.8036     5.4352    -1.4687 C.ar    
  18 O18           -5.4853     7.8830    -1.2379 O.3     
  19 C19           -6.1230     7.5889    -2.4825 C.3     
  20 C20           -1.5224     3.7315     2.2691 C.3     
  21 C21           -0.1996     3.5412     2.9656 C.ar    
  22 C22            0.5938     4.6369     3.2515 C.ar    
  23 C23            1.8067     4.4651     3.8899 C.ar    
  24 C24            2.2286     3.1919     4.2442 C.ar    
  25 C25            1.4307     2.0941     3.9562 C.ar    
  26 C26            0.2160     2.2718     3.3227 C.ar    
  27 O27            3.4216     3.0202     4.8719 O.3     
  28 C28            3.7917     1.6812     5.2070 C.3     
  29 Cl29           3.9378    -0.6746    -0.0387 Cl      
  30 H30           -0.9218    -0.5634     0.0082 H       
  31 H31            1.2664    -1.7422    -0.0191 H       
  32 H32            3.1835     2.0751    -0.0173 H       
  33 H33           -0.2506     5.4560     0.6891 H       
  34 H34           -0.4073     4.5572    -0.8393 H       
  35 H35           -2.0752     6.8218     1.5201 H       
  36 H36           -4.0693     8.1474     0.9500 H       
  37 H37           -4.4454     5.9896    -2.7198 H       
  38 H38           -2.4444     4.6755    -2.1471 H       
  39 H39           -6.9863     8.2417    -2.6115 H       
  40 H40           -5.4192     7.7515    -3.2987 H       
  41 H41           -6.4500     6.5491    -2.4864 H       
  42 H42           -1.9346     4.7057     2.5320 H       
  43 H43           -2.2133     2.9484     2.5811 H       
  44 H44            0.2651     5.6279     2.9752 H       
  45 H45            2.4263     5.3212     4.1127 H       
  46 H46            1.7569     1.1019     4.2310 H       
  47 H47           -0.4077     1.4180     3.1025 H       
  48 H48            4.7627     1.6857     5.7021 H       
  49 H49            3.0446     1.2544     5.8761 H       
  50 H50            3.8500     1.0822     4.2982 H       
@<TRIPOS>BOND
   1    1    2 ar
   2    1    6 ar
   3    1    7 1
   4    2    3 ar
   5    2   30 1
   6    3    4 ar
   7    3   31 1
   8    4    5 ar
   9    4   29 1
  10    5    6 ar
  11    5   32 1
  12    7    8 2
  13    7    9 2
  14    7   10 am
  15   10   11 1
  16   10   20 1
  17   11   12 1
  18   11   33 1
  19   11   34 1
  20   12   13 ar
  21   12   17 ar
  22   13   14 ar
  23   13   35 1
  24   14   15 ar
  25   14   36 1
  26   15   16 ar
  27   15   18 1
  28   16   17 ar
  29   16   37 1
  30   17   38 1
  31   18   19 1
  32   19   39 1
  33   19   40 1
  34   19   41 1
  35   20   21 1
  36   20   42 1
  37   20   43 1
  38   21   22 ar
  39   21   26 ar
  40   22   23 ar
  41   22   44 1
  42   23   24 ar
  43   23   45 1
  44   24   25 ar
  45   24   27 1
  46   25   26 ar
  47   25   46 1
  48   26   47 1
  49   27   28 1
  50   28   48 1
  51   28   49 1
  52   28   50 1

#	End of record

