#	Name: ASD05313182
#	Creating user name:	WinNT
#	Creation time:	15. 06. 2019 20:58

#	Modifying user name:	WinNT
#	Modification time:	15. 06. 2019 20:58

#	Program:	/corina/corina34_cracker 3.40 0067  02.08.2006

@<TRIPOS>MOLECULE
ASD05313182
  35   38    0    0    0
SMALL
NO_CHARGES


@<TRIPOS>ATOM
   1 C1            -0.0733     0.8208     1.0172 C.2     
   2 C2             0.1126    -0.6162     0.5921 C.3     
   3 N3             0.9366     1.7371     1.0432 N.pl3   
   4 N4             1.4565    -0.7161    -0.0080 N.am    
   5 C5             2.5713    -0.0366     0.6691 C.3     
   6 C6             2.3226     1.4766     0.6591 C.3     
   7 N7            -0.9007     2.6476     1.6971 N.2     
   8 N8            -1.1556     1.4157     1.4175 N.2     
   9 C9             0.3773     2.8982     1.4854 C.2     
  10 S10            2.8128     4.4790     1.7771 S.3     
  11 N11            2.6749     6.1530     2.0185 N.2     
  12 C12            1.4078     6.4455     2.0301 C.2     
  13 C13            0.5000     5.4304     1.8592 C.2     
  14 C14            1.0671     4.1842     1.6909 C.2     
  15 C15            1.6573    -1.4114    -1.1450 C.2     
  16 O16            2.7496    -1.4014    -1.6787 O.2     
  17 C17            0.5503    -2.1854    -1.7427 C.ar    
  18 C18            0.3190    -2.1300    -3.1197 C.ar    
  19 C19           -0.7188    -2.8576    -3.6721 C.ar    
  20 C20           -1.5276    -3.6395    -2.8615 C.ar    
  21 C21           -1.3013    -3.6963    -1.4964 C.ar    
  22 C22           -0.2656    -2.9799    -0.9348 C.ar    
  23 F23           -0.9454    -2.8064    -5.0030 F       
  24 Cl24          -2.8296    -4.5505    -3.5606 Cl      
  25 Cl25           1.3313    -1.1499    -4.1338 Cl      
  26 H26            0.0424    -1.2729     1.4592 H       
  27 H27           -0.6446    -0.8874    -0.1437 H       
  28 H28            2.6398    -0.3874     1.6988 H       
  29 H29            3.5024    -0.2557     0.1465 H       
  30 H30            2.5032     1.8691    -0.3416 H       
  31 H31            2.9942     1.9607     1.3681 H       
  32 H32            1.0774     7.4639     2.1713 H       
  33 H33           -0.5676     5.5935     1.8567 H       
  34 H34           -1.9354    -4.3067    -0.8705 H       
  35 H35           -0.0886    -3.0296     0.1294 H       
@<TRIPOS>BOND
   1    1    2 1
   2    1    3 1
   3    1    8 2
   4    2    4 1
   5    2   26 1
   6    2   27 1
   7    3    6 1
   8    3    9 1
   9    4    5 1
  10    4   15 am
  11    5    6 1
  12    5   28 1
  13    5   29 1
  14    6   30 1
  15    6   31 1
  16    7    8 1
  17    7    9 2
  18    9   14 1
  19   10   11 1
  20   10   14 1
  21   11   12 2
  22   12   13 1
  23   12   32 1
  24   13   14 2
  25   13   33 1
  26   15   16 2
  27   15   17 1
  28   17   18 ar
  29   17   22 ar
  30   18   19 ar
  31   18   25 1
  32   19   20 ar
  33   19   23 1
  34   20   21 ar
  35   20   24 1
  36   21   22 ar
  37   21   34 1
  38   22   35 1

#	End of record

