#	Name: ASD01882208
#	Creating user name:	WinNT
#	Creation time:	15. 06. 2019 19:44

#	Modifying user name:	WinNT
#	Modification time:	15. 06. 2019 19:44

#	Program:	/corina/corina34_cracker 3.40 0067  02.08.2006

@<TRIPOS>MOLECULE
ASD01882208
  51   53    0    0    0
SMALL
NO_CHARGES


@<TRIPOS>ATOM
   1 C1            -0.0187     1.5258     0.0104 C.3     
   2 C2             0.0021    -0.0041     0.0020 C.3     
   3 C3             0.7421    -0.5109     1.2415 C.3     
   4 C4             2.1775     0.0187     1.2307 C.3     
   5 C5             2.1567     1.5485     1.2391 C.3     
   6 C6             1.4167     2.0553    -0.0004 C.3     
   7 O7            -0.7098     1.9991    -1.1473 O.3     
   8 N8             2.8860    -0.4666     2.4176 N.pl3   
   9 C9             4.2714    -0.5805     2.4019 C.ar    
  10 C10            4.9447    -1.0423     3.5315 C.ar    
  11 C11            6.3166    -1.1557     3.5175 C.ar    
  12 C12            7.0331    -0.8075     2.3703 C.ar    
  13 C13            6.3563    -0.3452     1.2402 C.ar    
  14 C14            4.9841    -0.2386     1.2561 C.ar    
  15 O15            9.4878    -0.6254     1.2701 O.3     
  16 B16            8.5978    -0.9353     2.3518 Du      
  17 O17            9.4508    -1.3871     3.4132 O.3     
  18 C18           10.6003    -0.5166     3.3537 C.3     
  19 C19           10.6254    -0.0001     1.9007 C.3     
  20 C20           11.9206    -0.4253     1.2061 C.3     
  21 C21           10.4796     1.5227     1.8736 C.3     
  22 C22           10.4372     0.6492     4.3311 C.3     
  23 C23           11.8781    -1.2988     3.6636 C.3     
  24 Cl24           4.0529    -1.4742     4.9570 Cl      
  25 H25           -0.5289     1.8773     0.9072 H       
  26 H26           -1.0205    -0.3814     0.0098 H       
  27 H27            0.5123    -0.3556    -0.8948 H       
  28 H28            0.2319    -0.1594     2.1383 H       
  29 H29            0.7568    -1.6008     1.2356 H       
  30 H30            2.6876    -0.3328     0.3339 H       
  31 H31            1.6465     1.9000     2.1359 H       
  32 H32            3.1793     1.9258     1.2314 H       
  33 H33            1.9269     1.7038    -0.8972 H       
  34 H34            1.4019     3.1452     0.0056 H       
  35 H35           -0.7617     2.9629    -1.2077 H       
  36 H36            2.3885    -0.7085     3.2143 H       
  37 H37            6.8383    -1.5132     4.3929 H       
  38 H38            6.9088    -0.0755     0.3523 H       
  39 H39            4.4601     0.1145     0.3802 H       
  40 H40           11.8972    -0.1032     0.1650 H       
  41 H41           12.7709     0.0345     1.7097 H       
  42 H42           12.0163    -1.5103     1.2486 H       
  43 H43            9.5611     1.8090     2.3860 H       
  44 H44           11.3330     1.9784     2.3758 H       
  45 H45           10.4409     1.8657     0.8397 H       
  46 H46           10.3631     0.2633     5.3478 H       
  47 H47           11.3006     1.3103     4.2555 H       
  48 H48            9.5318     1.2046     4.0864 H       
  49 H49           11.9870    -2.1147     2.9490 H       
  50 H50           12.7384    -0.6336     3.5893 H       
  51 H51           11.8194    -1.7055     4.6732 H       
@<TRIPOS>BOND
   1    1    2 1
   2    1    6 1
   3    1    7 1
   4    1   25 1
   5    2    3 1
   6    2   26 1
   7    2   27 1
   8    3    4 1
   9    3   28 1
  10    3   29 1
  11    4    5 1
  12    4    8 1
  13    4   30 1
  14    5    6 1
  15    5   31 1
  16    5   32 1
  17    6   33 1
  18    6   34 1
  19    7   35 1
  20    8    9 1
  21    8   36 1
  22    9   10 ar
  23    9   14 ar
  24   10   11 ar
  25   10   24 1
  26   11   12 ar
  27   11   37 1
  28   12   13 ar
  29   12   16 1
  30   13   14 ar
  31   13   38 1
  32   14   39 1
  33   15   16 1
  34   15   19 1
  35   16   17 1
  36   17   18 1
  37   18   19 1
  38   18   22 1
  39   18   23 1
  40   19   20 1
  41   19   21 1
  42   20   40 1
  43   20   41 1
  44   20   42 1
  45   21   43 1
  46   21   44 1
  47   21   45 1
  48   22   46 1
  49   22   47 1
  50   22   48 1
  51   23   49 1
  52   23   50 1
  53   23   51 1

#	End of record

