#	Name: ASD00310056
#	Creating user name:	WinNT
#	Creation time:	15. 06. 2019 18:33

#	Modifying user name:	WinNT
#	Modification time:	15. 06. 2019 18:33

#	Program:	/corina/corina34_cracker 3.40 0067  02.08.2006

@<TRIPOS>MOLECULE
ASD00310056
  25   26    0    0    0
SMALL
NO_CHARGES


@<TRIPOS>ATOM
   1 N1            -0.0179     1.4706     0.0101 N.3     
   2 C2             0.0021    -0.0041     0.0020 C.3     
   3 C3             1.3613     0.0737    -0.7073 C.3     
   4 C4             1.4564     1.4350    -0.0041 C.3     
   5 C5             2.3823    -0.9561    -0.2195 C.3     
   6 O6             3.5628    -0.8728    -1.0205 O.3     
   7 C7             4.5760    -1.7263    -0.7168 C.ar    
   8 C8             5.7510    -1.6997    -1.4538 C.ar    
   9 C9             6.7796    -2.5681    -1.1435 C.ar    
  10 C10            6.6383    -3.4642    -0.0990 C.ar    
  11 C11            5.4674    -3.4923     0.6372 C.ar    
  12 C12            4.4387    -2.6214     0.3341 C.ar    
  13 Br13           8.0475    -4.6526     0.3227 Br      
  14 H14           -0.3793     1.8321    -0.8598 H       
  15 H15            0.0566    -0.4431     0.9982 H       
  16 H16           -0.7833    -0.4456    -0.6115 H       
  17 H17            1.2949     0.1361    -1.7935 H       
  18 H18            1.9036     2.2130    -0.6229 H       
  19 H19            1.8990     1.3800     0.9904 H       
  20 H20            2.6344    -0.7530     0.8213 H       
  21 H21            1.9572    -1.9564    -0.3018 H       
  22 H22            5.8614    -1.0008    -2.2697 H       
  23 H23            7.6945    -2.5477    -1.7170 H       
  24 H24            5.3591    -4.1926     1.4522 H       
  25 H25            3.5265    -2.6407     0.9119 H       
@<TRIPOS>BOND
   1    1    2 1
   2    1    4 1
   3    1   14 1
   4    2    3 1
   5    2   15 1
   6    2   16 1
   7    3    4 1
   8    3    5 1
   9    3   17 1
  10    4   18 1
  11    4   19 1
  12    5    6 1
  13    5   20 1
  14    5   21 1
  15    6    7 1
  16    7    8 ar
  17    7   12 ar
  18    8    9 ar
  19    8   22 1
  20    9   10 ar
  21    9   23 1
  22   10   11 ar
  23   10   13 1
  24   11   12 ar
  25   11   24 1
  26   12   25 1

#	End of record

