#	Name: ASD02030767
#	Creating user name:	WinNT
#	Creation time:	15. 06. 2019 20:16

#	Modifying user name:	WinNT
#	Modification time:	15. 06. 2019 20:16

#	Program:	/corina/corina34_cracker 3.40 0067  02.08.2006

@<TRIPOS>MOLECULE
ASD02030767
  41   44    0    0    0
SMALL
NO_CHARGES


@<TRIPOS>ATOM
   1 C1            -0.0196     1.4966     0.1791 C.3     
   2 C2             0.0015    -0.0069     0.0779 C.2     
   3 C3            -1.0388    -0.8183     0.0022 C.2     
   4 C4            -2.4412    -0.2668     0.0118 C.3     
   5 H5            -2.9104    -0.1583    -0.9661 H       
   6 C6            -2.7835     0.7748     1.0790 C.3     
   7 C7            -3.3416    -0.6463     1.1891 C.3     
   8 H8            -2.9196    -1.2949     1.9568 H       
   9 C9            -4.8317    -0.8440     0.9039 C.3     
  10 O10           -5.4864    -1.3044     2.0877 O.3     
  11 N11           -0.8229    -2.1712    -0.0857 N.am    
  12 C12            0.4836    -2.5549    -0.0862 C.2     
  13 S13            1.4268    -1.0589     0.0275 S.3     
  14 N14            0.8559    -3.8187    -0.1656 N.2     
  15 C15           -0.0348    -4.7993    -0.2506 C.2     
  16 C16            0.4163    -6.2345    -0.3397 C.3     
  17 N17            0.7048    -6.5698    -1.7364 N.pl3   
  18 N18           -0.2089    -7.0816    -2.6667 N.2     
  19 C19            0.4161    -7.2519    -3.8034 C.2     
  20 C20            1.7465    -6.8549    -3.6346 C.2     
  21 C21            1.8966    -6.4348    -2.3556 C.2     
  22 Cl22           3.3597    -5.8335    -1.6403 Cl      
  23 C23           -0.1924    -7.7846    -5.0750 C.3     
  24 F24           -1.5676    -7.9668    -4.8933 F       
  25 F25            0.0239    -6.8723    -6.1133 F       
  26 F26            0.4015    -9.0092    -5.3989 F       
  27 C27           -1.3778    -4.4879    -0.2558 C.2     
  28 C28           -1.7696    -3.1508    -0.1714 C.2     
  29 O29           -2.9551    -2.8585    -0.1747 O.2     
  30 H30            1.0027     1.8724     0.2197 H       
  31 H31           -0.5252     1.9124    -0.6924 H       
  32 H32           -0.5517     1.7924     1.0833 H       
  33 H33           -1.9943     1.0611     1.7742 H       
  34 H34           -3.4781     1.5683     0.8034 H       
  35 H35           -5.2706     0.1035     0.5911 H       
  36 H36           -4.9551    -1.5811     0.1104 H       
  37 H37           -6.4360    -1.4515     1.9801 H       
  38 H38            1.3163    -6.3704     0.2599 H       
  39 H39           -0.3722    -6.8871     0.0352 H       
  40 H40            2.5169    -6.8760    -4.3912 H       
  41 H41           -2.1191    -5.2703    -0.3243 H       
@<TRIPOS>BOND
   1    1    2 1
   2    1   30 1
   3    1   31 1
   4    1   32 1
   5    2   13 1
   6    2    3 2
   7    3    4 1
   8    3   11 1
   9    4    5 1
  10    4    7 1
  11    4    6 1
  12    6    7 1
  13    6   33 1
  14    6   34 1
  15    7    8 1
  16    7    9 1
  17    9   10 1
  18    9   35 1
  19    9   36 1
  20   10   37 1
  21   11   28 am
  22   11   12 1
  23   12   13 1
  24   12   14 2
  25   14   15 1
  26   15   16 1
  27   15   27 2
  28   16   17 1
  29   16   38 1
  30   16   39 1
  31   17   21 1
  32   17   18 1
  33   18   19 2
  34   19   20 1
  35   19   23 1
  36   20   21 2
  37   20   40 1
  38   21   22 1
  39   23   24 1
  40   23   25 1
  41   23   26 1
  42   27   28 1
  43   27   41 1
  44   28   29 2

#	End of record

