#	Name: ASD01901387
#	Creating user name:	WinNT
#	Creation time:	15. 06. 2019 19:53

#	Modifying user name:	WinNT
#	Modification time:	15. 06. 2019 19:53

#	Program:	/corina/corina34_cracker 3.40 0067  02.08.2006

@<TRIPOS>MOLECULE
ASD01901387
  37   40    0    0    0
SMALL
NO_CHARGES


@<TRIPOS>ATOM
   1 C1            -0.0169     1.3923     0.0097 C.ar    
   2 N2             1.1099     2.0778     0.0026 N.ar    
   3 C3             2.2871     1.4813    -0.0118 C.ar    
   4 C4             2.3879     0.1032    -0.0202 C.ar    
   5 C5             1.2331    -0.6621    -0.0133 C.ar    
   6 C6             0.0021    -0.0041     0.0020 C.ar    
   7 C7            -1.2656    -0.7757     0.0105 C.2     
   8 N8            -2.8420    -2.0961    -1.1497 N.2     
   9 C9            -1.7221    -1.4155    -1.1624 C.2     
  10 C10           -2.0048    -0.8817     1.1553 C.2     
  11 N11           -3.1644    -1.5985     1.1286 N.pl3   
  12 C12           -3.5766    -2.2009    -0.0321 C.2     
  13 C13           -4.1010    -1.8817     2.0859 C.2     
  14 C14           -5.0513    -2.6398     1.4990 C.2     
  15 N15           -4.7201    -2.8230     0.2175 N.2     
  16 C16           -6.2815    -3.1871     2.1759 C.3     
  17 O17           -6.2924    -2.7801     3.5457 O.3     
  18 C18           -7.3422    -3.1927     4.3036 C.ar    
  19 C19           -8.3382    -3.9782     3.7418 C.ar    
  20 C20           -7.4164    -2.8339     5.6415 C.ar    
  21 C21           -8.4859    -3.2558     6.4108 C.ar    
  22 C22           -9.4812    -4.0356     5.8451 C.ar    
  23 C23           -9.4049    -4.3976     4.5134 C.ar    
  24 F24           -8.5595    -2.9076     7.7141 F       
  25 F25           -1.1989     2.0462     0.0302 F       
  26 H26            3.1860     2.0799    -0.0176 H       
  27 H27            3.3574    -0.3726    -0.0324 H       
  28 H28            1.2840    -1.7409    -0.0200 H       
  29 H29           -1.1465    -1.3435    -2.0734 H       
  30 H30           -1.6754    -0.4054     2.0669 H       
  31 H31           -4.0827    -1.5598     3.1167 H       
  32 H32           -7.1716    -2.8050     1.6762 H       
  33 H33           -6.2728    -4.2757     2.1205 H       
  34 H34           -8.2800    -4.2615     2.7012 H       
  35 H35           -6.6398    -2.2262     6.0821 H       
  36 H36          -10.3157    -4.3648     6.4465 H       
  37 H37          -10.1799    -5.0090     4.0754 H       
@<TRIPOS>BOND
   1    1    6 ar
   2    1    2 ar
   3    1   25 1
   4    2    3 ar
   5    3    4 ar
   6    3   26 1
   7    4    5 ar
   8    4   27 1
   9    5    6 ar
  10    5   28 1
  11    6    7 1
  12    7   10 2
  13    7    9 1
  14    8    9 2
  15    8   12 1
  16    9   29 1
  17   10   11 1
  18   10   30 1
  19   11   13 1
  20   11   12 1
  21   12   15 2
  22   13   14 2
  23   13   31 1
  24   14   15 1
  25   14   16 1
  26   16   17 1
  27   16   32 1
  28   16   33 1
  29   17   18 1
  30   18   20 ar
  31   18   19 ar
  32   19   23 ar
  33   19   34 1
  34   20   21 ar
  35   20   35 1
  36   21   22 ar
  37   21   24 1
  38   22   23 ar
  39   22   36 1
  40   23   37 1

#	End of record

