#	Name: ASD09116095
#	Creating user name:	WinNT
#	Creation time:	15. 06. 2019 21:20

#	Modifying user name:	WinNT
#	Modification time:	15. 06. 2019 21:20

#	Program:	/corina/corina34_cracker 3.40 0067  02.08.2006

@<TRIPOS>MOLECULE
ASD09116095
  68   74    0    0    0
SMALL
NO_CHARGES


@<TRIPOS>ATOM
   1 C1             1.3146     1.4448     0.2007 C.ar    
   2 N2             1.1462     0.0632     0.2583 N.pl3   
   3 N3             2.1157    -0.8893     0.6115 N.2     
   4 C4             1.5422    -2.0661     0.5369 C.2     
   5 N5             0.2684    -1.9104     0.1574 N.2     
   6 C6             0.0085    -0.6315    -0.0106 C.2     
   7 N7            -1.2021    -0.0914    -0.3993 N.pl3   
   8 N8             2.1612    -3.2860     0.8092 N.pl3   
   9 C9             2.5523     2.0258     0.5129 C.ar    
  10 N10            0.3083     2.2327    -0.1558 N.ar    
  11 C11            0.4627     3.5432    -0.2125 C.ar    
  12 N12            1.5965     4.1325     0.0738 N.ar    
  13 C13            2.6819     3.4166     0.4429 C.ar    
  14 C14            1.4141    -4.4668     0.7970 C.ar    
  15 C15            1.9929    -5.6682     0.4154 C.ar    
  16 C16            1.2512    -6.8338     0.4048 C.ar    
  17 C17           -0.0947    -6.8426     0.7105 C.ar    
  18 C18           -0.6562    -5.6228     1.1240 C.ar    
  19 C19            0.0759    -4.4648     1.1724 C.ar    
  20 C20            3.9714     3.8532     0.7854 C.2     
  21 C21            4.8346     2.9028     1.1069 C.2     
  22 S22            4.0830     1.3192     1.0091 S.3     
  23 C23            4.3490     5.3121     0.7865 C.3     
  24 C24            1.9842    -8.1278     0.1212 C.3     
  25 C25            2.1501    -8.9711     1.3835 C.3     
  26 C26            0.8092    -9.2783     2.0312 C.3     
  27 N27            0.0531   -10.0924     1.1017 N.3     
  28 C28           -0.5560    -9.2639     0.0622 C.3     
  29 C29           -1.1093    -7.9539     0.6063 C.3     
  30 C30           -0.9630   -10.8874     1.8041 C.3     
  31 C31           -1.7223   -11.8080     0.8005 C.3     
  32 C32           -0.2920   -11.8626     2.7982 C.3     
  33 C33           -0.7090   -13.2806     2.3016 C.3     
  34 C34           -0.7550   -13.0430     0.7508 C.3     
  35 C35           -2.9027   -12.3997     1.6299 C.3     
  36 C36           -2.2317   -13.3749     2.6239 C.3     
  37 H37           -1.9583    -0.6727    -0.5758 H       
  38 H38           -1.2960     0.8693    -0.4959 H       
  39 H39            3.1104    -3.3146     1.0071 H       
  40 H40           -0.3790     4.1525    -0.5068 H       
  41 H41            3.0324    -5.6927     0.1237 H       
  42 H42           -1.6956    -5.5974     1.4160 H       
  43 H43           -0.3911    -3.5461     1.4955 H       
  44 H44            5.8616     3.0778     1.3918 H       
  45 H45            4.1538     5.7372     1.7711 H       
  46 H46            5.4084     5.4133     0.5506 H       
  47 H47            3.7581     5.8410     0.0387 H       
  48 H48            1.4220    -8.7000    -0.6168 H       
  49 H49            2.9695    -7.8965    -0.2834 H       
  50 H50            2.6433    -9.9079     1.1239 H       
  51 H51            2.7735    -8.4292     2.0947 H       
  52 H52            0.9636    -9.8247     2.9616 H       
  53 H53            0.2734    -8.3505     2.2318 H       
  54 H54            0.1951    -9.0412    -0.6957 H       
  55 H55           -1.3680    -9.8230    -0.4028 H       
  56 H56           -1.5229    -8.1386     1.5977 H       
  57 H57           -1.9183    -7.6233    -0.0452 H       
  58 H58           -1.6630   -10.2336     2.3244 H       
  59 H59           -1.9787   -11.3580    -0.1586 H       
  60 H60            0.7919   -11.7522     2.7657 H       
  61 H61           -0.6623   -11.6897     3.8087 H       
  62 H62           -0.0868   -14.1075     2.6439 H       
  63 H63           -1.1965   -13.8870     0.2208 H       
  64 H64            0.2233   -12.7801     0.3484 H       
  65 H65           -3.4238   -11.6077     2.1677 H       
  66 H66           -3.5932   -12.9360     0.9789 H       
  67 H67           -2.5923   -14.3907     2.4617 H       
  68 H68           -2.4228   -13.0623     3.6505 H       
@<TRIPOS>BOND
   1    1    2 1
   2    1    9 ar
   3    1   10 ar
   4    2    3 1
   5    2    6 1
   6    3    4 2
   7    4    5 1
   8    4    8 1
   9    5    6 2
  10    6    7 1
  11    7   37 1
  12    7   38 1
  13    8   14 1
  14    8   39 1
  15    9   13 ar
  16    9   22 1
  17   10   11 ar
  18   11   12 ar
  19   11   40 1
  20   12   13 ar
  21   13   20 1
  22   14   15 ar
  23   14   19 ar
  24   15   16 ar
  25   15   41 1
  26   16   17 ar
  27   16   24 1
  28   17   18 ar
  29   17   29 1
  30   18   19 ar
  31   18   42 1
  32   19   43 1
  33   20   21 2
  34   20   23 1
  35   21   22 1
  36   21   44 1
  37   23   45 1
  38   23   46 1
  39   23   47 1
  40   24   25 1
  41   24   48 1
  42   24   49 1
  43   25   26 1
  44   25   50 1
  45   25   51 1
  46   26   27 1
  47   26   52 1
  48   26   53 1
  49   27   28 1
  50   27   30 1
  51   28   29 1
  52   28   54 1
  53   28   55 1
  54   29   56 1
  55   29   57 1
  56   30   31 1
  57   30   32 1
  58   30   58 1
  59   31   34 1
  60   31   35 1
  61   31   59 1
  62   32   33 1
  63   32   60 1
  64   32   61 1
  65   33   34 1
  66   33   36 1
  67   33   62 1
  68   34   63 1
  69   34   64 1
  70   35   36 1
  71   35   65 1
  72   35   66 1
  73   36   67 1
  74   36   68 1

#	End of record

