#	Name: ASD01901240
#	Creating user name:	WinNT
#	Creation time:	15. 06. 2019 19:53

#	Modifying user name:	WinNT
#	Modification time:	15. 06. 2019 19:53

#	Program:	/corina/corina34_cracker 3.40 0067  02.08.2006

@<TRIPOS>MOLECULE
ASD01901240
  43   46    0    0    0
SMALL
NO_CHARGES


@<TRIPOS>ATOM
   1 C1            -0.0166     1.3750     0.0096 C.ar    
   2 C2             0.0021    -0.0041     0.0020 C.ar    
   3 C3             1.2078    -0.6830    -0.0127 C.ar    
   4 C4             2.4027     0.0149    -0.0199 C.ar    
   5 C5             2.3997     1.3941    -0.0129 C.ar    
   6 C6             1.1860     2.0866     0.0019 C.ar    
   7 C7             1.1748     3.5185     0.0093 C.1     
   8 C8             1.1656     4.6925     0.0153 C.1     
   9 C9             1.1543     6.1244     0.0226 C.ar    
  10 C10           -0.0666     8.1943     0.0502 C.ar    
  11 C11           -0.0605     6.8156     0.0432 C.ar    
  12 C12            2.3585     6.8349     0.0149 C.ar    
  13 C13            2.3438     8.2124     0.0219 C.ar    
  14 C14            1.1340     8.8967     0.0367 C.ar    
  15 N15            1.1239    10.2969     0.0433 N.am    
  16 N16            1.1323    12.2907     1.3031 N.am    
  17 C17            1.1409    10.9494     1.2161 C.2     
  18 C18            1.1027    10.9643    -1.1306 C.2     
  19 C19            1.1052    13.0734     0.1564 C.ar    
  20 O20            1.0919    10.3647    -2.1886 O.2     
  21 Cl21          -1.5742     9.0546     0.0752 Cl      
  22 O22            1.1648    10.2995     2.2434 O.2     
  23 C23            1.0924    12.4364    -1.0972 C.ar    
  24 C24            1.0965    14.4587     0.2224 C.ar    
  25 C25            1.0711    13.1954    -2.2663 C.ar    
  26 C26            1.0626    14.5708    -2.1842 C.ar    
  27 C27            1.0757    15.2015    -0.9464 C.ar    
  28 C28            1.1517    12.9328     2.6198 C.3     
  29 F29            1.1139    15.0809     1.4215 F       
  30 F30            1.0672    16.5509    -0.8822 F       
  31 H31           -0.9584     1.9035     0.0169 H       
  32 H32           -0.9266    -0.5554     0.0079 H       
  33 H33            1.2163    -1.7630    -0.0182 H       
  34 H34            3.3399    -0.5217    -0.0306 H       
  35 H35            3.3330     1.9375    -0.0185 H       
  36 H36           -0.9928     6.2705     0.0533 H       
  37 H37            3.2991     6.3044     0.0038 H       
  38 H38            3.2737     8.7615     0.0164 H       
  39 H39            1.0616    12.7085    -3.2303 H       
  40 H40            1.0461    15.1623    -3.0877 H       
  41 H41            1.1718    12.1683     3.3965 H       
  42 H42            2.0386    13.5607     2.7049 H       
  43 H43            0.2590    13.5471     2.7376 H       
@<TRIPOS>BOND
   1    1    2 ar
   2    1    6 ar
   3    1   31 1
   4    2    3 ar
   5    2   32 1
   6    3    4 ar
   7    3   33 1
   8    4    5 ar
   9    4   34 1
  10    5    6 ar
  11    5   35 1
  12    6    7 1
  13    7    8 3
  14    8    9 1
  15    9   12 ar
  16    9   11 ar
  17   10   11 ar
  18   10   14 ar
  19   10   21 1
  20   11   36 1
  21   12   13 ar
  22   12   37 1
  23   13   14 ar
  24   13   38 1
  25   14   15 1
  26   15   18 am
  27   15   17 am
  28   16   17 am
  29   16   19 1
  30   16   28 1
  31   17   22 2
  32   18   23 1
  33   18   20 2
  34   19   23 ar
  35   19   24 ar
  36   23   25 ar
  37   24   27 ar
  38   24   29 1
  39   25   26 ar
  40   25   39 1
  41   26   27 ar
  42   26   40 1
  43   27   30 1
  44   28   41 1
  45   28   42 1
  46   28   43 1

#	End of record

