#	Name: ASD09116393
#	Creating user name:	WinNT
#	Creation time:	15. 06. 2019 21:21

#	Modifying user name:	WinNT
#	Modification time:	15. 06. 2019 21:21

#	Program:	/corina/corina34_cracker 3.40 0067  02.08.2006

@<TRIPOS>MOLECULE
ASD09116393
  72   78    0    0    0
SMALL
NO_CHARGES


@<TRIPOS>ATOM
   1 N1            -0.0158     1.2504    -0.1497 N.2     
   2 N2            -0.0254    -0.0894    -0.5701 N.pl3   
   3 C3             1.2358     1.6424    -0.1492 C.2     
   4 N4             2.0113     0.6261    -0.5448 N.2     
   5 C5             1.2648    -0.4264    -0.8025 C.2     
   6 N6             1.7181    -1.6587    -1.2336 N.pl3   
   7 C7            -1.1445    -0.9113    -0.7188 C.ar    
   8 N8             1.6860     2.9140     0.2058 N.pl3   
   9 C9             3.0597     3.1778     0.2699 C.ar    
  10 C10            3.5354     4.4537    -0.0051 C.ar    
  11 C11            3.9454     2.1656     0.6139 C.ar    
  12 C12            5.3011     2.4250     0.6775 C.ar    
  13 C13            5.7783     3.6975     0.3980 C.ar    
  14 C14            4.8913     4.7136     0.0583 C.ar    
  15 N15           -1.1065    -1.9376    -1.5549 N.ar    
  16 N16           -2.1151    -2.7107    -1.7423 N.ar    
  17 C17           -3.2645    -2.5241    -1.1054 C.ar    
  18 C18           -3.3827    -1.4952    -0.1747 C.ar    
  19 C19           -2.3027    -0.6551     0.0184 C.ar    
  20 C20           -4.4439    -3.3622    -1.4184 C.ar    
  21 C21           -5.6570    -2.7475    -1.7458 C.ar    
  22 S22           -5.7343    -0.9886    -1.8286 S.3     
  23 C23           -5.6763    -0.4900    -0.0800 C.3     
  24 C24           -4.6307    -1.3465     0.6405 C.3     
  25 C25           -4.3597    -4.7508    -1.3867 C.ar    
  26 C26           -5.4803    -5.5098    -1.6632 C.ar    
  27 C27           -6.6838    -4.8982    -1.9690 C.ar    
  28 C28           -6.7774    -3.5192    -2.0106 C.ar    
  29 F29            5.3554     5.9528    -0.2140 F       
  30 N30            7.1533     3.9602     0.4629 N.3     
  31 C31            7.6757     3.7000     1.8105 C.3     
  32 C32            7.4474     5.3340     0.0356 C.3     
  33 C33            8.9630     5.5389    -0.0201 C.3     
  34 C34            9.5598     5.2767     1.3654 C.3     
  35 C35            9.1981     3.8561     1.8078 C.3     
  36 N36           11.0210     5.4149     1.3047 N.3     
  37 C37           11.4069     6.7897     0.9373 C.3     
  38 C38           11.6390     5.0844     2.6064 C.3     
  39 C39           12.8675     6.0223     2.7106 C.3     
  40 C40           12.3265     7.3211     2.0569 C.3     
  41 H41            2.6670    -1.8051    -1.3723 H       
  42 H42            1.0875    -2.3773    -1.3974 H       
  43 H43            1.0475     3.6156     0.4082 H       
  44 H44            2.8460     5.2421    -0.2688 H       
  45 H45            3.5746     1.1751     0.8323 H       
  46 H46            5.9895     1.6370     0.9452 H       
  47 H47           -2.3552     0.1744     0.7080 H       
  48 H48           -5.3994     0.5619    -0.0087 H       
  49 H49           -6.6537    -0.6449     0.3770 H       
  50 H50           -5.0504    -2.3341     0.8319 H       
  51 H51           -4.3804    -0.8771     1.5919 H       
  52 H52           -3.4232    -5.2326    -1.1477 H       
  53 H53           -5.4169    -6.5877    -1.6410 H       
  54 H54           -7.5552    -5.5017    -2.1761 H       
  55 H55           -7.7187    -3.0460    -2.2481 H       
  56 H56            7.2390     4.4101     2.5127 H       
  57 H57            7.4153     2.6852     2.1112 H       
  58 H58            7.0211     5.5060    -0.9527 H       
  59 H59            7.0118     6.0365     0.7461 H       
  60 H60            9.3977     4.8461    -0.7406 H       
  61 H61            9.1808     6.5633    -0.3222 H       
  62 H62            9.1544     5.9946     2.0785 H       
  63 H63            9.5840     3.6782     2.8116 H       
  64 H64            9.6365     3.1369     1.1160 H       
  65 H65           11.9434     6.7833    -0.0115 H       
  66 H66           10.5182     7.4160     0.8590 H       
  67 H67           10.9404     5.2824     3.4194 H       
  68 H68           11.9554     4.0415     2.6224 H       
  69 H69           13.1406     6.1937     3.7518 H       
  70 H70           13.7116     5.6241     2.1476 H       
  71 H71           13.1423     7.9105     1.6383 H       
  72 H72           11.7568     7.9071     2.7780 H       
@<TRIPOS>BOND
   1    1    2 1
   2    1    3 2
   3    2    7 1
   4    2    5 1
   5    3    4 1
   6    3    8 1
   7    4    5 2
   8    5    6 1
   9    6   41 1
  10    6   42 1
  11    7   15 ar
  12    7   19 ar
  13    8    9 1
  14    8   43 1
  15    9   10 ar
  16    9   11 ar
  17   10   14 ar
  18   10   44 1
  19   11   12 ar
  20   11   45 1
  21   12   13 ar
  22   12   46 1
  23   13   14 ar
  24   13   30 1
  25   14   29 1
  26   15   16 ar
  27   16   17 ar
  28   17   18 ar
  29   17   20 1
  30   18   19 ar
  31   18   24 1
  32   19   47 1
  33   20   21 ar
  34   20   25 ar
  35   21   22 1
  36   21   28 ar
  37   22   23 1
  38   23   24 1
  39   23   48 1
  40   23   49 1
  41   24   50 1
  42   24   51 1
  43   25   26 ar
  44   25   52 1
  45   26   27 ar
  46   26   53 1
  47   27   28 ar
  48   27   54 1
  49   28   55 1
  50   30   31 1
  51   30   32 1
  52   31   35 1
  53   31   56 1
  54   31   57 1
  55   32   33 1
  56   32   58 1
  57   32   59 1
  58   33   34 1
  59   33   60 1
  60   33   61 1
  61   34   35 1
  62   34   36 1
  63   34   62 1
  64   35   63 1
  65   35   64 1
  66   36   37 1
  67   36   38 1
  68   37   40 1
  69   37   65 1
  70   37   66 1
  71   38   39 1
  72   38   67 1
  73   38   68 1
  74   39   40 1
  75   39   69 1
  76   39   70 1
  77   40   71 1
  78   40   72 1

#	End of record

