#	Name: ASD03740249
#	Creating user name:	WinNT
#	Creation time:	15. 06. 2019 20:46

#	Modifying user name:	WinNT
#	Modification time:	15. 06. 2019 20:46

#	Program:	/corina/corina34_cracker 3.40 0067  02.08.2006

@<TRIPOS>MOLECULE
ASD03740249
  45   46    0    0    0
SMALL
NO_CHARGES


@<TRIPOS>ATOM
   1 N1            -0.0161     1.3337     0.0094 N.am    
   2 C2             0.0021    -0.0041     0.0020 C.2     
   3 O3            -0.9989    -0.6934     0.0079 O.2     
   4 N4             1.2521    -0.5010    -0.0126 N.am    
   5 C5             2.1651     0.6551    -0.0151 C.3     
   6 C6             1.2297     1.8478     0.0002 C.2     
   7 O7             1.5380     3.0203     0.0032 O.2     
   8 C8             3.0474     0.6469     1.2348 C.3     
   9 C9             3.9025    -0.6218     1.2472 C.3     
  10 C10            3.9587     1.8759     1.2239 C.3     
  11 C11           -1.2391     2.1401     0.0197 C.3     
  12 C12           -1.6512     2.4094     1.4440 C.ar    
  13 C13           -1.1812     3.5324     2.0990 C.ar    
  14 C14           -1.5592     3.7794     3.4055 C.ar    
  15 C15           -2.4076     2.9037     4.0569 C.ar    
  16 C16           -2.8783     1.7812     3.4017 C.ar    
  17 C17           -2.5037     1.5365     2.0937 C.ar    
  18 C18           -2.8189     3.1724     5.4816 C.3     
  19 C19           -3.5457     4.5166     5.5576 C.3     
  20 C20           -3.7530     2.0597     5.9613 C.3     
  21 C21           -1.5755     3.2139     6.3722 C.3     
  22 H22            1.5033    -1.4379    -0.0195 H       
  23 H23            2.7766     0.6589    -0.9174 H       
  24 H24            2.4177     0.6694     2.1242 H       
  25 H25            4.5322    -0.6443     0.3578 H       
  26 H26            4.5311    -0.6276     2.1377 H       
  27 H27            3.2533    -1.4974     1.2550 H       
  28 H28            3.3495     2.7798     1.2150 H       
  29 H29            4.5873     1.8701     2.1143 H       
  30 H30            4.5884     1.8535     0.3345 H       
  31 H31           -1.0551     3.0857    -0.4903 H       
  32 H32           -2.0350     1.5997    -0.4928 H       
  33 H33           -0.5184     4.2166     1.5901 H       
  34 H34           -1.1915     4.6563     3.9175 H       
  35 H35           -3.5408     1.0968     3.9107 H       
  36 H36           -2.8745     0.6615     1.5805 H       
  37 H37           -4.4315     4.4871     4.9232 H       
  38 H38           -3.8432     4.7110     6.5881 H       
  39 H39           -2.8802     5.3093     5.2159 H       
  40 H40           -3.2351     1.1021     5.9071 H       
  41 H41           -4.0504     2.2541     6.9917 H       
  42 H42           -4.6388     2.0301     5.3268 H       
  43 H43           -0.9100     4.0066     6.0304 H       
  44 H44           -1.8730     3.4082     7.4026 H       
  45 H45           -1.0577     2.2562     6.3180 H       
@<TRIPOS>BOND
   1    1    2 am
   2    1    6 am
   3    1   11 1
   4    2    3 2
   5    2    4 am
   6    4    5 1
   7    4   22 1
   8    5    6 1
   9    5    8 1
  10    5   23 1
  11    6    7 2
  12    8    9 1
  13    8   10 1
  14    8   24 1
  15    9   25 1
  16    9   26 1
  17    9   27 1
  18   10   28 1
  19   10   29 1
  20   10   30 1
  21   11   12 1
  22   11   31 1
  23   11   32 1
  24   12   13 ar
  25   12   17 ar
  26   13   14 ar
  27   13   33 1
  28   14   15 ar
  29   14   34 1
  30   15   16 ar
  31   15   18 1
  32   16   17 ar
  33   16   35 1
  34   17   36 1
  35   18   19 1
  36   18   20 1
  37   18   21 1
  38   19   37 1
  39   19   38 1
  40   19   39 1
  41   20   40 1
  42   20   41 1
  43   20   42 1
  44   21   43 1
  45   21   44 1
  46   21   45 1

#	End of record

