#	Name: ASD04910417
#	Creating user name:	WinNT
#	Creation time:	15. 06. 2019 20:55

#	Modifying user name:	WinNT
#	Modification time:	15. 06. 2019 20:55

#	Program:	/corina/corina34_cracker 3.40 0067  02.08.2006

@<TRIPOS>MOLECULE
ASD04910417
  58   60    0    0    0
SMALL
NO_CHARGES


@<TRIPOS>ATOM
   1 C1            -0.0184     1.5028     0.0103 C.2     
   2 C2             0.0021    -0.0041     0.0020 C.3     
   3 C3             1.4513    -0.4944    -0.0145 C.3     
   4 O4             1.0197     2.1211     0.0037 O.2     
   5 O5            -1.1898     2.1580     0.0194 O.3     
   6 C6             2.6473    -2.6171    -0.0373 C.2     
   7 C7             2.6674    -4.0955    -0.0454 C.ar    
   8 C8             3.8838    -4.7796    -0.0607 C.ar    
   9 C9             3.8952    -6.1613    -0.0683 C.ar    
  10 C10            2.7018    -6.8660    -0.0607 C.ar    
  11 C11            1.4943    -6.1921    -0.0456 C.ar    
  12 C12            1.4701    -4.8125    -0.0321 C.ar    
  13 O13            3.6916    -1.9951    -0.0439 O.2     
  14 N14            1.4712    -1.9592    -0.0225 N.am    
  15 C15            2.7201    -8.3729    -0.0695 C.3     
  16 C16            2.8660    -8.8896     1.3632 C.3     
  17 C17            3.0099   -10.4127     1.3439 C.3     
  18 C18            3.1558   -10.9293     2.7766 C.3     
  19 N19            1.4688    -8.8731    -0.6440 N.pl3   
  20 C20            2.5700   -10.9274    -1.2897 C.ar    
  21 C21            1.4289   -10.1381    -1.2387 C.ar    
  22 C22            0.2433   -10.6229    -1.7875 C.ar    
  23 C23            0.2508   -11.8803    -2.3652 C.ar    
  24 C24            1.4312   -12.6124    -2.3790 C.ar    
  25 N25            2.5391   -12.1211    -1.8485 N.ar    
  26 N26            1.4486   -13.8851    -2.9610 N.pl3   
  27 N27            0.3607   -14.5342    -3.5593 N.2     
  28 C28            0.7655   -15.7026    -3.9873 C.2     
  29 C29            2.1231   -15.8394    -3.6777 C.2     
  30 C30            2.5245   -14.7088    -3.0519 C.2     
  31 C31            2.9875   -17.0335    -3.9909 C.3     
  32 F32            2.2228   -18.0030    -4.6485 F       
  33 F33            4.0477   -16.6387    -4.8138 F       
  34 F34            3.4943   -17.5672    -2.8012 F       
  35 F35            5.0711    -6.8261    -0.0835 F       
  36 H36           -0.4983    -0.3791     0.8948 H       
  37 H37           -0.5153    -0.3696    -0.8850 H       
  38 H38            1.9516    -0.1193    -0.9073 H       
  39 H39            1.9686    -0.1289     0.8726 H       
  40 H40           -1.1523     3.1243     0.0245 H       
  41 H41            4.8138    -4.2305    -0.0669 H       
  42 H42            0.5678    -6.7470    -0.0397 H       
  43 H43            0.5261    -4.2882    -0.0157 H       
  44 H44            0.6378    -2.4556    -0.0172 H       
  45 H45            3.5605    -8.7225    -0.6692 H       
  46 H46            3.7507    -8.4468     1.8208 H       
  47 H47            1.9828    -8.6153     1.9400 H       
  48 H48            2.1252   -10.8554     0.8863 H       
  49 H49            3.8931   -10.6869     0.7671 H       
  50 H50            2.2725   -10.6551     3.3535 H       
  51 H51            3.2582   -12.0144     2.7629 H       
  52 H52            4.0405   -10.4866     3.2342 H       
  53 H53            0.6678    -8.3269    -0.6118 H       
  54 H54            3.4942   -10.5577    -0.8708 H       
  55 H55           -0.6600   -10.0315    -1.7622 H       
  56 H56           -0.6502   -12.2876    -2.7997 H       
  57 H57            0.1556   -16.4363    -4.4934 H       
  58 H58            3.5198   -14.5002    -2.6882 H       
@<TRIPOS>BOND
   1    1    2 1
   2    1    4 2
   3    1    5 1
   4    2    3 1
   5    2   36 1
   6    2   37 1
   7    3   14 1
   8    3   38 1
   9    3   39 1
  10    5   40 1
  11    6    7 1
  12    6   13 2
  13    6   14 am
  14    7    8 ar
  15    7   12 ar
  16    8    9 ar
  17    8   41 1
  18    9   10 ar
  19    9   35 1
  20   10   11 ar
  21   10   15 1
  22   11   12 ar
  23   11   42 1
  24   12   43 1
  25   14   44 1
  26   15   16 1
  27   15   19 1
  28   15   45 1
  29   16   17 1
  30   16   46 1
  31   16   47 1
  32   17   18 1
  33   17   48 1
  34   17   49 1
  35   18   50 1
  36   18   51 1
  37   18   52 1
  38   19   21 1
  39   19   53 1
  40   20   21 ar
  41   20   25 ar
  42   20   54 1
  43   21   22 ar
  44   22   23 ar
  45   22   55 1
  46   23   24 ar
  47   23   56 1
  48   24   25 ar
  49   24   26 1
  50   26   27 1
  51   26   30 1
  52   27   28 2
  53   28   29 1
  54   28   57 1
  55   29   30 2
  56   29   31 1
  57   30   58 1
  58   31   32 1
  59   31   33 1
  60   31   34 1

#	End of record

