#	Name: ASD01916016
#	Creating user name:	WinNT
#	Creation time:	15. 06. 2019 20:06

#	Modifying user name:	WinNT
#	Modification time:	15. 06. 2019 20:06

#	Program:	/corina/corina34_cracker 3.40 0067  02.08.2006

@<TRIPOS>MOLECULE
ASD01916016
  44   46    0    0    0
SMALL
NO_CHARGES


@<TRIPOS>ATOM
   1 C1            -0.0242     1.4051    -0.1226 C.ar    
   2 C2            -0.0161     0.0566     0.2618 C.ar    
   3 C3            -1.2201    -0.6183     0.3125 C.ar    
   4 C4            -2.3951     0.0585    -0.0179 C.ar    
   5 C5            -3.6885    -0.6573     0.0344 C.2     
   6 N6            -4.8383     0.0362     0.1509 N.am    
   7 O7            -3.7145    -1.8710    -0.0277 O.2     
   8 C8             1.1979     2.1484    -0.1905 C.1     
   9 C9             2.1998     2.7578    -0.2462 C.1     
  10 C10            3.4218     3.5012    -0.3141 C.ar    
  11 C11            3.4057     4.8445    -0.6980 C.ar    
  12 C12            5.8092     3.6088    -0.0578 C.ar    
  13 C13            4.5890     5.5550    -0.7606 C.ar    
  14 N14           -2.3679     1.3371    -0.3783 N.ar    
  15 C15           -1.2450     2.0132    -0.4450 C.ar    
  16 C16            4.6357     2.8877     0.0090 C.ar    
  17 C17            5.7885     4.9375    -0.4437 C.ar    
  18 C18           -4.8263     1.4898     0.3796 C.3     
  19 F19            4.5767     6.8539    -1.1319 F       
  20 C20           -5.7536     2.1485    -0.6481 C.3     
  21 O21           -7.0319     1.5098    -0.6063 O.3     
  22 C22           -7.0059     0.1246    -0.9591 C.3     
  23 C23           -6.1427    -0.6369     0.0470 C.3     
  24 C24           -8.4299    -0.4345    -0.9399 C.3     
  25 C25           -6.4120    -0.0347    -2.3602 C.3     
  26 H26            0.9087    -0.4420     0.5118 H       
  27 H27           -1.2519    -1.6577     0.6039 H       
  28 H28            2.4712     5.3259    -0.9454 H       
  29 H29            6.7476     3.1341     0.1881 H       
  30 H30           -1.2630     3.0514    -0.7417 H       
  31 H31            4.6544     1.8509     0.3108 H       
  32 H32            6.7108     5.4971    -0.4938 H       
  33 H33           -5.1823     1.7058     1.3869 H       
  34 H34           -3.8129     1.8722     0.2579 H       
  35 H35           -5.8672     3.2063    -0.4106 H       
  36 H36           -5.3260     2.0424    -1.6451 H       
  37 H37           -6.0021    -1.6631    -0.2926 H       
  38 H38           -6.6289    -0.6359     1.0226 H       
  39 H39           -9.0441     0.1111    -1.6563 H       
  40 H40           -8.4093    -1.4905    -1.2090 H       
  41 H41           -8.8508    -0.3223     0.0593 H       
  42 H42           -5.3968     0.3619    -2.3718 H       
  43 H43           -6.3925    -1.0910    -2.6285 H       
  44 H44           -7.0237     0.5113    -3.0783 H       
@<TRIPOS>BOND
   1    1    2 ar
   2    1    8 1
   3    1   15 ar
   4    2    3 ar
   5    2   26 1
   6    3    4 ar
   7    3   27 1
   8    4   14 ar
   9    4    5 1
  10    5    6 am
  11    5    7 2
  12    6   18 1
  13    6   23 1
  14    8    9 3
  15    9   10 1
  16   10   11 ar
  17   10   16 ar
  18   11   13 ar
  19   11   28 1
  20   12   17 ar
  21   12   16 ar
  22   12   29 1
  23   13   19 1
  24   13   17 ar
  25   14   15 ar
  26   15   30 1
  27   16   31 1
  28   17   32 1
  29   18   20 1
  30   18   33 1
  31   18   34 1
  32   20   21 1
  33   20   35 1
  34   20   36 1
  35   21   22 1
  36   22   23 1
  37   22   24 1
  38   22   25 1
  39   23   37 1
  40   23   38 1
  41   24   39 1
  42   24   40 1
  43   24   41 1
  44   25   42 1
  45   25   43 1
  46   25   44 1

#	End of record

