#	Name: ASD01815941
#	Creating user name:	WinNT
#	Creation time:	15. 06. 2019 19:34

#	Modifying user name:	WinNT
#	Modification time:	15. 06. 2019 19:34

#	Program:	/corina/corina34_cracker 3.40 0067  02.08.2006

@<TRIPOS>MOLECULE
ASD01815941
  44   48    0    0    0
SMALL
NO_CHARGES


@<TRIPOS>ATOM
   1 C1             1.1830     2.2590    -0.5283 C.ar    
   2 C2             0.8000     0.9279    -0.5119 C.ar    
   3 C3             1.7388    -0.0729    -0.3550 C.ar    
   4 C4             3.0856     0.2501    -0.2117 C.ar    
   5 C5             3.4711     1.6003    -0.2292 C.ar    
   6 C6             2.5146     2.6010    -0.3877 C.ar    
   7 N7             4.0318    -0.7489    -0.0535 N.pl3   
   8 C8             5.3427    -0.4979     0.0894 C.2     
   9 C9             5.8368     0.7831     0.0879 C.2     
  10 C10            4.9028     1.9204    -0.0758 C.2     
  11 C11            7.1577     1.3907     0.2157 C.2     
  12 N12            6.9679     2.7251     0.1308 N.am    
  13 N13            5.6117     3.0122    -0.0430 N.2     
  14 C14            7.9857     3.6844     0.2059 C.ar    
  15 O15            8.2198     0.8097     0.3691 O.2     
  16 C16            3.5814    -2.1429    -0.0411 C.3     
  17 C17            3.4352    -2.6362    -1.4576 C.ar    
  18 C18            4.5161    -2.5910    -2.3215 C.ar    
  19 C19            4.3808    -3.0449    -3.6226 C.ar    
  20 C20            3.1665    -3.5428    -4.0576 C.ar    
  21 C21            2.0871    -3.5869    -3.1931 C.ar    
  22 C22            2.2234    -3.1392    -1.8927 C.ar    
  23 F23            2.8872     3.8995    -0.4043 F       
  24 F24            1.3499    -1.3666    -0.3401 F       
  25 C25            8.7023     4.0293    -0.9322 C.ar    
  26 C26            9.7055     4.9756    -0.8551 C.ar    
  27 C27            9.9975     5.5803     0.3539 C.ar    
  28 C28            9.2869     5.2405     1.4902 C.ar    
  29 C29            8.2772     4.2979     1.4196 C.ar    
  30 F30            7.5827     3.9657     2.5297 F       
  31 F31            5.7020    -2.1038    -1.8954 F       
  32 Br32           2.9808    -4.1629    -5.8343 Br      
  33 H33            0.4393     3.0317    -0.6559 H       
  34 H34           -0.2430     0.6702    -0.6226 H       
  35 H35            6.0266    -1.3251     0.2090 H       
  36 H36            4.3136    -2.7567     0.4836 H       
  37 H37            2.6199    -2.2096     0.4679 H       
  38 H38            5.2233    -3.0097    -4.2974 H       
  39 H39            1.1386    -3.9752    -3.5336 H       
  40 H40            1.3803    -3.1740    -1.2187 H       
  41 H41            8.4757     3.5577    -1.8770 H       
  42 H42           10.2630     5.2435    -1.7404 H       
  43 H43           10.7828     6.3196     0.4106 H       
  44 H44            9.5177     5.7144     2.4329 H       
@<TRIPOS>BOND
   1    1    2 ar
   2    1    6 ar
   3    1   33 1
   4    2    3 ar
   5    2   34 1
   6    3    4 ar
   7    3   24 1
   8    4    5 ar
   9    4    7 1
  10    5    6 ar
  11    5   10 1
  12    6   23 1
  13    7    8 1
  14    7   16 1
  15    8    9 2
  16    8   35 1
  17    9   10 1
  18    9   11 1
  19   10   13 2
  20   11   12 am
  21   11   15 2
  22   12   13 1
  23   12   14 1
  24   14   25 ar
  25   14   29 ar
  26   16   17 1
  27   16   36 1
  28   16   37 1
  29   17   18 ar
  30   17   22 ar
  31   18   19 ar
  32   18   31 1
  33   19   20 ar
  34   19   38 1
  35   20   21 ar
  36   20   32 1
  37   21   22 ar
  38   21   39 1
  39   22   40 1
  40   25   26 ar
  41   25   41 1
  42   26   27 ar
  43   26   42 1
  44   27   28 ar
  45   27   43 1
  46   28   29 ar
  47   28   44 1
  48   29   30 1

#	End of record

