#	Name: ASD07110023
#	Creating user name:	WinNT
#	Creation time:	15. 06. 2019 21:09

#	Modifying user name:	WinNT
#	Modification time:	15. 06. 2019 21:09

#	Program:	/corina/corina34_cracker 3.40 0067  02.08.2006

@<TRIPOS>MOLECULE
ASD07110023
 444  452    0    0    0
SMALL
NO_CHARGES


@<TRIPOS>ATOM
   1 C1           -11.4754    -5.9140   -14.4786 C.2     
   2 O2           -11.3849    -7.0619   -14.0977 O.2     
   3 N3            -9.1960    -5.6784   -13.6701 N.3     
   4 C4           -10.3113    -4.9713   -14.3135 C.3     
   5 C5           -13.4861    -7.4731   -16.1592 C.2     
   6 O6           -12.3522    -7.6286   -16.5603 O.2     
   7 N7           -12.6152    -5.4830   -15.0545 N.am    
   8 C8           -13.8201    -6.2940   -15.2821 C.3     
   9 C9           -14.8537    -5.3911   -15.9878 C.3     
  10 C10          -13.9712    -4.2863   -16.6266 C.3     
  11 C11          -12.8624    -4.1184   -15.5547 C.3     
  12 C12          -15.3647    -9.9586   -18.0713 C.2     
  13 O13          -16.4173    -9.3839   -17.8906 O.2     
  14 N14          -14.4476    -8.3548   -16.4979 N.am    
  15 C15          -14.1229    -9.5010   -17.3505 C.3     
  16 C16          -13.5847   -10.6432   -16.4864 C.3     
  17 O17          -14.6151   -11.1038   -15.6100 O.3     
  18 C18          -16.3628   -12.9865   -19.8395 C.2     
  19 O19          -15.2645   -13.4970   -19.7758 O.2     
  20 N20          -15.3055   -11.0066   -18.9168 N.am    
  21 C21          -16.5312   -11.5206   -19.5331 C.3     
  22 C22          -16.8089   -10.7572   -20.8296 C.3     
  23 C23          -15.5158   -10.6388   -21.6388 C.3     
  24 C24          -15.1543   -12.0049   -22.2254 C.3     
  25 C25          -15.7150    -9.6328   -22.7742 C.3     
  26 C26          -16.5216   -15.3443   -21.7666 C.2     
  27 O27          -16.2050   -14.3902   -22.4451 O.2     
  28 N28          -17.4327   -13.7301   -20.1841 N.am    
  29 C29          -17.4033   -15.1512   -20.5597 C.3     
  30 C30          -18.8512   -15.5664   -20.8957 C.3     
  31 C31          -19.5302   -14.2137   -21.2372 C.3     
  32 C32          -18.8271   -13.2549   -20.2408 C.3     
  33 C33          -15.7895   -17.5411   -24.2993 C.2     
  34 O34          -16.9346   -17.9215   -24.1774 O.2     
  35 N35          -16.0850   -16.5771   -22.0919 N.am    
  36 C36          -15.1364   -16.7509   -23.1947 C.3     
  37 C37          -13.9017   -17.5018   -22.6918 C.3     
  38 C38          -13.1981   -16.6707   -21.6501 C.2     
  39 C39          -12.1702   -15.8327   -21.8577 C.2     
  40 N40          -11.7950   -15.2528   -20.6766 N.pl3   
  41 C41          -12.5925   -15.7153   -19.6539 C.ar    
  42 C42          -12.6422   -15.4594   -18.2877 C.ar    
  43 C43          -13.5819   -16.0956   -17.5061 C.ar    
  44 C44          -14.4813   -16.9908   -18.0681 C.ar    
  45 C45          -14.4499   -17.2574   -19.4081 C.ar    
  46 C46          -13.5103   -16.6194   -20.2197 C.ar    
  47 C47          -14.6760   -19.2897   -27.3102 C.2     
  48 O48          -13.5448   -18.8530   -27.3337 O.2     
  49 N49          -15.1011   -17.8249   -25.4227 N.am    
  50 C50          -15.7360   -18.5930   -26.4965 C.3     
  51 C51          -16.5317   -17.6472   -27.3984 C.3     
  52 C52          -17.7075   -17.0952   -26.6343 C.ar    
  53 C53          -17.5733   -15.9229   -25.9135 C.ar    
  54 C54          -18.6496   -15.4151   -25.2119 C.ar    
  55 C55          -19.8658   -16.0821   -25.2314 C.ar    
  56 O56          -20.9262   -15.5843   -24.5423 O.3     
  57 C57          -19.9980   -17.2579   -25.9557 C.ar    
  58 C58          -18.9202   -17.7589   -26.6598 C.ar    
  59 C59          -13.3423   -20.4127   -29.8118 C.2     
  60 O60          -13.6149   -19.2378   -29.9395 O.2     
  61 N61          -14.9852   -20.3982   -28.0117 N.am    
  62 C62          -14.0321   -21.2357   -28.7545 C.3     
  63 C63          -14.8398   -22.3713   -29.4175 C.3     
  64 C64          -16.2761   -21.7874   -29.4766 C.3     
  65 C65          -16.3340   -20.9753   -28.1562 C.3     
  66 C66          -10.7776   -21.0491   -32.3986 C.2     
  67 O67          -10.6555   -22.2200   -32.1070 O.2     
  68 N68          -12.4224   -20.9822   -30.6155 N.am    
  69 C69          -11.7518   -20.1821   -31.6433 C.3     
  70 C70           -8.0081   -20.5044   -34.7215 C.2     
  71 O71           -8.0230   -19.3045   -34.5455 O.2     
  72 N72          -10.0421   -20.5232   -33.3981 N.am    
  73 C73           -9.0950   -21.3660   -34.1323 C.3     
  74 C74           -9.8300   -22.0994   -35.2561 C.3     
  75 C75          -10.8493   -23.0674   -34.6520 C.3     
  76 C76          -11.5732   -23.7898   -35.7589 C.2     
  77 O77          -11.3017   -23.5545   -36.9125 O.2     
  78 O78          -12.5196   -24.6946   -35.4632 O.3     
  79 C79           -5.3716   -20.9192   -37.2195 C.2     
  80 O80           -5.7916   -22.0036   -37.5641 O.2     
  81 N81           -7.0194   -21.0673   -35.4441 N.am    
  82 C82           -5.9627   -20.2297   -36.0170 C.3     
  83 C83           -4.8694   -20.0017   -34.9712 C.3     
  84 C84           -5.4400   -19.1922   -33.8050 C.3     
  85 C85           -4.3468   -18.9642   -32.7592 C.3     
  86 C86           -4.9174   -18.1547   -31.5930 C.3     
  87 N87           -3.8677   -17.9358   -30.5889 N.3     
  88 C88           -2.3934   -20.5109   -39.2996 C.2     
  89 O89           -2.0371   -19.4561   -38.8186 O.2     
  90 N90           -4.3762   -20.3310   -37.9120 N.am    
  91 C91           -3.8015   -21.0013   -39.0811 C.3     
  92 C92           -4.6483   -20.6878   -40.3162 C.3     
  93 C93           -0.2191   -19.5690   -41.2189 C.2     
  94 O94           -1.2863   -19.0459   -41.4607 O.2     
  95 N95           -1.5301   -21.2444   -40.0297 N.am    
  96 C96           -0.1687   -20.8389   -40.4091 C.3     
  97 C97            0.4292   -21.9799   -41.2589 C.3     
  98 C98           -0.8301   -22.7179   -41.7851 C.3     
  99 C99           -1.7920   -22.5889   -40.5748 C.3     
 100 C100           2.0952   -17.6947   -43.3387 C.2     
 101 O101           2.9744   -18.5237   -43.2359 O.2     
 102 N102           0.9217   -19.0145   -41.6744 N.am    
 103 C103           0.8727   -17.7800   -42.4616 C.3     
 104 C104           0.8361   -16.5752   -41.5192 C.3     
 105 C105          -0.4666   -16.5946   -40.7171 C.3     
 106 C106           2.0265   -16.6415   -40.5603 C.3     
 107 C107           3.5964   -15.1176   -45.4525 C.2     
 108 O108           2.7572   -14.2977   -45.1451 O.2     
 109 N109           2.2115   -16.6971   -44.2375 N.am    
 110 C110           3.4446   -16.5517   -45.0150 C.3     
 111 C111           3.3804   -17.4567   -46.2470 C.3     
 112 C112           3.3518   -18.9207   -45.8034 C.3     
 113 C113           3.2886   -19.8121   -47.0169 C.2     
 114 O114           3.2685   -19.3262   -48.1230 O.2     
 115 O115           3.2547   -21.1457   -46.8689 O.3     
 116 C116           5.6634   -13.2933   -47.8531 C.2     
 117 O117           6.1033   -14.3153   -48.3356 O.2     
 118 N118           4.6648   -14.7461   -46.1854 N.am    
 119 C119           4.8123   -13.3520   -46.6107 C.3     
 120 C120           5.4818   -12.5467   -45.4954 C.3     
 121 C121           4.5603   -12.5021   -44.2748 C.3     
 122 C122           5.2197   -11.7088   -43.1762 C.2     
 123 O123           6.3144   -11.2285   -43.3515 O.2     
 124 O124           4.5909   -11.5360   -42.0030 O.3     
 125 C125           7.4195   -10.6948   -49.7311 C.2     
 126 O126           7.2164    -9.8603   -48.8747 O.2     
 127 N127           5.9356   -12.1050   -48.4278 N.am    
 128 C128           6.7629   -12.0478   -49.6355 C.3     
 129 C129           5.8842   -12.2764   -50.8670 C.3     
 130 C130           5.3166   -13.6968   -50.8319 C.3     
 131 C131           4.3404   -13.8848   -51.9949 C.3     
 132 C132           6.4597   -14.7060   -50.9574 C.3     
 133 C133           9.1927    -8.7951   -52.3021 C.2     
 134 O134           8.9163    -9.5998   -53.1664 O.2     
 135 N135           8.2325   -10.4120   -50.7682 N.am    
 136 C136           8.8707    -9.0966   -50.8611 C.3     
 137 C137          10.1614    -9.0968   -50.0394 C.3     
 138 C138           9.8230    -9.2789   -48.5584 C.3     
 139 C139          11.0943    -9.2791   -47.7491 C.2     
 140 O140          12.1614    -9.1472   -48.3002 O.2     
 141 O141          11.0411    -9.4258   -46.4159 O.3     
 142 C142          11.2448    -6.3593   -54.0962 C.2     
 143 O143          11.7489    -5.9469   -53.0731 O.2     
 144 N144           9.7879    -7.6313   -52.6304 N.am    
 145 C145          10.1009    -7.3383   -54.0312 C.3     
 146 C146           8.8721    -6.7328   -54.7125 C.3     
 147 C147           7.7499    -7.7719   -54.7573 C.3     
 148 C148           6.5211    -7.1663   -55.4386 C.3     
 149 N149           5.4466    -8.1613   -55.4815 N.pl3   
 150 C150           4.2369    -7.8425   -56.0516 C.2     
 151 N151           3.2809    -8.7277   -56.0898 N.2     
 152 N152           4.0354    -6.5899   -56.5815 N.pl3   
 153 C153          12.7569    -4.2300   -56.6541 C.2     
 154 O154          11.8707    -4.4606   -57.4494 O.2     
 155 N155          11.7075    -5.9419   -55.2912 N.am    
 156 C156          12.8195    -4.9902   -55.3544 C.3     
 157 C157          14.1455    -5.7489   -55.2706 C.3     
 158 C158          14.2621    -6.4092   -53.9210 C.ar    
 159 C159          13.7821    -7.6922   -53.7355 C.ar    
 160 C160          13.8890    -8.2979   -52.4976 C.ar    
 161 C161          14.4762    -7.6208   -51.4452 C.ar    
 162 C162          14.9570    -6.3381   -51.6309 C.ar    
 163 C163          14.8540    -5.7340   -52.8700 C.ar    
 164 C164          14.4053    -3.5037   -59.2408 C.2     
 165 O165          14.8658    -4.5713   -58.8960 O.2     
 166 N166          13.6857    -3.2940   -56.9327 N.am    
 167 C167          13.6902    -2.6329   -58.2401 C.3     
 168 C168          14.4098    -1.2873   -58.1287 C.3     
 169 C169          13.6347    -0.3776   -57.2108 C.2     
 170 O170          12.6541    -0.7937   -56.6309 O.2     
 171 N171          14.0312     0.8983   -57.0342 N.am    
 172 C172          16.6320    -3.8893   -61.4433 C.2     
 173 O173          17.1525    -3.1471   -60.6376 O.2     
 174 N174          14.5330    -3.0960   -60.5191 N.am    
 175 C175          15.1300    -3.9879   -61.5163 C.3     
 176 C176          14.6593    -3.5787   -62.9134 C.3     
 177 C177          13.1679    -3.7683   -63.0166 C.2     
 178 O178          12.5578    -4.2855   -62.1048 O.2     
 179 N179          12.5119    -3.3632   -64.1221 N.am    
 180 C180          19.3724    -4.6197   -63.6825 C.2     
 181 O181          18.6069    -4.8813   -64.5861 O.2     
 182 N182          17.3968    -4.6259   -62.2733 N.am    
 183 C183          18.8512    -4.4500   -62.2788 C.3     
 184 C184          19.4949    -5.4955   -61.3658 C.3     
 185 C185          19.0139    -6.8906   -61.7697 C.3     
 186 C186          19.5831    -7.2483   -63.1440 C.3     
 187 C187          19.0972    -5.2192   -59.9144 C.3     
 188 C188          22.6795    -5.0705   -65.1909 C.2     
 189 O189          23.3333    -4.6772   -64.2482 O.2     
 190 N190          20.6893    -4.4808   -63.9338 N.am    
 191 C191          21.2105    -4.7452   -65.2771 C.3     
 192 C192          21.0129    -3.5069   -66.1538 C.3     
 193 C193          21.4046    -3.8352   -67.5959 C.3     
 194 C194          20.4257    -4.8618   -68.1692 C.3     
 195 C195          21.3584    -2.5599   -68.4398 C.3     
 196 C196          25.2110    -6.2987   -67.5246 C.2     
 197 O197          24.4355    -6.2911   -68.4570 O.2     
 198 N198          23.2666    -5.7984   -66.1614 N.am    
 199 C199          24.7121    -6.0341   -66.1274 C.3     
 200 C200          25.0106    -7.2452   -65.2413 C.3     
 201 C201          24.6178    -6.9294   -63.7967 C.3     
 202 C202          24.7991    -8.1799   -62.9340 C.3     
 203 C203          25.5076    -5.8063   -63.2602 C.3     
 204 C204          28.2696    -7.6166   -69.0317 C.2     
 205 O205          28.7219    -7.9501   -67.9569 O.2     
 206 N206          26.5190    -6.5438   -67.7380 N.am    
 207 C207          27.0040    -6.8010   -69.0962 C.3     
 208 C208          27.2896    -5.4709   -69.7962 C.3     
 209 C209          25.9818    -4.6966   -69.9732 C.3     
 210 C210          26.2631    -3.3865   -70.6627 C.2     
 211 O211          27.3978    -3.1002   -70.9812 O.2     
 212 N212          25.2537    -2.5329   -70.9254 N.am    
 213 C213          31.3088    -7.8504   -69.9128 C.2     
 214 O214          31.1393    -6.6566   -69.8358 O.2     
 215 N215          28.8988    -7.9753   -70.1683 N.am    
 216 C216          30.1291    -8.7682   -70.1056 C.3     
 217 C217          30.2990    -9.5501   -71.4096 C.3     
 218 C218          29.1836   -10.5548   -71.5418 C.ar    
 219 C219          28.0076   -10.2009   -72.1772 C.ar    
 220 C220          26.9835   -11.1199   -72.2992 C.ar    
 221 C221          27.1358   -12.3990   -71.7841 C.ar    
 222 O222          26.1299   -13.3050   -71.9034 O.3     
 223 C223          28.3169   -12.7518   -71.1475 C.ar    
 224 C224          29.3400   -11.8307   -71.0326 C.ar    
 225 O225          32.5479    -8.3593   -69.8267 O.3     
 226 H226          -8.4025    -5.0672   -13.5482 H       
 227 H227          -9.4821    -6.0796   -12.7896 H       
 228 H228          -9.9957    -4.6089   -15.2919 H       
 229 H229         -10.6125    -4.1271   -13.6932 H       
 230 H230         -14.2181    -6.6422   -14.3289 H       
 231 H231         -15.3912    -5.9474   -16.7557 H       
 232 H232         -15.5471    -4.9609   -15.2651 H       
 233 H233         -13.5537    -4.6203   -17.5764 H       
 234 H234         -14.5337    -3.3612   -16.7525 H       
 235 H235         -13.2079    -3.4746   -14.7458 H       
 236 H236         -11.9580    -3.7101   -16.0058 H       
 237 H237         -15.3545    -8.2305   -16.1771 H       
 238 H238         -13.3665    -9.2092   -18.0791 H       
 239 H239         -13.2603   -11.4625   -17.1280 H       
 240 H240         -12.7396   -10.2863   -15.8976 H       
 241 H241         -14.3439   -11.8294   -15.0312 H       
 242 H242         -14.4515   -11.4204   -19.1172 H       
 243 H243         -17.3670   -11.3866   -18.8464 H       
 244 H244         -17.5557   -11.2942   -21.4146 H       
 245 H245         -17.1814    -9.7608   -20.5919 H       
 246 H246         -14.7102   -10.2979   -20.9885 H       
 247 H247         -16.0411   -12.4548   -22.6717 H       
 248 H248         -14.3864   -11.8807   -22.9889 H       
 249 H249         -14.7779   -12.6523   -21.4334 H       
 250 H250         -15.9725    -8.6595   -22.3563 H       
 251 H251         -14.7938    -9.5484   -23.3506 H       
 252 H252         -16.5206    -9.9736   -23.4245 H       
 253 H253         -17.0280   -15.7469   -19.7276 H       
 254 H254         -18.8707   -16.2357   -21.7558 H       
 255 H255         -19.3291   -16.0309   -20.0332 H       
 256 H256         -19.3299   -13.9256   -22.2692 H       
 257 H257         -20.6024   -14.2555   -21.0459 H       
 258 H258         -19.2905   -13.3206   -19.2564 H       
 259 H259         -18.8639   -12.2303   -20.6108 H       
 260 H260         -16.3988   -17.3494   -21.5958 H       
 261 H261         -14.8377   -15.7739   -23.5744 H       
 262 H262         -14.2077   -18.4515   -22.2531 H       
 263 H263         -13.2251   -17.6881   -23.5258 H       
 264 H264         -11.7077   -15.6444   -22.8153 H       
 265 H265         -11.0744   -14.6115   -20.5748 H       
 266 H266         -11.9464   -14.7647   -17.8409 H       
 267 H267         -13.6187   -15.8958   -16.4453 H       
 268 H268         -15.2116   -17.4810   -17.4414 H       
 269 H269         -15.1526   -17.9555   -19.8384 H       
 270 H270         -14.1852   -17.5206   -25.5202 H       
 271 H271         -16.4082   -19.3343   -26.0645 H       
 272 H272         -15.8902   -16.8269   -27.7204 H       
 273 H273         -16.8895   -18.1929   -28.2714 H       
 274 H274         -16.6263   -15.4040   -25.8987 H       
 275 H275         -18.5441   -14.4997   -24.6485 H       
 276 H276         -21.4766   -14.9754   -25.0536 H       
 277 H277         -20.9437   -17.7792   -25.9721 H       
 278 H278         -19.0237   -18.6718   -27.2275 H       
 279 H279         -13.2939   -21.6535   -28.0700 H       
 280 H280         -14.4652   -22.5764   -30.4203 H       
 281 H281         -14.8145   -23.2717   -28.8036 H       
 282 H282         -16.3987   -21.1387   -30.3439 H       
 283 H283         -17.0215   -22.5827   -29.4772 H       
 284 H284         -16.5584   -21.6307   -27.3146 H       
 285 H285         -17.0794   -20.1835   -28.2307 H       
 286 H286         -12.2043   -21.9219   -30.5134 H       
 287 H287         -11.2153   -19.3594   -31.1707 H       
 288 H288         -12.4940   -19.7825   -32.3344 H       
 289 H289         -10.1398   -19.5868   -33.6313 H       
 290 H290          -8.6530   -22.0937   -33.4518 H       
 291 H291         -10.3460   -21.3749   -35.8861 H       
 292 H292          -9.1114   -22.6567   -35.8570 H       
 293 H293         -10.3333   -23.7919   -34.0220 H       
 294 H294         -11.5679   -22.5101   -34.0511 H       
 295 H295         -12.9563   -25.1321   -36.2068 H       
 296 H296          -7.0074   -22.0269   -35.5849 H       
 297 H297          -6.3829   -19.2702   -36.3184 H       
 298 H298          -4.5109   -20.9636   -34.6047 H       
 299 H299          -4.0426   -19.4540   -35.4234 H       
 300 H300          -5.7986   -18.2303   -34.1714 H       
 301 H301          -6.2669   -19.7398   -33.3527 H       
 302 H302          -3.9882   -19.9261   -32.3927 H       
 303 H303          -3.5199   -18.4165   -33.2114 H       
 304 H304          -5.2759   -17.1928   -31.9595 H       
 305 H305          -5.7442   -18.7023   -31.1408 H       
 306 H306          -4.2199   -17.4029   -29.8079 H       
 307 H307          -3.4738   -18.8120   -30.2806 H       
 308 H308          -4.0402   -19.4637   -37.6364 H       
 309 H309          -3.7892   -22.0782   -38.9128 H       
 310 H310          -4.1706   -21.1091   -41.2007 H       
 311 H311          -5.6403   -21.1233   -40.1967 H       
 312 H312          -4.7372   -19.6075   -40.4311 H       
 313 H313           0.4348   -20.6843   -39.5146 H       
 314 H314           1.0148   -21.5786   -42.0860 H       
 315 H315           1.0353   -22.6433   -40.6420 H       
 316 H316          -1.2356   -22.2195   -42.6656 H       
 317 H317          -0.6098   -23.7642   -41.9970 H       
 318 H318          -1.5700   -23.3510   -39.8279 H       
 319 H319          -2.8280   -22.6695   -40.9039 H       
 320 H320           1.7752   -19.4328   -41.4810 H       
 321 H321          -0.0219   -17.7814   -43.0844 H       
 322 H322           0.8901   -15.6560   -42.1024 H       
 323 H323          -0.4657   -17.4514   -40.0433 H       
 324 H324          -0.5495   -15.6759   -40.1365 H       
 325 H325          -1.3127   -16.6704   -41.4000 H       
 326 H326           2.9546   -16.6277   -41.1318 H       
 327 H327           2.0004   -15.7832   -39.8889 H       
 328 H328           1.9726   -17.5608   -39.9771 H       
 329 H329           1.4787   -16.0753   -44.3695 H       
 330 H330           4.2980   -16.8360   -44.3994 H       
 331 H331           2.4785   -17.2319   -46.8163 H       
 332 H332           4.2569   -17.2832   -46.8713 H       
 333 H333           4.2537   -19.1455   -45.2340 H       
 334 H334           2.4753   -19.0941   -45.1791 H       
 335 H335           3.2144   -21.6762   -47.6764 H       
 336 H336           5.3359   -15.4019   -46.4313 H       
 337 H337           3.8297   -12.9310   -46.8233 H       
 338 H338           6.4249   -13.0197   -45.2215 H       
 339 H339           5.6723   -11.5317   -45.8441 H       
 340 H340           3.6172   -12.0291   -44.5487 H       
 341 H341           4.3699   -13.5171   -43.9261 H       
 342 H342           5.0536   -11.0198   -41.3288 H       
 343 H343           5.5838   -11.2876   -48.0418 H       
 344 H344           7.5296   -12.8212   -49.5876 H       
 345 H345           5.0648   -11.5577   -50.8671 H       
 346 H346           6.4819   -12.1461   -51.7691 H       
 347 H347           4.7934   -13.8559   -49.8891 H       
 348 H348           4.8637   -13.7257   -52.9378 H       
 349 H349           3.9361   -14.8967   -51.9700 H       
 350 H350           3.5261   -13.1658   -51.9056 H       
 351 H351           7.1552   -14.5721   -50.1289 H       
 352 H352           6.0554   -15.7180   -50.9325 H       
 353 H353           6.9830   -14.5470   -51.9003 H       
 354 H354           8.3949   -11.0793   -51.4531 H       
 355 H355           8.1933    -8.3358   -50.4733 H       
 356 H356          10.8018    -9.9149   -50.3690 H       
 357 H357          10.6814    -8.1492   -50.1795 H       
 358 H358           9.1826    -8.4607   -48.2288 H       
 359 H359           9.3030   -10.2265   -48.4183 H       
 360 H360          11.8826    -9.4196   -45.9396 H       
 361 H361          10.0090    -6.9878   -51.9391 H       
 362 H362          10.3820    -8.2597   -54.5412 H       
 363 H363           8.5376    -5.8609   -54.1503 H       
 364 H364           9.1304    -6.4330   -55.7281 H       
 365 H365           8.0843    -8.6437   -55.3195 H       
 366 H366           7.4915    -8.0716   -53.7417 H       
 367 H367           6.1866    -6.2944   -54.8764 H       
 368 H368           6.7794    -6.8666   -56.4542 H       
 369 H369           5.5887    -9.0450   -55.1077 H       
 370 H370           2.4274    -8.5027   -56.4920 H       
 371 H371           4.7469    -5.9312   -56.5531 H       
 372 H372           3.1819    -6.3650   -56.9837 H       
 373 H373          11.3044    -6.2717   -56.1095 H       
 374 H374          12.7474    -4.2914   -54.5209 H       
 375 H375          14.1792    -6.5090   -56.0511 H       
 376 H376          14.9722    -5.0516   -55.4066 H       
 377 H377          13.3233    -8.2213   -54.5577 H       
 378 H378          13.5134    -9.3000   -52.3525 H       
 379 H379          14.5591    -8.0937   -50.4778 H       
 380 H380          15.4155    -5.8089   -50.8086 H       
 381 H381          15.2329    -4.7333   -53.0161 H       
 382 H382          14.3512    -3.0581   -56.2677 H       
 383 H383          12.6637    -2.4699   -58.5683 H       
 384 H384          15.4107    -1.4428   -57.7260 H       
 385 H385          14.4823    -0.8312   -59.1160 H       
 386 H386          14.8154     1.2311   -57.4979 H       
 387 H387          13.5322     1.4839   -56.4433 H       
 388 H388          14.2297    -2.2120   -60.7788 H       
 389 H389          14.8231    -5.0144   -61.3156 H       
 390 H390          14.9053    -2.5311   -63.0872 H       
 391 H391          15.1568    -4.1975   -63.6601 H       
 392 H392          12.9999    -2.9495   -64.8512 H       
 393 H393          11.5520    -3.4853   -64.1885 H       
 394 H394          16.9843    -5.2726   -62.8670 H       
 395 H395          19.0977    -3.4514   -61.9179 H       
 396 H396          20.5794    -5.4432   -61.4616 H       
 397 H397          19.3547    -7.6194   -61.0343 H       
 398 H398          17.9248    -6.9009   -61.8136 H       
 399 H399          19.0425    -6.6996   -63.9152 H       
 400 H400          20.6392    -6.9809   -63.1807 H       
 401 H401          19.4733    -8.3191   -63.3153 H       
 402 H402          18.0248    -5.3739   -59.7958 H       
 403 H403          19.6374    -5.8978   -59.2543 H       
 404 H404          19.3462    -4.1892   -59.6592 H       
 405 H405          21.2918    -4.2057   -63.2252 H       
 406 H406          20.6767    -5.5889   -65.7145 H       
 407 H407          19.9669    -3.2023   -66.1217 H       
 408 H408          21.6392    -2.6955   -65.7829 H       
 409 H409          22.4140    -4.2463   -67.6136 H       
 410 H410          20.6411    -5.0186   -69.2261 H       
 411 H411          20.5325    -5.8047   -67.6328 H       
 412 H412          19.4059    -4.4936   -68.0569 H       
 413 H413          22.0559    -1.8285   -68.0314 H       
 414 H414          21.6375    -2.7937   -69.4672 H       
 415 H415          20.3491    -2.1488   -68.4221 H       
 416 H416          22.7321    -6.1662   -66.8825 H       
 417 H417          25.2141    -5.1553   -65.7227 H       
 418 H418          24.4385    -8.1033   -65.5941 H       
 419 H419          26.0752    -7.4749   -65.2865 H       
 420 H420          23.5751    -6.6138   -63.7644 H       
 421 H421          25.8419    -8.4956   -62.9663 H       
 422 H422          24.5193    -7.9550   -61.9048 H       
 423 H423          24.1653    -8.9801   -63.3162 H       
 424 H424          26.5503    -6.1220   -63.2925 H       
 425 H425          25.3784    -4.9154   -63.8748 H       
 426 H426          25.2277    -5.5813   -62.2310 H       
 427 H427          27.1393    -6.5499   -66.9922 H       
 428 H428          26.2460    -7.3501   -69.6548 H       
 429 H429          27.9807    -4.8833   -69.1919 H       
 430 H430          27.7335    -5.6624   -70.7731 H       
 431 H431          25.2907    -5.2842   -70.5775 H       
 432 H432          25.5379    -4.5051   -68.9963 H       
 433 H433          24.3462    -2.7619   -70.6707 H       
 434 H434          25.4348    -1.6896   -71.3693 H       
 435 H435          28.5370    -7.7086   -71.0279 H       
 436 H436          30.0702    -9.4647   -69.2692 H       
 437 H437          30.2688    -8.8606   -72.2533 H       
 438 H438          31.2569   -10.0700   -71.3994 H       
 439 H439          27.8895    -9.2050   -72.5780 H       
 440 H440          26.0649   -10.8428   -72.7949 H       
 441 H441          26.1740   -13.8379   -72.7091 H       
 442 H442          28.4377   -13.7468   -70.7454 H       
 443 H443          30.2613   -12.1062   -70.5410 H       
 444 H444          33.2728    -7.7313   -69.7032 H       
@<TRIPOS>BOND
   1    1    2 2
   2    1    4 1
   3    1    7 am
   4    3    4 1
   5    3  226 1
   6    3  227 1
   7    4  228 1
   8    4  229 1
   9    5    6 2
  10    5   14 am
  11    5    8 1
  12    7    8 1
  13    7   11 1
  14    8    9 1
  15    8  230 1
  16    9   10 1
  17    9  231 1
  18    9  232 1
  19   10   11 1
  20   10  233 1
  21   10  234 1
  22   11  235 1
  23   11  236 1
  24   12   13 2
  25   12   15 1
  26   12   20 am
  27   14   15 1
  28   14  237 1
  29   15   16 1
  30   15  238 1
  31   16   17 1
  32   16  239 1
  33   16  240 1
  34   17  241 1
  35   18   19 2
  36   18   21 1
  37   18   28 am
  38   20   21 1
  39   20  242 1
  40   21   22 1
  41   21  243 1
  42   22   23 1
  43   22  244 1
  44   22  245 1
  45   23   24 1
  46   23   25 1
  47   23  246 1
  48   24  247 1
  49   24  248 1
  50   24  249 1
  51   25  250 1
  52   25  251 1
  53   25  252 1
  54   26   27 2
  55   26   35 am
  56   26   29 1
  57   28   29 1
  58   28   32 1
  59   29   30 1
  60   29  253 1
  61   30   31 1
  62   30  254 1
  63   30  255 1
  64   31   32 1
  65   31  256 1
  66   31  257 1
  67   32  258 1
  68   32  259 1
  69   33   34 2
  70   33   36 1
  71   33   49 am
  72   35   36 1
  73   35  260 1
  74   36   37 1
  75   36  261 1
  76   37   38 1
  77   37  262 1
  78   37  263 1
  79   38   39 2
  80   38   46 1
  81   39   40 1
  82   39  264 1
  83   40   41 1
  84   40  265 1
  85   41   42 ar
  86   41   46 ar
  87   42   43 ar
  88   42  266 1
  89   43   44 ar
  90   43  267 1
  91   44   45 ar
  92   44  268 1
  93   45   46 ar
  94   45  269 1
  95   47   48 2
  96   47   50 1
  97   47   61 am
  98   49   50 1
  99   49  270 1
 100   50   51 1
 101   50  271 1
 102   51   52 1
 103   51  272 1
 104   51  273 1
 105   52   53 ar
 106   52   58 ar
 107   53   54 ar
 108   53  274 1
 109   54   55 ar
 110   54  275 1
 111   55   56 1
 112   55   57 ar
 113   56  276 1
 114   57   58 ar
 115   57  277 1
 116   58  278 1
 117   59   60 2
 118   59   68 am
 119   59   62 1
 120   61   62 1
 121   61   65 1
 122   62   63 1
 123   62  279 1
 124   63   64 1
 125   63  280 1
 126   63  281 1
 127   64   65 1
 128   64  282 1
 129   64  283 1
 130   65  284 1
 131   65  285 1
 132   66   67 2
 133   66   69 1
 134   66   72 am
 135   68   69 1
 136   68  286 1
 137   69  287 1
 138   69  288 1
 139   70   71 2
 140   70   73 1
 141   70   81 am
 142   72   73 1
 143   72  289 1
 144   73   74 1
 145   73  290 1
 146   74   75 1
 147   74  291 1
 148   74  292 1
 149   75   76 1
 150   75  293 1
 151   75  294 1
 152   76   77 2
 153   76   78 1
 154   78  295 1
 155   79   80 2
 156   79   82 1
 157   79   90 am
 158   81   82 1
 159   81  296 1
 160   82   83 1
 161   82  297 1
 162   83   84 1
 163   83  298 1
 164   83  299 1
 165   84   85 1
 166   84  300 1
 167   84  301 1
 168   85   86 1
 169   85  302 1
 170   85  303 1
 171   86   87 1
 172   86  304 1
 173   86  305 1
 174   87  306 1
 175   87  307 1
 176   88   89 2
 177   88   91 1
 178   88   95 am
 179   90   91 1
 180   90  308 1
 181   91   92 1
 182   91  309 1
 183   92  310 1
 184   92  311 1
 185   92  312 1
 186   93   94 2
 187   93  102 am
 188   93   96 1
 189   95   96 1
 190   95   99 1
 191   96   97 1
 192   96  313 1
 193   97   98 1
 194   97  314 1
 195   97  315 1
 196   98   99 1
 197   98  316 1
 198   98  317 1
 199   99  318 1
 200   99  319 1
 201  100  101 2
 202  100  103 1
 203  100  109 am
 204  102  103 1
 205  102  320 1
 206  103  104 1
 207  103  321 1
 208  104  105 1
 209  104  106 1
 210  104  322 1
 211  105  323 1
 212  105  324 1
 213  105  325 1
 214  106  326 1
 215  106  327 1
 216  106  328 1
 217  107  108 2
 218  107  110 1
 219  107  118 am
 220  109  110 1
 221  109  329 1
 222  110  111 1
 223  110  330 1
 224  111  112 1
 225  111  331 1
 226  111  332 1
 227  112  113 1
 228  112  333 1
 229  112  334 1
 230  113  114 2
 231  113  115 1
 232  115  335 1
 233  116  117 2
 234  116  119 1
 235  116  127 am
 236  118  119 1
 237  118  336 1
 238  119  120 1
 239  119  337 1
 240  120  121 1
 241  120  338 1
 242  120  339 1
 243  121  122 1
 244  121  340 1
 245  121  341 1
 246  122  123 2
 247  122  124 1
 248  124  342 1
 249  125  126 2
 250  125  128 1
 251  125  135 am
 252  127  128 1
 253  127  343 1
 254  128  129 1
 255  128  344 1
 256  129  130 1
 257  129  345 1
 258  129  346 1
 259  130  131 1
 260  130  132 1
 261  130  347 1
 262  131  348 1
 263  131  349 1
 264  131  350 1
 265  132  351 1
 266  132  352 1
 267  132  353 1
 268  133  134 2
 269  133  136 1
 270  133  144 am
 271  135  136 1
 272  135  354 1
 273  136  137 1
 274  136  355 1
 275  137  138 1
 276  137  356 1
 277  137  357 1
 278  138  139 1
 279  138  358 1
 280  138  359 1
 281  139  140 2
 282  139  141 1
 283  141  360 1
 284  142  143 2
 285  142  145 1
 286  142  155 am
 287  144  145 1
 288  144  361 1
 289  145  146 1
 290  145  362 1
 291  146  147 1
 292  146  363 1
 293  146  364 1
 294  147  148 1
 295  147  365 1
 296  147  366 1
 297  148  149 1
 298  148  367 1
 299  148  368 1
 300  149  150 1
 301  149  369 1
 302  150  151 2
 303  150  152 1
 304  151  370 1
 305  152  371 1
 306  152  372 1
 307  153  154 2
 308  153  156 1
 309  153  166 am
 310  155  156 1
 311  155  373 1
 312  156  157 1
 313  156  374 1
 314  157  158 1
 315  157  375 1
 316  157  376 1
 317  158  159 ar
 318  158  163 ar
 319  159  160 ar
 320  159  377 1
 321  160  161 ar
 322  160  378 1
 323  161  162 ar
 324  161  379 1
 325  162  163 ar
 326  162  380 1
 327  163  381 1
 328  164  165 2
 329  164  167 1
 330  164  174 am
 331  166  167 1
 332  166  382 1
 333  167  168 1
 334  167  383 1
 335  168  169 1
 336  168  384 1
 337  168  385 1
 338  169  170 2
 339  169  171 am
 340  171  386 1
 341  171  387 1
 342  172  173 2
 343  172  175 1
 344  172  182 am
 345  174  175 1
 346  174  388 1
 347  175  176 1
 348  175  389 1
 349  176  177 1
 350  176  390 1
 351  176  391 1
 352  177  178 2
 353  177  179 am
 354  179  392 1
 355  179  393 1
 356  180  181 2
 357  180  183 1
 358  180  190 am
 359  182  183 1
 360  182  394 1
 361  183  184 1
 362  183  395 1
 363  184  185 1
 364  184  187 1
 365  184  396 1
 366  185  186 1
 367  185  397 1
 368  185  398 1
 369  186  399 1
 370  186  400 1
 371  186  401 1
 372  187  402 1
 373  187  403 1
 374  187  404 1
 375  188  189 2
 376  188  191 1
 377  188  198 am
 378  190  191 1
 379  190  405 1
 380  191  192 1
 381  191  406 1
 382  192  193 1
 383  192  407 1
 384  192  408 1
 385  193  194 1
 386  193  195 1
 387  193  409 1
 388  194  410 1
 389  194  411 1
 390  194  412 1
 391  195  413 1
 392  195  414 1
 393  195  415 1
 394  196  197 2
 395  196  199 1
 396  196  206 am
 397  198  199 1
 398  198  416 1
 399  199  200 1
 400  199  417 1
 401  200  201 1
 402  200  418 1
 403  200  419 1
 404  201  202 1
 405  201  203 1
 406  201  420 1
 407  202  421 1
 408  202  422 1
 409  202  423 1
 410  203  424 1
 411  203  425 1
 412  203  426 1
 413  204  205 2
 414  204  207 1
 415  204  215 am
 416  206  207 1
 417  206  427 1
 418  207  208 1
 419  207  428 1
 420  208  209 1
 421  208  429 1
 422  208  430 1
 423  209  210 1
 424  209  431 1
 425  209  432 1
 426  210  211 2
 427  210  212 am
 428  212  433 1
 429  212  434 1
 430  213  214 2
 431  213  216 1
 432  213  225 1
 433  215  216 1
 434  215  435 1
 435  216  217 1
 436  216  436 1
 437  217  218 1
 438  217  437 1
 439  217  438 1
 440  218  219 ar
 441  218  224 ar
 442  219  220 ar
 443  219  439 1
 444  220  221 ar
 445  220  440 1
 446  221  222 1
 447  221  223 ar
 448  222  441 1
 449  223  224 ar
 450  223  442 1
 451  224  443 1
 452  225  444 1

#	End of record

