#	Name: ASD02198301
#	Creating user name:	WinNT
#	Creation time:	15. 06. 2019 20:19

#	Modifying user name:	WinNT
#	Modification time:	15. 06. 2019 20:19

#	Program:	/corina/corina34_cracker 3.40 0067  02.08.2006

@<TRIPOS>MOLECULE
ASD02198301
  34   36    0    0    0
SMALL
NO_CHARGES


@<TRIPOS>ATOM
   1 C1             0.4452     1.7076     0.0475 C.2     
   2 C2             0.5358     0.3330     0.1671 C.2     
   3 S3             2.0651     2.3703     0.2490 S.3     
   4 C4             2.6988     0.7988     0.4683 C.2     
   5 N5             1.7560    -0.0958     0.3901 N.2     
   6 N6            -0.5578    -0.5115     0.0615 N.pl3   
   7 C7            -0.7290     2.4444    -0.1973 C.2     
   8 C8            -0.6957     3.9228    -0.1607 C.ar    
   9 O9            -1.7737     1.8639    -0.4395 O.2     
  10 N10            4.0271     0.5165     0.6973 N.pl3   
  11 C11            4.4310    -0.8015     0.9364 C.ar    
  12 C12            3.7697    -1.8546     0.3180 C.ar    
  13 C13           -1.6009     4.6629    -0.9233 C.ar    
  14 C14            0.2374     4.5827     0.6409 C.ar    
  15 C15            0.2640     5.9607     0.6718 C.ar    
  16 C16           -0.6341     6.6910    -0.0911 C.ar    
  17 C17           -1.5659     6.0405    -0.8853 C.ar    
  18 C18            4.1701    -3.1548     0.5555 C.ar    
  19 C19            5.2302    -3.4089     1.4095 C.ar    
  20 C20            5.8910    -2.3604     2.0271 C.ar    
  21 C21            5.4976    -1.0583     1.7881 C.ar    
  22 F22            5.6200    -4.6816     1.6407 F       
  23 F23           -0.6045     8.0413    -0.0567 F       
  24 H24           -1.4401    -0.1440    -0.1041 H       
  25 H25           -0.4411    -1.4700     0.1533 H       
  26 H26            4.6826     1.2315     0.6929 H       
  27 H27            2.9427    -1.6569    -0.3479 H       
  28 H28           -2.3272     4.1571    -1.5422 H       
  29 H29            0.9370     4.0146     1.2362 H       
  30 H30            0.9855     6.4722     1.2917 H       
  31 H31           -2.2631     6.6140    -1.4780 H       
  32 H32            3.6559    -3.9741     0.0751 H       
  33 H33            6.7173    -2.5608     2.6931 H       
  34 H34            6.0133    -0.2408     2.2700 H       
@<TRIPOS>BOND
   1    1    2 2
   2    1    3 1
   3    1    7 1
   4    2    6 1
   5    2    5 1
   6    3    4 1
   7    4    5 2
   8    4   10 1
   9    6   24 1
  10    6   25 1
  11    7    8 1
  12    7    9 2
  13    8   13 ar
  14    8   14 ar
  15   10   11 1
  16   10   26 1
  17   11   12 ar
  18   11   21 ar
  19   12   18 ar
  20   12   27 1
  21   13   17 ar
  22   13   28 1
  23   14   15 ar
  24   14   29 1
  25   15   16 ar
  26   15   30 1
  27   16   17 ar
  28   16   23 1
  29   17   31 1
  30   18   19 ar
  31   18   32 1
  32   19   20 ar
  33   19   22 1
  34   20   21 ar
  35   20   33 1
  36   21   34 1

#	End of record

