#	Name: ASD01120102
#	Creating user name:	WinNT
#	Creation time:	15. 06. 2019 18:59

#	Modifying user name:	WinNT
#	Modification time:	15. 06. 2019 18:59

#	Program:	/corina/corina34_cracker 3.40 0067  02.08.2006

@<TRIPOS>MOLECULE
ASD01120102
  35   37    0    0    0
SMALL
NO_CHARGES


@<TRIPOS>ATOM
   1 C1            -0.0124     1.2598     0.7118 C.ar    
   2 C2            -1.1283     1.5648     1.4696 C.ar    
   3 C3            -2.3186     0.9010     1.2470 C.ar    
   4 C4            -2.3945    -0.0737     0.2601 C.ar    
   5 C5            -1.2718    -0.3773    -0.4997 C.ar    
   6 C6            -0.0858     0.2937    -0.2750 C.ar    
   7 N7            -3.5974    -0.7477     0.0324 N.pl3   
   8 C8            -4.8029    -0.0740     0.1526 C.2     
   9 N9            -5.9771    -0.6204     0.0792 N.2     
  10 C10           -7.0267     0.1876     0.2189 C.2     
  11 C11           -6.7312     1.4833     0.4209 C.2     
  12 S12           -4.9777     1.6550     0.4363 S.3     
  13 C13           -8.4233    -0.3074     0.1556 C.ar    
  14 C14           -8.6766    -1.6616    -0.0560 C.ar    
  15 C15           -9.9782    -2.1166    -0.1141 C.ar    
  16 C16          -11.0305    -1.2314     0.0374 C.ar    
  17 C17          -10.7851     0.1136     0.2477 C.ar    
  18 C18           -9.4875     0.5790     0.3133 C.ar    
  19 S19            1.5043     2.1092     0.9992 S.o2    
  20 N20            2.3428     1.2443     2.1356 N.am    
  21 O21            2.2507     2.0168    -0.2065 O.2     
  22 O22            1.1622     3.3464     1.6086 O.2     
  23 H23           -1.0686     2.3227     2.2367 H       
  24 H24           -3.1895     1.1392     1.8397 H       
  25 H25           -1.3273    -1.1345    -1.2678 H       
  26 H26            0.7874     0.0582    -0.8653 H       
  27 H27           -3.5888    -1.6870    -0.2098 H       
  28 H28           -7.4461     2.2817     0.5551 H       
  29 H29           -7.8559    -2.3535    -0.1748 H       
  30 H30          -10.1757    -3.1656    -0.2784 H       
  31 H31          -12.0475    -1.5918    -0.0091 H       
  32 H32          -11.6104     0.8001     0.3652 H       
  33 H33           -9.2970     1.6292     0.4778 H       
  34 H34            3.3127     1.2524     2.1329 H       
  35 H35            1.8639     0.7295     2.8039 H       
@<TRIPOS>BOND
   1    1    2 ar
   2    1   19 1
   3    1    6 ar
   4    2    3 ar
   5    2   23 1
   6    3    4 ar
   7    3   24 1
   8    4    5 ar
   9    4    7 1
  10    5    6 ar
  11    5   25 1
  12    6   26 1
  13    7    8 1
  14    7   27 1
  15    8    9 2
  16    8   12 1
  17    9   10 1
  18   10   11 2
  19   10   13 1
  20   11   12 1
  21   11   28 1
  22   13   14 ar
  23   13   18 ar
  24   14   15 ar
  25   14   29 1
  26   15   16 ar
  27   15   30 1
  28   16   17 ar
  29   16   31 1
  30   17   18 ar
  31   17   32 1
  32   18   33 1
  33   19   20 am
  34   19   21 2
  35   19   22 2
  36   20   34 1
  37   20   35 1

#	End of record

