#	Name: ASD00431139
#	Creating user name:	WinNT
#	Creation time:	15. 06. 2019 18:35

#	Modifying user name:	WinNT
#	Modification time:	15. 06. 2019 18:35

#	Program:	/corina/corina34_cracker 3.40 0067  02.08.2006

@<TRIPOS>MOLECULE
ASD00431139
  52   55    0    0    0
SMALL
NO_CHARGES


@<TRIPOS>ATOM
   1 C1             0.1918     1.3328    -0.2630 C.3     
   2 C2             0.1446    -0.1938    -0.3535 C.3     
   3 C3             1.4831     0.5383    -0.4685 C.3     
   4 C4            -0.3374     2.1161    -1.4366 C.2     
   5 O5            -0.7790     1.5341    -2.4046 O.2     
   6 N6            -0.3201     3.4635    -1.4104 N.am    
   7 C7            -0.8346     4.2250    -2.5512 C.3     
   8 C8            -2.3497     4.3880    -2.4141 C.3     
   9 O9             0.0874     6.3655    -1.5271 O.3     
  10 N10            0.6141     7.4026    -1.8574 N.2     
  11 C11            0.7696     7.4661    -3.1595 C.2     
  12 C12            0.2392     6.2497    -3.6796 C.2     
  13 C13           -0.1840     5.5840    -2.5827 C.2     
  14 S14            1.5672     8.6335    -5.6792 S.3     
  15 C15            2.2911    10.1773    -5.5565 C.2     
  16 N16            2.3501    10.5496    -4.3149 N.2     
  17 C17            1.8684     9.7188    -3.4166 C.2     
  18 C18            1.3716     8.5735    -3.9292 C.2     
  19 O19            2.7398    10.9071    -6.6053 O.3     
  20 C20            3.1507    12.1813    -6.3671 C.ar    
  21 C21            3.7736    12.9093    -7.3722 C.ar    
  22 C22            4.1905    14.2043    -7.1297 C.ar    
  23 C23            3.9867    14.7763    -5.8824 C.ar    
  24 C24            3.3650    14.0486    -4.8787 C.ar    
  25 C25            2.9427    12.7558    -5.1224 C.ar    
  26 O26            4.3969    16.0505    -5.6437 O.3     
  27 C27            5.1503    16.6932    -6.6739 C.3     
  28 C28            4.2054    17.4921    -7.5739 C.3     
  29 C29            6.1742    17.6387    -6.0426 C.3     
  30 Cl30           4.0289    12.1928    -8.9327 Cl      
  31 H31            0.0290     1.7842     0.7157 H       
  32 H32           -0.0493    -0.7467     0.5657 H       
  33 H33           -0.2693    -0.6315    -1.2619 H       
  34 H34            1.9498     0.5822    -1.4525 H       
  35 H35            2.1698     0.4670     0.3750 H       
  36 H36            0.0331     3.9291    -0.6361 H       
  37 H37           -0.6086     3.6926    -3.4751 H       
  38 H38           -2.5757     4.9205    -1.4902 H       
  39 H39           -2.7325     4.9546    -3.2629 H       
  40 H40           -2.8203     3.4051    -2.3913 H       
  41 H41            0.1873     5.9337    -4.7110 H       
  42 H42            1.8706     9.9345    -2.3584 H       
  43 H43            4.6753    14.7708    -7.9110 H       
  44 H44            3.2071    14.4941    -3.9076 H       
  45 H45            2.4543    12.1912    -4.3419 H       
  46 H46            5.6686    15.9408    -7.2683 H       
  47 H47            3.4759    16.8185    -8.0236 H       
  48 H48            3.6871    18.2445    -6.9795 H       
  49 H49            4.7800    17.9823    -8.3597 H       
  50 H50            6.8474    17.0696    -5.4015 H       
  51 H51            6.7489    18.1290    -6.8285 H       
  52 H52            5.6559    18.3911    -5.4483 H       
@<TRIPOS>BOND
   1    1    2 1
   2    1    3 1
   3    1    4 1
   4    1   31 1
   5    2    3 1
   6    2   32 1
   7    2   33 1
   8    3   34 1
   9    3   35 1
  10    4    5 2
  11    4    6 am
  12    6    7 1
  13    6   36 1
  14    7    8 1
  15    7   13 1
  16    7   37 1
  17    8   38 1
  18    8   39 1
  19    8   40 1
  20    9   10 1
  21    9   13 1
  22   10   11 2
  23   11   12 1
  24   11   18 1
  25   12   13 2
  26   12   41 1
  27   14   15 1
  28   14   18 1
  29   15   16 2
  30   15   19 1
  31   16   17 1
  32   17   18 2
  33   17   42 1
  34   19   20 1
  35   20   21 ar
  36   20   25 ar
  37   21   22 ar
  38   21   30 1
  39   22   23 ar
  40   22   43 1
  41   23   24 ar
  42   23   26 1
  43   24   25 ar
  44   24   44 1
  45   25   45 1
  46   26   27 1
  47   27   28 1
  48   27   29 1
  49   27   46 1
  50   28   47 1
  51   28   48 1
  52   28   49 1
  53   29   50 1
  54   29   51 1
  55   29   52 1

#	End of record

