#	Name: ASD03090165
#	Creating user name:	WinNT
#	Creation time:	15. 06. 2019 20:28

#	Modifying user name:	WinNT
#	Modification time:	15. 06. 2019 20:28

#	Program:	/corina/corina34_cracker 3.40 0067  02.08.2006

@<TRIPOS>MOLECULE
ASD03090165
  51   53    0    0    0
SMALL
NO_CHARGES


@<TRIPOS>ATOM
   1 N1             0.4483     1.5141     1.4704 N.ar    
   2 C2             0.4102     0.1961     1.4361 C.ar    
   3 C3             1.5369    -0.5375     1.1249 C.ar    
   4 C4             2.7294     0.1375     0.8437 C.ar    
   5 C5             2.7237     1.5358     0.8914 C.ar    
   6 C6             1.5518     2.1894     1.2119 C.ar    
   7 C7             3.9631    -0.6070     0.5055 C.2     
   8 N8             5.7415    -3.4560    -0.5311 N.pl3   
   9 C9             4.8146    -4.4455    -0.8748 C.ar    
  10 C10            3.5978    -4.0915    -1.4427 C.ar    
  11 C11            2.6840    -5.0705    -1.7813 C.ar    
  12 C12            2.9802    -6.4037    -1.5544 C.ar    
  13 C13            4.1931    -6.7591    -0.9882 C.ar    
  14 C14            5.1122    -5.7843    -0.6538 C.ar    
  15 N15            4.0272    -1.8631     0.1119 N.2     
  16 C16            5.2986    -2.2023    -0.1053 C.2     
  17 N17            6.0670    -1.1671     0.1463 N.2     
  18 N18            5.2222    -0.1167     0.5401 N.pl3   
  19 C19            5.6262     1.2392     0.9206 C.3     
  20 C20            5.7305     2.1108    -0.3325 C.3     
  21 C21            6.1524     3.5268     0.0648 C.3     
  22 C22           -0.8811    -0.5183     1.7412 C.3     
  23 F23            2.0846    -7.3595    -1.8855 F       
  24 N24            6.2523     4.3614    -1.1351 N.am    
  25 C25            6.6114     5.6559    -1.0275 C.2     
  26 C26            6.7142     6.5145    -2.2617 C.3     
  27 O27            6.8519     6.1300     0.0627 O.2     
  28 C28            4.5125    -8.2112    -0.7420 C.3     
  29 F29            5.7836    -8.3182    -0.1676 F       
  30 F30            3.5609    -8.7573     0.1261 F       
  31 F31            4.4893    -8.9060    -1.9560 F       
  32 H32            1.4986    -1.6165     1.0993 H       
  33 H33            3.6234     2.0951     0.6813 H       
  34 H34            1.5374     3.2686     1.2513 H       
  35 H35            6.6920    -3.6407    -0.5887 H       
  36 H36            3.3660    -3.0516    -1.6192 H       
  37 H37            1.7375    -4.7956    -2.2229 H       
  38 H38            6.0581    -6.0619    -0.2126 H       
  39 H39            4.8841     1.6630     1.5972 H       
  40 H40            6.5944     1.2032     1.4198 H       
  41 H41            6.4726     1.6870    -1.0091 H       
  42 H42            4.7622     2.1468    -0.8318 H       
  43 H43            5.4103     3.9506     0.7414 H       
  44 H44            7.1206     3.4908     0.5640 H       
  45 H45           -1.4461    -0.6573     0.8194 H       
  46 H46           -0.6629    -1.4903     2.1836 H       
  47 H47           -1.4685     0.0759     2.4412 H       
  48 H48            6.0600     3.9823    -2.0069 H       
  49 H49            5.7515     6.9869    -2.4569 H       
  50 H50            7.4716     7.2831    -2.1076 H       
  51 H51            6.9940     5.8944    -3.1134 H       
@<TRIPOS>BOND
   1    1    2 ar
   2    1    6 ar
   3    2    3 ar
   4    2   22 1
   5    3    4 ar
   6    3   32 1
   7    4    5 ar
   8    4    7 1
   9    5    6 ar
  10    5   33 1
  11    6   34 1
  12    7   15 2
  13    7   18 1
  14    8    9 1
  15    8   16 1
  16    8   35 1
  17    9   10 ar
  18    9   14 ar
  19   10   11 ar
  20   10   36 1
  21   11   12 ar
  22   11   37 1
  23   12   13 ar
  24   12   23 1
  25   13   14 ar
  26   13   28 1
  27   14   38 1
  28   15   16 1
  29   16   17 2
  30   17   18 1
  31   18   19 1
  32   19   20 1
  33   19   39 1
  34   19   40 1
  35   20   21 1
  36   20   41 1
  37   20   42 1
  38   21   24 1
  39   21   43 1
  40   21   44 1
  41   22   45 1
  42   22   46 1
  43   22   47 1
  44   24   25 am
  45   24   48 1
  46   25   26 1
  47   25   27 2
  48   26   49 1
  49   26   50 1
  50   26   51 1
  51   28   29 1
  52   28   30 1
  53   28   31 1

#	End of record

