#	Name: ASD07930730
#	Creating user name:	WinNT
#	Creation time:	15. 06. 2019 21:13

#	Modifying user name:	WinNT
#	Modification time:	15. 06. 2019 21:13

#	Program:	/corina/corina34_cracker 3.40 0067  02.08.2006

@<TRIPOS>MOLECULE
ASD07930730
  38   39    0    0    0
SMALL
NO_CHARGES


@<TRIPOS>ATOM
   1 C1            -0.0226     1.3884     0.4153 C.3     
   2 N2             0.9778    -0.3456    -1.7992 N.2     
   3 N3            -0.8057    -1.7319    -1.2003 N.pl3   
   4 C4            -0.9463    -2.8443    -0.2548 C.3     
   5 C5            -1.3784    -2.2952     1.1119 C.3     
   6 S6            -0.1564    -1.0538     1.6409 S.o2    
   7 N7            -0.0267    -0.0721     0.3008 N.am    
   8 C8             0.0767    -0.7063    -0.9292 C.2     
   9 C9             0.3944    -3.5678    -0.1141 C.3     
  10 O10           -0.6971    -0.2119     2.6498 O.2     
  11 O11            1.1304    -1.6404     1.7803 O.2     
  12 C12           -1.9874    -3.8081    -0.7630 C.ar    
  13 C13           -2.2059    -5.0037    -0.1003 C.ar    
  14 C14           -3.1628    -5.8891    -0.5669 C.ar    
  15 C15           -3.8999    -5.5791    -1.6936 C.ar    
  16 C16           -3.6813    -4.3832    -2.3565 C.ar    
  17 C17           -2.7280    -3.4959    -1.8873 C.ar    
  18 F18           -1.4852    -5.3068     1.0015 F       
  19 F19           -4.4017    -4.0802    -3.4586 F       
  20 C20           -2.7575    -1.6434     0.9933 C.3     
  21 C21           -3.2703    -1.2775     2.3876 C.3     
  22 H22            1.0019     1.7405     0.5353 H       
  23 H23           -0.4535     1.8247    -0.4859 H       
  24 H24           -0.6131     1.6866     1.2815 H       
  25 H25            1.5903     0.3774    -1.5916 H       
  26 H26           -1.3292    -1.7192    -2.0168 H       
  27 H27           -1.4162    -3.1066     1.8386 H       
  28 H28            1.1466    -2.8705     0.2550 H       
  29 H29            0.2892    -4.3943     0.5887 H       
  30 H30            0.7026    -3.9540    -1.0857 H       
  31 H31           -3.3328    -6.8221    -0.0503 H       
  32 H32           -4.6462    -6.2697    -2.0576 H       
  33 H33           -2.5578    -2.5630    -2.4041 H       
  34 H34           -2.6822    -0.7416     0.3857 H       
  35 H35           -3.4501    -2.3415     0.5230 H       
  36 H36           -3.3729    -2.1828     2.9861 H       
  37 H37           -2.5633    -0.6019     2.8690 H       
  38 H38           -4.2400    -0.7874     2.3010 H       
@<TRIPOS>BOND
   1    1    7 1
   2    1   22 1
   3    1   23 1
   4    1   24 1
   5    2    8 2
   6    2   25 1
   7    3    4 1
   8    3    8 1
   9    3   26 1
  10    4    9 1
  11    4   12 1
  12    4    5 1
  13    5    6 1
  14    5   20 1
  15    5   27 1
  16    6    7 am
  17    6   10 2
  18    6   11 2
  19    7    8 1
  20    9   28 1
  21    9   29 1
  22    9   30 1
  23   12   13 ar
  24   12   17 ar
  25   13   14 ar
  26   13   18 1
  27   14   15 ar
  28   14   31 1
  29   15   16 ar
  30   15   32 1
  31   16   17 ar
  32   16   19 1
  33   17   33 1
  34   20   21 1
  35   20   34 1
  36   20   35 1
  37   21   36 1
  38   21   37 1
  39   21   38 1

#	End of record

