#	Name: ASD07301046
#	Creating user name:	WinNT
#	Creation time:	15. 06. 2019 21:10

#	Modifying user name:	WinNT
#	Modification time:	15. 06. 2019 21:10

#	Program:	/corina/corina34_cracker 3.40 0067  02.08.2006

@<TRIPOS>MOLECULE
ASD07301046
  46   48    0    0    0
SMALL
NO_CHARGES


@<TRIPOS>ATOM
   1 C1            -0.0178     1.4648     0.0101 C.2     
   2 C2             0.0021    -0.0041     0.0020 C.2     
   3 C3             1.2768    -0.6367    -0.0136 C.2     
   4 C4             2.3782     0.1591    -0.0198 C.2     
   5 N5             2.2576     1.5098    -0.0114 N.pl3   
   6 N6             1.1282     2.1157     0.0026 N.2     
   7 C7            -1.2986     2.1988     0.0202 C.2     
   8 O8            -2.3496     1.5875     0.0218 O.2     
   9 N9            -1.3029     3.5465     0.0275 N.am    
  10 O10           -1.0316    -0.6549     0.0088 O.2     
  11 C11           -2.5740     4.2749     0.0375 C.3     
  12 O12            1.3888    -1.9916    -0.0215 O.3     
  13 C13            2.7111    -2.5332    -0.0370 C.3     
  14 O14           -0.0789     4.2585     0.0256 O.3     
  15 C15            0.4173     4.5578    -1.2807 C.3     
  16 C16            3.4250     2.2810    -0.0184 C.ar    
  17 C17            3.9598     2.7462     1.1798 C.ar    
  18 C18            5.1142     3.5088     1.1749 C.ar    
  19 C19            5.7407     3.8119    -0.0178 C.ar    
  20 C20            5.2115     3.3500    -1.2210 C.ar    
  21 C21            4.0534     2.5777    -1.2184 C.ar    
  22 N22            7.2994     4.4771    -3.9702 N.pl3   
  23 N23            6.3129     3.7609    -4.6588 N.2     
  24 C24            5.4649     3.2804    -3.7883 C.2     
  25 C25            5.8846     3.6767    -2.5037 C.2     
  26 C26            7.0219     4.4154    -2.6519 C.2     
  27 C27            8.4396     5.1688    -4.5765 C.3     
  28 F28            3.3504     2.4527     2.3493 F       
  29 H29            3.3607    -0.2892    -0.0312 H       
  30 H30           -2.8843     4.4500     1.0676 H       
  31 H31           -2.4491     5.2305    -0.4717 H       
  32 H32           -3.3341     3.6862    -0.4759 H       
  33 H33            3.2335    -2.1909    -0.9304 H       
  34 H34            3.2508    -2.1999     0.8494 H       
  35 H35            2.6578    -3.6219    -0.0420 H       
  36 H36           -0.3107     5.1683    -1.8148 H       
  37 H37            1.3570     5.1036    -1.1961 H       
  38 H38            0.5842     3.6297    -1.8274 H       
  39 H39            5.5262     3.8684     2.1062 H       
  40 H40            6.6414     4.4078    -0.0180 H       
  41 H41            3.6427     2.2146    -2.1489 H       
  42 H42            4.5937     2.6835    -4.0146 H       
  43 H43            7.5962     4.8684    -1.8574 H       
  44 H44            8.1594     6.1960    -4.8096 H       
  45 H45            9.2768     5.1700    -3.8786 H       
  46 H46            8.7310     4.6549    -5.4926 H       
@<TRIPOS>BOND
   1    1    2 1
   2    1    6 2
   3    1    7 1
   4    2    3 1
   5    2   10 2
   6    3    4 2
   7    3   12 1
   8    4    5 1
   9    4   29 1
  10    5    6 1
  11    5   16 1
  12    7    8 2
  13    7    9 am
  14    9   11 1
  15    9   14 1
  16   11   30 1
  17   11   31 1
  18   11   32 1
  19   12   13 1
  20   13   33 1
  21   13   34 1
  22   13   35 1
  23   14   15 1
  24   15   36 1
  25   15   37 1
  26   15   38 1
  27   16   17 ar
  28   16   21 ar
  29   17   18 ar
  30   17   28 1
  31   18   19 ar
  32   18   39 1
  33   19   20 ar
  34   19   40 1
  35   20   21 ar
  36   20   25 1
  37   21   41 1
  38   22   23 1
  39   22   26 1
  40   22   27 1
  41   23   24 2
  42   24   25 1
  43   24   42 1
  44   25   26 2
  45   26   43 1
  46   27   44 1
  47   27   45 1
  48   27   46 1

#	End of record

