#	Name: ASD01120170
#	Creating user name:	WinNT
#	Creation time:	15. 06. 2019 18:59

#	Modifying user name:	WinNT
#	Modification time:	15. 06. 2019 18:59

#	Program:	/corina/corina34_cracker 3.40 0067  02.08.2006

@<TRIPOS>MOLECULE
ASD01120170
  30   31    0    0    0
SMALL
NO_CHARGES


@<TRIPOS>ATOM
   1 C1            -0.0168     1.3861     0.0097 C.ar    
   2 C2             0.0021    -0.0041     0.0020 C.ar    
   3 C3             1.1973    -0.6901    -0.0126 C.ar    
   4 C4             2.3989     0.0124    -0.0203 C.ar    
   5 C5             2.3778     1.4210    -0.0130 C.ar    
   6 C6             1.1489     2.0969     0.0023 C.ar    
   7 N7             3.7167    -0.3793    -0.0346 N.pl3   
   8 C8             4.5159     0.7490    -0.0364 C.2     
   9 C9             3.7245     1.8548    -0.0234 C.2     
  10 C10            5.9840     0.7526    -0.0501 C.2     
  11 Cl11           1.1102     3.8324     0.0109 Cl      
  12 Cl12          -1.4943    -0.8842     0.0116 Cl      
  13 C13            4.1972     3.2858    -0.0211 C.3     
  14 C14            4.3438     3.7768    -1.4627 C.3     
  15 C15            4.8164     5.2078    -1.4603 C.2     
  16 O16            6.5894     1.8070    -0.0500 O.2     
  17 O17            6.6611    -0.4136    -0.0628 O.3     
  18 N18            5.0170     5.8531    -2.6264 N.am    
  19 O19            5.0163     5.7787    -0.4091 O.2     
  20 O20            5.4611     7.1977    -2.6242 O.3     
  21 H21           -0.9620     1.9085     0.0170 H       
  22 H22            1.2015    -1.7701    -0.0177 H       
  23 H23            4.0335    -1.2960    -0.0418 H       
  24 H24            3.4708     3.9075     0.5024 H       
  25 H25            5.1609     3.3493     0.4842 H       
  26 H26            5.0701     3.1551    -1.9862 H       
  27 H27            3.3801     3.7133    -1.9679 H       
  28 H28            7.6266    -0.3606    -0.0715 H       
  29 H29            4.8571     5.3965    -3.4672 H       
  30 H30            5.5763     7.5753    -3.5070 H       
@<TRIPOS>BOND
   1    1    2 ar
   2    1    6 ar
   3    1   21 1
   4    2    3 ar
   5    2   12 1
   6    3    4 ar
   7    3   22 1
   8    4    5 ar
   9    4    7 1
  10    5    6 ar
  11    5    9 1
  12    6   11 1
  13    7    8 1
  14    7   23 1
  15    8    9 2
  16    8   10 1
  17    9   13 1
  18   10   16 2
  19   10   17 1
  20   13   14 1
  21   13   24 1
  22   13   25 1
  23   14   15 1
  24   14   26 1
  25   14   27 1
  26   15   18 am
  27   15   19 2
  28   17   28 1
  29   18   20 1
  30   18   29 1
  31   20   30 1

#	End of record

