#	Name: ASD01412013
#	Creating user name:	WinNT
#	Creation time:	15. 06. 2019 19:19

#	Modifying user name:	WinNT
#	Modification time:	15. 06. 2019 19:19

#	Program:	/corina/corina34_cracker 3.40 0067  02.08.2006

@<TRIPOS>MOLECULE
ASD01412013
  79   83    0    0    0
SMALL
NO_CHARGES


@<TRIPOS>ATOM
   1 C1            -1.1719     3.2494    -0.6281 C.ar    
   2 C2            -0.9744     1.9109    -1.0237 C.ar    
   3 C3            -2.0425     1.0032    -0.9801 C.ar    
   4 C4            -3.2688     1.4145    -0.5565 C.ar    
   5 C5            -3.4749     2.7444    -0.1613 C.ar    
   6 C6            -2.4231     3.6580    -0.1933 C.ar    
   7 N7             0.0355     3.9015    -0.7732 N.pl3   
   8 C8             0.9675     3.0075    -1.2448 C.2     
   9 C9             0.3836     1.7929    -1.4060 C.2     
  10 C10            1.0604     0.5417    -1.9034 C.3     
  11 C11            0.9735    -0.5459    -0.8308 C.3     
  12 C12            1.6606    -1.8163    -1.3358 C.3     
  13 C13            0.9654    -2.3000    -2.6100 C.3     
  14 C14            1.0524    -1.2124    -3.6826 C.3     
  15 C15            0.3653     0.0580    -3.1777 C.3     
  16 C16           -4.8097     3.1768     0.2948 C.2     
  17 O17           -4.9912     4.3292     0.6379 O.2     
  18 N18           -5.8279     2.2946     0.3311 N.am    
  19 C19           -7.1534     2.7239     0.7840 C.3     
  20 C20           -8.1052     1.5567     0.7299 C.2     
  21 C21           -7.0591     3.2388     2.2216 C.3     
  22 C22           -7.6657     3.8423    -0.1258 C.3     
  23 C23           -8.8162    -0.4856    -0.2523 C.ar    
  24 O24           -8.9754     1.4446     1.5671 O.2     
  25 C25           -9.1919    -1.0741     0.9516 C.ar    
  26 C26          -10.0118    -2.1792     0.9534 C.ar    
  27 C27          -10.4685    -2.7113    -0.2585 C.ar    
  28 C28          -10.0883    -2.1157    -1.4672 C.ar    
  29 C29           -9.2677    -1.0111    -1.4593 C.ar    
  30 C30          -11.3439    -3.8915    -0.2618 C.2     
  31 C31          -12.3916    -3.9579     0.5886 C.2     
  32 N32           -7.9893     0.6375    -0.2490 N.am    
  33 C33            0.2836     5.3140    -0.4741 C.3     
  34 C34            2.3838     3.3203    -1.5318 C.ar    
  35 C35            2.7173     4.4833    -2.2277 C.ar    
  36 C36            4.0402     4.7698    -2.4926 C.ar    
  37 C37            5.0367     3.9063    -2.0695 C.ar    
  38 C38            4.7119     2.7507    -1.3790 C.ar    
  39 C39            3.3928     2.4567    -1.1029 C.ar    
  40 Cl40           6.6996     4.2735    -2.4065 Cl      
  41 C41          -12.7900    -2.8066     1.3138 C.2     
  42 O42          -12.2160    -1.7485     1.1384 O.2     
  43 O43          -13.8059    -2.8845     2.1984 O.3     
  44 H44           -1.8920    -0.0224    -1.2830 H       
  45 H45           -4.0888     0.7123    -0.5247 H       
  46 H46           -2.5840     4.6815     0.1113 H       
  47 H47            2.1070     0.7561    -2.1195 H       
  48 H48            1.4687    -0.2013     0.0770 H       
  49 H49           -0.0732    -0.7603    -0.6147 H       
  50 H50            2.7072    -1.6019    -1.5518 H       
  51 H51            1.5986    -2.5911    -0.5716 H       
  52 H52            1.4549    -3.2050    -2.9698 H       
  53 H53           -0.0812    -2.5144    -2.3939 H       
  54 H54            2.0990    -0.9980    -3.8987 H       
  55 H55            0.5571    -1.5570    -4.5904 H       
  56 H56           -0.6814    -0.1564    -2.9616 H       
  57 H57            0.4272     0.8328    -3.9418 H       
  58 H58           -5.6832     1.3753     0.0573 H       
  59 H59           -6.3706     4.0830     2.2607 H       
  60 H60           -8.0452     3.5583     2.5586 H       
  61 H61           -6.6941     2.4421     2.8697 H       
  62 H62           -7.7329     3.4754    -1.1500 H       
  63 H63           -8.6518     4.1617     0.2112 H       
  64 H64           -6.9773     4.6865    -0.0866 H       
  65 H65           -8.8391    -0.6629     1.8860 H       
  66 H66          -10.3023    -2.6356     1.8881 H       
  67 H67          -10.4380    -2.5230    -2.4044 H       
  68 H68           -8.9742    -0.5508    -2.3912 H       
  69 H69          -11.1496    -4.7060    -0.9440 H       
  70 H70          -12.9257    -4.8879     0.7159 H       
  71 H71           -7.3308     0.7571    -0.9511 H       
  72 H72            0.5957     5.4159     0.5653 H       
  73 H73            1.0697     5.6913    -1.1281 H       
  74 H74           -0.6301     5.8857    -0.6368 H       
  75 H75            1.9409     5.1574    -2.5585 H       
  76 H76            4.2995     5.6693    -3.0313 H       
  77 H77            5.4933     2.0807    -1.0519 H       
  78 H78            3.1407     1.5553    -0.5641 H       
  79 H79          -14.0047    -2.0495     2.6437 H       
@<TRIPOS>BOND
   1    1    2 ar
   2    1    7 1
   3    1    6 ar
   4    2    3 ar
   5    2    9 1
   6    3    4 ar
   7    3   44 1
   8    4    5 ar
   9    4   45 1
  10    5    6 ar
  11    5   16 1
  12    6   46 1
  13    7    8 1
  14    7   33 1
  15    8    9 2
  16    8   34 1
  17    9   10 1
  18   10   11 1
  19   10   15 1
  20   10   47 1
  21   11   12 1
  22   11   48 1
  23   11   49 1
  24   12   13 1
  25   12   50 1
  26   12   51 1
  27   13   14 1
  28   13   52 1
  29   13   53 1
  30   14   15 1
  31   14   54 1
  32   14   55 1
  33   15   56 1
  34   15   57 1
  35   16   17 2
  36   16   18 am
  37   18   19 1
  38   18   58 1
  39   19   20 1
  40   19   21 1
  41   19   22 1
  42   20   24 2
  43   20   32 am
  44   21   59 1
  45   21   60 1
  46   21   61 1
  47   22   62 1
  48   22   63 1
  49   22   64 1
  50   23   25 ar
  51   23   29 ar
  52   23   32 1
  53   25   26 ar
  54   25   65 1
  55   26   27 ar
  56   26   66 1
  57   27   28 ar
  58   27   30 1
  59   28   29 ar
  60   28   67 1
  61   29   68 1
  62   30   31 2
  63   30   69 1
  64   31   41 1
  65   31   70 1
  66   32   71 1
  67   33   72 1
  68   33   73 1
  69   33   74 1
  70   34   35 ar
  71   34   39 ar
  72   35   36 ar
  73   35   75 1
  74   36   37 ar
  75   36   76 1
  76   37   38 ar
  77   37   40 1
  78   38   39 ar
  79   38   77 1
  80   39   78 1
  81   41   42 2
  82   41   43 1
  83   43   79 1

#	End of record

