#	Name: ASD00070002
#	Creating user name:	WinNT
#	Creation time:	15. 06. 2019 18:29

#	Modifying user name:	WinNT
#	Modification time:	15. 06. 2019 18:29

#	Program:	/corina/corina34_cracker 3.40 0067  02.08.2006

@<TRIPOS>MOLECULE
ASD00070002
  59   62    0    0    0
SMALL
NO_CHARGES


@<TRIPOS>ATOM
   1 C1            -0.0187     1.5263     0.0104 C.3     
   2 C2             0.0021    -0.0041     0.0020 C.3     
   3 N3             0.7238    -0.4751    -1.1883 N.3     
   4 C4             2.1034     0.0310    -1.1988 C.3     
   5 C5             2.0826     1.5614    -1.1904 C.3     
   6 N6             1.3610     2.0324    -0.0000 N.3     
   7 C7             0.7014    -1.8722    -1.2683 C.ar    
   8 C8             1.3844     3.4988     0.0839 C.3     
   9 C9             0.1273    -2.4996    -2.3718 C.ar    
  10 C10            0.1079    -3.8825    -2.4456 C.ar    
  11 C11            0.6571    -4.6375    -1.4255 C.ar    
  12 C12            1.2270    -4.0157    -0.3300 C.ar    
  13 C13            1.2559    -2.6360    -0.2516 C.ar    
  14 O14           -0.4133    -1.7558    -3.3741 O.3     
  15 C15           -0.9844    -2.4669    -4.4742 C.3     
  16 C16            0.8486     3.9402     1.4474 C.3     
  17 N17            0.8720     5.4026     1.5311 N.am    
  18 C18           -0.2083     6.0858     1.1253 C.2     
  19 C19           -0.2572     7.5897     1.2020 C.3     
  20 C20            1.1611     8.1454     1.0836 C.3     
  21 C21            2.0554     7.4990     2.1404 C.3     
  22 C22            1.9708     6.0000     2.0152 C.2     
  23 C23            1.7202     7.8738    -0.3199 C.3     
  24 C24            2.0249     9.2527    -0.9434 C.3     
  25 C25            2.2131    10.1886     0.2768 C.3     
  26 C26            1.1443     9.6724     1.2734 C.3     
  27 O27            2.9173     5.3211     2.3511 O.2     
  28 O28           -1.1640     5.4817     0.6880 O.2     
  29 H29           -0.5453     1.8877    -0.8728 H       
  30 H30           -0.5283     1.8781     0.9074 H       
  31 H31            0.5048    -0.3659     0.8989 H       
  32 H32           -1.0203    -0.3815    -0.0195 H       
  33 H33            2.6300    -0.3304    -0.3155 H       
  34 H34            2.6130    -0.3208    -2.0958 H       
  35 H35            3.1050     1.9388    -1.1689 H       
  36 H36            1.5799     1.9232    -2.0873 H       
  37 H37            2.4081     3.8533    -0.0363 H       
  38 H38            0.7598     3.9179    -0.7050 H       
  39 H39           -0.3365    -4.3714    -3.3000 H       
  40 H40            0.6404    -5.7157    -1.4845 H       
  41 H41            1.6547    -4.6095     0.4643 H       
  42 H42            1.7021    -2.1529     0.6050 H       
  43 H43           -1.3787    -1.7564    -5.2007 H       
  44 H44           -0.2182    -3.0819    -4.9463 H       
  45 H45           -1.7918    -3.1048    -4.1146 H       
  46 H46           -0.1751     3.5857     1.5676 H       
  47 H47            1.4732     3.5211     2.2362 H       
  48 H48           -0.8689     7.9762     0.3868 H       
  49 H49           -0.6881     7.8918     2.1565 H       
  50 H50            3.0860     7.8212     1.9918 H       
  51 H51            1.7194     7.7972     3.1335 H       
  52 H52            2.6346     7.2846    -0.2505 H       
  53 H53            0.9799     7.3467    -0.9217 H       
  54 H54            2.9388     9.2099    -1.5358 H       
  55 H55            1.1877     9.5879    -1.5556 H       
  56 H56            3.2141    10.0817     0.6946 H       
  57 H57            2.0166    11.2250     0.0025 H       
  58 H58            0.1633    10.0772     1.0247 H       
  59 H59            1.4180     9.9331     2.2957 H       
@<TRIPOS>BOND
   1    1    2 1
   2    1    6 1
   3    1   29 1
   4    1   30 1
   5    2    3 1
   6    2   31 1
   7    2   32 1
   8    3    4 1
   9    3    7 1
  10    4    5 1
  11    4   33 1
  12    4   34 1
  13    5    6 1
  14    5   35 1
  15    5   36 1
  16    6    8 1
  17    7    9 ar
  18    7   13 ar
  19    8   16 1
  20    8   37 1
  21    8   38 1
  22    9   10 ar
  23    9   14 1
  24   10   11 ar
  25   10   39 1
  26   11   12 ar
  27   11   40 1
  28   12   13 ar
  29   12   41 1
  30   13   42 1
  31   14   15 1
  32   15   43 1
  33   15   44 1
  34   15   45 1
  35   16   17 1
  36   16   46 1
  37   16   47 1
  38   17   18 am
  39   17   22 am
  40   18   19 1
  41   18   28 2
  42   19   20 1
  43   19   48 1
  44   19   49 1
  45   20   21 1
  46   20   23 1
  47   20   26 1
  48   21   22 1
  49   21   50 1
  50   21   51 1
  51   22   27 2
  52   23   24 1
  53   23   52 1
  54   23   53 1
  55   24   25 1
  56   24   54 1
  57   24   55 1
  58   25   26 1
  59   25   56 1
  60   25   57 1
  61   26   58 1
  62   26   59 1

#	End of record

