#	Name: ASD03330817
#	Creating user name:	WinNT
#	Creation time:	15. 06. 2019 20:38

#	Modifying user name:	WinNT
#	Modification time:	15. 06. 2019 20:38

#	Program:	/corina/corina34_cracker 3.40 0067  02.08.2006

@<TRIPOS>MOLECULE
ASD03330817
  58   60    0    0    0
SMALL
NO_CHARGES


@<TRIPOS>ATOM
   1 C1            -0.7440     2.5876     1.7336 C.2     
   2 N2            -1.0440     1.4685     2.4339 N.pl3   
   3 C3             0.6084     2.7435     1.7847 C.2     
   4 N4             1.1148     1.7136     2.4970 N.2     
   5 C5             0.1293     0.9393     2.8862 C.2     
   6 C6             0.2677    -0.3005     3.6818 C.ar    
   7 C7             1.3805     3.8390     1.1720 C.2     
   8 O8             0.8074     4.7134     0.5506 O.2     
   9 N9             2.7217     3.8720     1.3003 N.am    
  10 C10           -2.3937     0.9462     2.6647 C.3     
  11 C11           -3.1641     0.9405     1.3407 C.3     
  12 C12           -3.8453     2.2899     1.1352 C.3     
  13 N13           -3.0376     3.3765     1.6934 N.3     
  14 C14           -1.7337     3.4724     1.0207 C.3     
  15 C15           -0.7452    -0.6855     4.5606 C.ar    
  16 C16           -0.6102    -1.8427     5.2997 C.ar    
  17 C17            0.5265    -2.6206     5.1709 C.ar    
  18 C18            1.5347    -2.2440     4.3015 C.ar    
  19 C19            1.4089    -1.0923     3.5521 C.ar    
  20 C20            3.4893     4.9610     0.6913 C.3     
  21 C21            4.7866     5.1396     1.4371 C.2     
  22 C22            3.7844     4.6213    -0.7711 C.3     
  23 C23            2.4690     4.5133    -1.5450 C.3     
  24 O24            4.5920     5.6507    -1.3457 O.3     
  25 C25            4.5302     3.2874    -0.8443 C.3     
  26 O26            5.2536     4.2170     2.0709 O.2     
  27 N27            5.4278     6.3245     1.3998 N.am    
  28 C28            6.7446     6.4648     2.0263 C.3     
  29 C29           -3.7585     4.6548     1.6291 C.3     
  30 H30            3.1788     3.1746     1.7960 H       
  31 H31           -2.3295    -0.0702     3.0531 H       
  32 H32           -2.9115     1.5801     3.3846 H       
  33 H33           -2.4719     0.7550     0.5194 H       
  34 H34           -3.9179     0.1536     1.3633 H       
  35 H35           -3.9864     2.4607     0.0680 H       
  36 H36           -4.8181     2.2782     1.6267 H       
  37 H37           -1.3849     4.5047     1.0476 H       
  38 H38           -1.8332     3.1472    -0.0149 H       
  39 H39           -1.6329    -0.0788     4.6623 H       
  40 H40           -1.3934    -2.1416     5.9806 H       
  41 H41            0.6275    -3.5255     5.7516 H       
  42 H42            2.4200    -2.8551     4.2059 H       
  43 H43            2.1966    -0.7994     2.8738 H       
  44 H44            2.9119     5.8842     0.7404 H       
  45 H45            1.8863     5.4230    -1.3999 H       
  46 H46            2.6814     4.3833    -2.6062 H       
  47 H47            1.9022     3.6567    -1.1803 H       
  48 H48            4.8185     5.5010    -2.2738 H       
  49 H49            3.9142     2.5022    -0.4060 H       
  50 H50            4.7404     3.0453    -1.8860 H       
  51 H51            5.4673     3.3643    -0.2929 H       
  52 H52            5.0173     7.0844     0.9582 H       
  53 H53            6.6665     6.2410     3.0902 H       
  54 H54            7.4446     5.7718     1.5597 H       
  55 H55            7.1024     7.4860     1.8952 H       
  56 H56           -4.6843     4.5790     2.1993 H       
  57 H57           -3.1362     5.4445     2.0500 H       
  58 H58           -3.9899     4.8895     0.5901 H       
@<TRIPOS>BOND
   1    1    2 1
   2    1    3 2
   3    1   14 1
   4    2   10 1
   5    2    5 1
   6    3    4 1
   7    3    7 1
   8    4    5 2
   9    5    6 1
  10    6   15 ar
  11    6   19 ar
  12    7    8 2
  13    7    9 am
  14    9   20 1
  15    9   30 1
  16   10   11 1
  17   10   31 1
  18   10   32 1
  19   11   12 1
  20   11   33 1
  21   11   34 1
  22   12   13 1
  23   12   35 1
  24   12   36 1
  25   13   14 1
  26   13   29 1
  27   14   37 1
  28   14   38 1
  29   15   16 ar
  30   15   39 1
  31   16   17 ar
  32   16   40 1
  33   17   18 ar
  34   17   41 1
  35   18   19 ar
  36   18   42 1
  37   19   43 1
  38   20   21 1
  39   20   22 1
  40   20   44 1
  41   21   26 2
  42   21   27 am
  43   22   23 1
  44   22   24 1
  45   22   25 1
  46   23   45 1
  47   23   46 1
  48   23   47 1
  49   24   48 1
  50   25   49 1
  51   25   50 1
  52   25   51 1
  53   27   28 1
  54   27   52 1
  55   28   53 1
  56   28   54 1
  57   28   55 1
  58   29   56 1
  59   29   57 1
  60   29   58 1

#	End of record

