#	Name: ASD02770090
#	Creating user name:	WinNT
#	Creation time:	15. 06. 2019 20:26

#	Modifying user name:	WinNT
#	Modification time:	15. 06. 2019 20:26

#	Program:	/corina/corina34_cracker 3.40 0067  02.08.2006

@<TRIPOS>MOLECULE
ASD02770090
  33   36    0    0    0
SMALL
NO_CHARGES


@<TRIPOS>ATOM
   1 N1            -0.0153     1.2802     0.0091 N.pl3   
   2 N2             0.0021    -0.0041     0.0020 N.2     
   3 C3             1.2306    -0.4548    -0.0121 C.2     
   4 C4             2.0907     0.6457    -0.0144 C.2     
   5 C5             1.2649     1.7564    -0.0006 C.2     
   6 C6             1.6826     3.1675     0.0030 C.2     
   7 O7             2.8651     3.4517    -0.0072 O.2     
   8 N8             0.7547     4.1448     0.0176 N.am    
   9 C9             1.0320     6.2029    -1.1139 C.2     
  10 N10            1.1523     5.4882     0.0210 N.am    
  11 C11            1.6401     6.0171     1.1593 C.2     
  12 C12            2.0672     7.4234     1.2021 C.ar    
  13 C13            1.9551     8.2024     0.0281 C.ar    
  14 C14            2.3545     9.5552     0.0317 C.ar    
  15 C15            2.2306    10.3035    -1.1519 C.ar    
  16 C16            1.7304     9.7198    -2.2803 C.ar    
  17 C17            1.3334     8.3879    -2.2966 C.ar    
  18 C18            1.4391     7.6153    -1.1495 C.ar    
  19 C19            2.8638    10.1101     1.2187 C.ar    
  20 C20            2.9654     9.3426     2.3434 C.ar    
  21 C21            2.5752     8.0086     2.3525 C.ar    
  22 O22            1.7275     5.3279     2.1574 O.2     
  23 O23            0.5893     5.6757    -2.1164 O.2     
  24 H24           -0.8156     1.8284     0.0160 H       
  25 H25            1.5268    -1.4934    -0.0200 H       
  26 H26            3.1705     0.6327    -0.0248 H       
  27 H27           -0.1884     3.9181     0.0258 H       
  28 H28            2.5309    11.3408    -1.1685 H       
  29 H29            1.6408    10.3074    -3.1820 H       
  30 H30            0.9411     7.9537    -3.2044 H       
  31 H31            3.1751    11.1441     1.2410 H       
  32 H32            3.3585     9.7827     3.2479 H       
  33 H33            2.6667     7.4266     3.2577 H       
@<TRIPOS>BOND
   1    1    2 1
   2    1    5 1
   3    1   24 1
   4    2    3 2
   5    3    4 1
   6    3   25 1
   7    4    5 2
   8    4   26 1
   9    5    6 1
  10    6    7 2
  11    6    8 am
  12    8   10 1
  13    8   27 1
  14    9   10 am
  15    9   18 1
  16    9   23 2
  17   10   11 am
  18   11   12 1
  19   11   22 2
  20   12   13 ar
  21   12   21 ar
  22   13   14 ar
  23   13   18 ar
  24   14   15 ar
  25   14   19 ar
  26   15   16 ar
  27   15   28 1
  28   16   17 ar
  29   16   29 1
  30   17   18 ar
  31   17   30 1
  32   19   20 ar
  33   19   31 1
  34   20   21 ar
  35   20   32 1
  36   21   33 1

#	End of record

