#	Name: ASD00240002
#	Creating user name:	WinNT
#	Creation time:	15. 06. 2019 18:33

#	Modifying user name:	WinNT
#	Modification time:	15. 06. 2019 18:33

#	Program:	/corina/corina34_cracker 3.40 0067  02.08.2006

@<TRIPOS>MOLECULE
ASD00240002
  31   32    0    0    0
SMALL
NO_CHARGES


@<TRIPOS>ATOM
   1 C1            -0.0168     1.3902     0.0097 C.ar    
   2 C2             0.0021    -0.0041     0.0020 C.ar    
   3 C3            -1.1845    -0.7113     0.0095 C.ar    
   4 C4            -2.3909    -0.0451     0.0246 C.ar    
   5 C5            -2.4268     1.3576     0.0330 C.ar    
   6 C6            -1.2337     2.0720     0.0308 C.ar    
   7 C7            -3.5825     2.2757     0.0486 C.2     
   8 C8            -3.0557     3.6904     0.0514 C.3     
   9 C9            -1.5270     3.5529     0.0405 C.3     
  10 N10           -4.8325     1.9277     0.0578 N.2     
  11 N11           -5.8326     2.9087     0.0723 N.pl3   
  12 C12           -7.1586     2.5395     0.0821 C.2     
  13 N13           -8.1406     3.5027     0.0964 N.pl3   
  14 N14           -7.4838     1.2771     0.0778 N.2     
  15 C15            1.2559     2.1476     0.0016 C.2     
  16 N16            2.4580     1.4746    -0.0135 N.pl3   
  17 N17            1.2387     3.4498     0.0088 N.2     
  18 H18            0.9446    -0.5312    -0.0102 H       
  19 H19           -1.1667    -1.7911     0.0032 H       
  20 H20           -3.3139    -0.6059     0.0297 H       
  21 H21           -3.3958     4.2220    -0.8373 H       
  22 H22           -3.3794     4.2123     0.9519 H       
  23 H23           -1.1035     4.0131     0.9332 H       
  24 H24           -1.1155     4.0211    -0.8537 H       
  25 H25           -5.5906     3.8480     0.0755 H       
  26 H26           -7.8987     4.4420     0.0996 H       
  27 H27           -9.0751     3.2425     0.1033 H       
  28 H28           -8.4182     1.0170     0.0847 H       
  29 H29            2.4708     0.5047    -0.0188 H       
  30 H30            3.2915     1.9707    -0.0188 H       
  31 H31            2.0722     3.9458     0.0035 H       
@<TRIPOS>BOND
   1    1    2 ar
   2    1   15 1
   3    1    6 ar
   4    2    3 ar
   5    2   18 1
   6    3    4 ar
   7    3   19 1
   8    4    5 ar
   9    4   20 1
  10    5    6 ar
  11    5    7 1
  12    6    9 1
  13    7    8 1
  14    7   10 2
  15    8    9 1
  16    8   21 1
  17    8   22 1
  18    9   23 1
  19    9   24 1
  20   10   11 1
  21   11   12 1
  22   11   25 1
  23   12   13 1
  24   12   14 2
  25   13   26 1
  26   13   27 1
  27   14   28 1
  28   15   16 1
  29   15   17 2
  30   16   29 1
  31   16   30 1
  32   17   31 1

#	End of record

