#	Name: ASD01816439
#	Creating user name:	WinNT
#	Creation time:	15. 06. 2019 19:35

#	Modifying user name:	WinNT
#	Modification time:	15. 06. 2019 19:35

#	Program:	/corina/corina34_cracker 3.40 0067  02.08.2006

@<TRIPOS>MOLECULE
ASD01816439
  56   61    0    0    0
SMALL
NO_CHARGES


@<TRIPOS>ATOM
   1 C1            -0.0167     1.3813     0.0096 C.ar    
   2 C2             0.0021    -0.0041     0.0020 C.ar    
   3 C3             1.1983    -0.6909    -0.0131 C.ar    
   4 C4             2.4015     0.0060    -0.0204 C.ar    
   5 C5             2.3790     1.4106    -0.0127 C.ar    
   6 C6             1.1662     2.0917     0.0022 C.ar    
   7 N7             3.6052    -0.6771    -0.0347 N.pl3   
   8 C8             4.7970    -0.0584    -0.0423 C.2     
   9 C9             4.8999     1.3104    -0.0364 C.2     
  10 C10            3.6670     2.1302    -0.0207 C.2     
  11 C11            5.9971     2.2732    -0.0423 C.2     
  12 N12            5.4244     3.4962    -0.0314 N.am    
  13 N13            4.0322     3.3800    -0.0186 N.2     
  14 C14            6.1211     4.6994    -0.0320 C.ar    
  15 O15            7.1910     2.0233    -0.0542 O.2     
  16 C16            3.5778    -2.1418    -0.0413 C.3     
  17 C17            3.5554    -2.6374    -1.4643 C.ar    
  18 C18            4.7432    -2.8867    -2.1269 C.ar    
  19 C19            4.7258    -3.3405    -3.4313 C.ar    
  20 C20            3.5142    -3.5469    -4.0770 C.ar    
  21 C21            2.3232    -3.2962    -3.4089 C.ar    
  22 C22            2.3469    -2.8474    -2.1028 C.ar    
  23 N23            3.4933    -4.0070    -5.4010 N.pl3   
  24 C24            2.3884    -4.2483    -6.1424 C.2     
  25 C25            2.7950    -4.6777    -7.3595 C.2     
  26 C26            4.1941    -4.7000    -7.3632 C.2     
  27 N27            4.6134    -4.2926    -6.1923 N.2     
  28 C28            7.0603     4.9829    -1.0218 C.ar    
  29 C29            7.7314     6.1868    -0.9901 C.ar    
  30 N30            7.5011     7.0756    -0.0399 N.ar    
  31 C31            6.6242     6.8614     0.9215 C.ar    
  32 C32            5.8930     5.6687     0.9643 C.ar    
  33 F33            6.4265     7.8029     1.8701 F       
  34 C34            4.9090     5.4295     2.0328 C.2     
  35 O35            5.2544     4.8960     3.0687 O.2     
  36 O36            3.6250     5.8021     1.8622 O.3     
  37 C37            2.7100     5.5351     2.9576 C.3     
  38 H38           -0.9602     1.9069     0.0170 H       
  39 H39           -0.9289    -0.5515     0.0083 H       
  40 H40            1.2003    -1.7709    -0.0189 H       
  41 H41            1.1506     3.1715     0.0077 H       
  42 H42            5.6982    -0.6534    -0.0530 H       
  43 H43            4.4655    -2.5241     0.4626 H       
  44 H44            2.6860    -2.4909     0.4791 H       
  45 H45            5.6854    -2.7260    -1.6242 H       
  46 H46            5.6539    -3.5344    -3.9486 H       
  47 H47            1.3792    -3.4554    -3.9087 H       
  48 H48            1.4209    -2.6522    -1.5826 H       
  49 H49            1.3653    -4.1216    -5.8207 H       
  50 H50            2.1530    -4.9543    -8.1827 H       
  51 H51            4.8202    -4.9977    -8.1913 H       
  52 H52            7.2606     4.2669    -1.8051 H       
  53 H53            8.4595     6.4076    -1.7566 H       
  54 H54            2.6804     4.4632     3.1532 H       
  55 H55            3.0506     6.0582     3.8512 H       
  56 H56            1.7123     5.8834     2.6907 H       
@<TRIPOS>BOND
   1    1    2 ar
   2    1    6 ar
   3    1   38 1
   4    2    3 ar
   5    2   39 1
   6    3    4 ar
   7    3   40 1
   8    4    5 ar
   9    4    7 1
  10    5    6 ar
  11    5   10 1
  12    6   41 1
  13    7    8 1
  14    7   16 1
  15    8    9 2
  16    8   42 1
  17    9   10 1
  18    9   11 1
  19   10   13 2
  20   11   12 am
  21   11   15 2
  22   12   13 1
  23   12   14 1
  24   14   32 ar
  25   14   28 ar
  26   16   17 1
  27   16   43 1
  28   16   44 1
  29   17   18 ar
  30   17   22 ar
  31   18   19 ar
  32   18   45 1
  33   19   20 ar
  34   19   46 1
  35   20   21 ar
  36   20   23 1
  37   21   22 ar
  38   21   47 1
  39   22   48 1
  40   23   24 1
  41   23   27 1
  42   24   25 2
  43   24   49 1
  44   25   26 1
  45   25   50 1
  46   26   27 2
  47   26   51 1
  48   28   29 ar
  49   28   52 1
  50   29   30 ar
  51   29   53 1
  52   30   31 ar
  53   31   32 ar
  54   31   33 1
  55   32   34 1
  56   34   35 2
  57   34   36 1
  58   36   37 1
  59   37   54 1
  60   37   55 1
  61   37   56 1

#	End of record

