#	Name: ASD02030085
#	Creating user name:	WinNT
#	Creation time:	15. 06. 2019 20:14

#	Modifying user name:	WinNT
#	Modification time:	15. 06. 2019 20:14

#	Program:	/corina/corina34_cracker 3.40 0067  02.08.2006

@<TRIPOS>MOLECULE
ASD02030085
  56   59    0    0    0
SMALL
NO_CHARGES


@<TRIPOS>ATOM
   1 C1            -0.5747     0.3794    -1.1544 C.ar    
   2 C2             0.0032    -0.0026     0.0482 C.ar    
   3 C3            -0.6230     0.2826     1.2471 C.ar    
   4 C4            -1.8344     0.9536     1.2585 C.ar    
   5 C5            -2.4270     1.3447     0.0473 C.ar    
   6 C6            -1.7833     1.0564    -1.1624 C.ar    
   7 C7            -3.7148     2.0585     0.0493 C.2     
   8 C8            -4.9813     1.3001    -0.0545 C.ar    
   9 C9            -6.2041     1.9632     0.0659 C.ar    
  10 C10           -7.3832     1.2569    -0.0307 C.ar    
  11 C11           -4.9538    -0.0778    -0.2783 C.ar    
  12 O12           -3.7376     3.2710     0.1361 O.2     
  13 F13           -2.3442     1.4280    -2.3340 F       
  14 O14           -2.4472     1.2319     2.4370 O.3     
  15 C15           -6.1331    -0.7837    -0.3748 C.ar    
  16 C16           -7.3553    -0.1216    -0.2483 C.ar    
  17 C17           -8.6221    -0.8801    -0.3520 C.2     
  18 N18           -9.8023    -0.2409    -0.2299 N.am    
  19 O19           -8.5980    -2.0794    -0.5473 O.2     
  20 C20          -11.0561    -0.9917    -0.3325 C.3     
  21 C21          -11.4464    -1.5733     1.0419 C.3     
  22 C22          -12.8101    -0.9317     1.3765 C.3     
  23 N23          -13.3810    -0.5565     0.0573 N.3     
  24 C24          -12.2169    -0.0475    -0.7128 C.3     
  25 C25          -14.3606     0.4329     0.1978 C.ar    
  26 C26          -14.0330     1.6601     0.7591 C.ar    
  27 C27          -15.6594     0.1902    -0.2292 C.ar    
  28 C28          -16.6254     1.1674    -0.0906 C.ar    
  29 C29          -16.2985     2.3911     0.4746 C.ar    
  30 C30          -15.0003     2.6361     0.8970 C.ar    
  31 O31          -17.2502     3.3532     0.6099 O.3     
  32 O32            0.0503     0.0931    -2.3284 O.3     
  33 C33            1.2963    -0.6019    -2.2474 C.3     
  34 H34            0.9477    -0.5262     0.0473 H       
  35 H35           -0.1661    -0.0192     2.1780 H       
  36 H36           -6.2258     3.0297     0.2349 H       
  37 H37           -8.3291     1.7698     0.0624 H       
  38 H38           -4.0081    -0.5902    -0.3762 H       
  39 H39           -2.1405     2.0472     2.8569 H       
  40 H40           -6.1118    -1.8495    -0.5483 H       
  41 H41           -9.8216     0.7163    -0.0740 H       
  42 H42          -10.9593    -1.7904    -1.0679 H       
  43 H43          -11.5428    -2.6573     0.9807 H       
  44 H44          -10.7051    -1.3002     1.7929 H       
  45 H45          -13.4558    -1.6516     1.8793 H       
  46 H46          -12.6716    -0.0460     1.9965 H       
  47 H47          -11.9856     0.9765    -0.4197 H       
  48 H48          -12.4160    -0.1018    -1.7830 H       
  49 H49          -13.0222     1.8510     1.0881 H       
  50 H50          -15.9139    -0.7623    -0.6700 H       
  51 H51          -17.6357     0.9788    -0.4227 H       
  52 H52          -14.7466     3.5893     1.3370 H       
  53 H53          -17.7299     3.3167     1.4488 H       
  54 H54            2.0076    -0.0069    -1.6745 H       
  55 H55            1.1454    -1.5621    -1.7542 H       
  56 H56            1.6864    -0.7666    -3.2518 H       
@<TRIPOS>BOND
   1    1    2 ar
   2    1   32 1
   3    1    6 ar
   4    2    3 ar
   5    2   34 1
   6    3    4 ar
   7    3   35 1
   8    4    5 ar
   9    4   14 1
  10    5    6 ar
  11    5    7 1
  12    6   13 1
  13    7    8 1
  14    7   12 2
  15    8    9 ar
  16    8   11 ar
  17    9   10 ar
  18    9   36 1
  19   10   16 ar
  20   10   37 1
  21   11   15 ar
  22   11   38 1
  23   14   39 1
  24   15   16 ar
  25   15   40 1
  26   16   17 1
  27   17   18 am
  28   17   19 2
  29   18   20 1
  30   18   41 1
  31   20   21 1
  32   20   24 1
  33   20   42 1
  34   21   22 1
  35   21   43 1
  36   21   44 1
  37   22   23 1
  38   22   45 1
  39   22   46 1
  40   23   24 1
  41   23   25 1
  42   24   47 1
  43   24   48 1
  44   25   26 ar
  45   25   27 ar
  46   26   30 ar
  47   26   49 1
  48   27   28 ar
  49   27   50 1
  50   28   29 ar
  51   28   51 1
  52   29   30 ar
  53   29   31 1
  54   30   52 1
  55   31   53 1
  56   32   33 1
  57   33   54 1
  58   33   55 1
  59   33   56 1

#	End of record

