#	Name: ASD01916656
#	Creating user name:	WinNT
#	Creation time:	15. 06. 2019 20:07

#	Modifying user name:	WinNT
#	Modification time:	15. 06. 2019 20:07

#	Program:	/corina/corina34_cracker 3.40 0067  02.08.2006

@<TRIPOS>MOLECULE
ASD01916656
  17   17    0    0    0
SMALL
NO_CHARGES


@<TRIPOS>ATOM
   1 C1            -0.0168     1.3913     0.0097 C.ar    
   2 C2             0.0021    -0.0041     0.0020 C.ar    
   3 C3             1.2071    -0.6749    -0.0131 C.ar    
   4 C4             2.3976     0.0343    -0.0202 C.ar    
   5 C5             2.3845     1.4199    -0.0126 C.ar    
   6 C6             1.1849     2.1006     0.0020 C.ar    
   7 F7             3.5753    -0.6276    -0.0341 F       
   8 C8            -1.2652     2.0929     0.0194 C.1     
   9 C9            -2.2886     2.6681     0.0274 C.1     
  10 C10           -3.5718     3.3893     0.0374 C.3     
  11 Br11          -3.2349     5.3262     0.0463 Br      
  12 H12           -0.9252    -0.5577     0.0083 H       
  13 H13            1.2229    -1.7548    -0.0190 H       
  14 H14            3.3151     1.9679    -0.0178 H       
  15 H15            1.1758     3.1805     0.0076 H       
  16 H16           -4.1445     3.1242    -0.8514 H       
  17 H17           -4.1360     3.1145     0.9285 H       
@<TRIPOS>BOND
   1    1    2 ar
   2    1    6 ar
   3    1    8 1
   4    2    3 ar
   5    2   12 1
   6    3    4 ar
   7    3   13 1
   8    4    5 ar
   9    4    7 1
  10    5    6 ar
  11    5   14 1
  12    6   15 1
  13    8    9 3
  14    9   10 1
  15   10   11 1
  16   10   16 1
  17   10   17 1

#	End of record

