#	Name: ASD01820207
#	Creating user name:	WinNT
#	Creation time:	15. 06. 2019 19:36

#	Modifying user name:	WinNT
#	Modification time:	15. 06. 2019 19:36

#	Program:	/corina/corina34_cracker 3.40 0067  02.08.2006

@<TRIPOS>MOLECULE
ASD01820207
 100  110    0    0    0
SMALL
NO_CHARGES


@<TRIPOS>ATOM
   1 C1             0.4844     1.0266     1.0263 C.2     
   2 C2             0.2442    -0.2624     0.9578 C.2     
   3 C3             1.2337    -1.2827     0.5080 C.3     
   4 N4             2.1987    -0.6964    -0.4589 N.pl3   
   5 C5             3.4869    -0.3275    -0.1458 C.2     
   6 C6             3.8682     0.6295     0.6666 C.2     
   7 C7             2.9389     1.5127     1.4258 C.3     
   8 N8             1.6530     1.6793     0.6999 N.pl3   
   9 C9            -1.1475    -0.6941     1.4014 C.3     
  10 C10           -1.7411    -1.5622     0.2838 C.3     
  11 C11           -0.8303    -2.7399     0.0505 C.3     
  12 C12            0.5785    -2.3702    -0.3633 C.3     
  13 C13            0.6830    -1.8281    -1.7501 C.ar    
  14 C14            1.6218    -0.7813    -1.7213 C.ar    
  15 C15            0.0382    -2.1929    -2.9129 C.ar    
  16 C16            0.3255    -1.4543    -4.0546 C.ar    
  17 C17            1.2157    -0.4011    -4.0284 C.ar    
  18 C18            1.8802    -0.0366    -2.8684 C.ar    
  19 C19            5.3751     0.7947     0.8252 C.3     
  20 C20            5.7090     2.2712     0.5728 C.3     
  21 C21            4.9405     3.1157     1.5560 C.3     
  22 C22            3.4366     2.9704     1.4666 C.3     
  23 C23            2.8368     3.5865     0.2454 C.ar    
  24 C24            1.8188     2.7246    -0.2015 C.ar    
  25 C25            3.1354     4.7601    -0.4125 C.ar    
  26 C26            2.4126     5.0408    -1.5660 C.ar    
  27 C27            1.4387     4.1835    -2.0348 C.ar    
  28 C28            1.1195     3.0083    -1.3712 C.ar    
  29 C29           -0.9708    -1.6209     2.5937 C.2     
  30 N30           -0.6388    -3.6234     1.2137 N.4     
  31 C31           -0.1508    -2.8668     2.3801 C.3     
  32 C32           -1.5081    -1.3477     3.7568 C.2     
  33 C33           -1.1984    -2.2123     4.9516 C.3     
  34 O34           -0.9889    -1.3843     6.0973 O.3     
  35 C35           -1.8527    -4.3945     1.5135 C.3     
  36 C36           -1.6037    -5.2792     2.7078 C.2     
  37 C37           -2.3958    -5.2122     3.7491 C.2     
  38 C38            1.3499    -3.6937    -0.1888 C.3     
  39 C39            0.4937    -4.5089     0.8067 C.3     
  40 N40            5.2389     2.8526     2.9746 N.4     
  41 C41            5.7016     0.5415     2.2878 C.2     
  42 C42            5.0336     1.4305     3.3047 C.3     
  43 C43            6.5284    -0.4084     2.6488 C.2     
  44 C44            6.7173    -0.7281     4.1093 C.3     
  45 O45            6.7062    -2.1453     4.2920 O.3     
  46 C46            6.5892     3.3035     3.3369 C.3     
  47 C47            6.8424     3.0118     4.7935 C.2     
  48 C48            7.8877     2.3064     5.1482 C.2     
  49 C49            2.9444     3.6390     2.7654 C.3     
  50 C50            4.1683     3.5933     3.7078 C.3     
  51 H51           -0.3285     1.6467     1.3742 H       
  52 H52            1.7544    -1.7179     1.3609 H       
  53 H53            4.2747    -0.8909    -0.6235 H       
  54 H54            2.7704     1.1232     2.4298 H       
  55 H55           -1.7827     0.1612     1.6316 H       
  56 H56           -2.7280    -1.9166     0.5814 H       
  57 H57           -1.8216    -0.9753    -0.6312 H       
  58 H58           -1.2622    -3.3482    -0.7442 H       
  59 H59           -0.6594    -3.0170    -2.9357 H       
  60 H60           -0.1596    -1.7114    -4.9846 H       
  61 H61            1.3998     0.1544    -4.9361 H       
  62 H62            2.5710     0.7934    -2.8547 H       
  63 H63            5.9273     0.1341     0.1569 H       
  64 H64            6.7783     2.4327     0.7096 H       
  65 H65            5.4232     2.5420    -0.4436 H       
  66 H66            5.1860     4.1607     1.3672 H       
  67 H67            3.8975     5.4326    -0.0475 H       
  68 H68            2.6180     5.9520    -2.1080 H       
  69 H69            0.9105     4.4345    -2.9428 H       
  70 H70            0.3591     2.3398    -1.7470 H       
  71 H71            0.8898    -2.5871     2.2161 H       
  72 H72           -0.2164    -3.4955     3.2681 H       
  73 H73           -2.1729    -0.5028     3.8595 H       
  74 H74           -2.0341    -2.8866     5.1386 H       
  75 H75           -0.2984    -2.7949     4.7550 H       
  76 H76           -0.7845    -1.8750     6.9051 H       
  77 H77           -2.6727    -3.7106     1.7325 H       
  78 H78           -2.1134    -5.0107     0.6530 H       
  79 H79           -0.7722    -5.9684     2.7053 H       
  80 H80           -2.2173    -5.8462     4.6050 H       
  81 H81           -3.2272    -4.5229     3.7516 H       
  82 H82            1.4282    -4.2173    -1.1416 H       
  83 H83            2.3402    -3.5054     0.2258 H       
  84 H84            1.0894    -4.7788     1.6787 H       
  85 H85            0.1106    -5.4071     0.3223 H       
  86 H86            5.4536     1.2269     4.2897 H       
  87 H87            3.9649     1.2168     3.3205 H       
  88 H88            7.0746    -0.9623     1.8997 H       
  89 H89            7.6716    -0.3254     4.4489 H       
  90 H90            5.9081    -0.2809     4.6867 H       
  91 H91            6.8230    -2.4244     5.2105 H       
  92 H92            7.3238     2.7767     2.7278 H       
  93 H93            6.6735     4.3760     3.1611 H       
  94 H94            6.1620     3.3843     5.5450 H       
  95 H95            8.0691     2.0973     6.1921 H       
  96 H96            8.5681     1.9340     4.3967 H       
  97 H97            2.6490     4.6707     2.5745 H       
  98 H98            2.1138     3.0768     3.1922 H       
  99 H99            3.9125     3.0674     4.6276 H       
 100 H100           4.5027     4.6054     3.9357 H       
@<TRIPOS>BOND
   1    1    2 2
   2    1    8 1
   3    1   51 1
   4    2    3 1
   5    2    9 1
   6    3    4 1
   7    3   12 1
   8    3   52 1
   9    4    5 1
  10    4   14 1
  11    5    6 2
  12    5   53 1
  13    6    7 1
  14    6   19 1
  15    7    8 1
  16    7   22 1
  17    7   54 1
  18    8   24 1
  19    9   10 1
  20    9   29 1
  21    9   55 1
  22   10   11 1
  23   10   56 1
  24   10   57 1
  25   11   12 1
  26   11   30 1
  27   11   58 1
  28   12   13 1
  29   12   38 1
  30   13   14 ar
  31   13   15 ar
  32   14   18 ar
  33   15   16 ar
  34   15   59 1
  35   16   17 ar
  36   16   60 1
  37   17   18 ar
  38   17   61 1
  39   18   62 1
  40   19   20 1
  41   19   41 1
  42   19   63 1
  43   20   21 1
  44   20   64 1
  45   20   65 1
  46   21   22 1
  47   21   40 1
  48   21   66 1
  49   22   23 1
  50   22   49 1
  51   23   24 ar
  52   23   25 ar
  53   24   28 ar
  54   25   26 ar
  55   25   67 1
  56   26   27 ar
  57   26   68 1
  58   27   28 ar
  59   27   69 1
  60   28   70 1
  61   29   31 1
  62   29   32 2
  63   30   35 1
  64   30   39 1
  65   30   31 1
  66   31   71 1
  67   31   72 1
  68   32   33 1
  69   32   73 1
  70   33   34 1
  71   33   74 1
  72   33   75 1
  73   34   76 1
  74   35   36 1
  75   35   77 1
  76   35   78 1
  77   36   37 2
  78   36   79 1
  79   37   80 1
  80   37   81 1
  81   38   39 1
  82   38   82 1
  83   38   83 1
  84   39   84 1
  85   39   85 1
  86   40   42 1
  87   40   46 1
  88   40   50 1
  89   41   43 2
  90   41   42 1
  91   42   86 1
  92   42   87 1
  93   43   44 1
  94   43   88 1
  95   44   45 1
  96   44   89 1
  97   44   90 1
  98   45   91 1
  99   46   47 1
 100   46   92 1
 101   46   93 1
 102   47   48 2
 103   47   94 1
 104   48   95 1
 105   48   96 1
 106   49   50 1
 107   49   97 1
 108   49   98 1
 109   50   99 1
 110   50  100 1

#	End of record

