#	Name: ASD01916090
#	Creating user name:	WinNT
#	Creation time:	15. 06. 2019 20:06

#	Modifying user name:	WinNT
#	Modification time:	15. 06. 2019 20:06

#	Program:	/corina/corina34_cracker 3.40 0067  02.08.2006

@<TRIPOS>MOLECULE
ASD01916090
  40   42    0    0    0
SMALL
NO_CHARGES


@<TRIPOS>ATOM
   1 C1            -0.4110     1.7409     0.1046 C.ar    
   2 C2            -0.5436     0.3907     0.3733 C.ar    
   3 N3             0.4996    -0.3392     0.7071 N.ar    
   4 C4             1.7174     0.1824     0.8001 C.ar    
   5 C5             1.9308     1.5332     0.5444 C.ar    
   6 C6             0.8469     2.3320     0.1893 C.ar    
   7 C7            -1.9026    -0.2542     0.2831 C.3     
   8 O8             1.0126     3.6543    -0.0687 O.3     
   9 C9             2.2644     4.1728     0.0365 C.ar    
  10 C10            3.1943     3.9764    -0.9741 C.ar    
  11 N11            4.4098     4.4777    -0.8774 N.ar    
  12 C12            4.7903     5.1794     0.1719 C.ar    
  13 C13            3.9194     5.4175     1.2207 C.ar    
  14 C14            2.6296     4.9132     1.1565 C.ar    
  15 C15            2.8590    -0.6819     1.1800 C.2     
  16 N16            2.6591    -1.9912     1.4295 N.am    
  17 O17            3.9756    -0.2103     1.2667 O.2     
  18 C18            3.7462    -2.8262     1.6837 C.ar    
  19 C19            3.5448    -4.1943     1.8247 C.ar    
  20 C20            4.6318    -5.0128     2.0768 C.ar    
  21 C21            5.8897    -4.4309     2.1797 C.ar    
  22 C22            6.0158    -3.0618     2.0281 C.ar    
  23 N23            4.9605    -2.3090     1.7829 N.ar    
  24 Cl24           4.4335     6.3427     2.5967 Cl      
  25 F25            6.9772    -5.1939     2.4255 F       
  26 C26            7.3762    -2.4229     2.1387 C.3     
  27 H27           -1.2731     2.3295    -0.1724 H       
  28 H28            2.9217     1.9559     0.6208 H       
  29 H29           -2.0631    -0.6234    -0.7299 H       
  30 H30           -1.9576    -1.0857     0.9858 H       
  31 H31           -2.6702     0.4799     0.5281 H       
  32 H32            2.9197     3.4064    -1.8494 H       
  33 H33            5.7950     5.5733     0.2137 H       
  34 H34            1.9284     5.0832     1.9601 H       
  35 H35            1.7589    -2.3525     1.4321 H       
  36 H36            2.5529    -4.6129     1.7390 H       
  37 H37            4.5055    -6.0793     2.1914 H       
  38 H38            7.8449    -2.3937     1.1550 H       
  39 H39            7.2708    -1.4077     2.5212 H       
  40 H40            7.9967    -3.0052     2.8198 H       
@<TRIPOS>BOND
   1    1    2 ar
   2    1    6 ar
   3    1   27 1
   4    2    3 ar
   5    2    7 1
   6    3    4 ar
   7    4    5 ar
   8    4   15 1
   9    5    6 ar
  10    5   28 1
  11    6    8 1
  12    7   29 1
  13    7   30 1
  14    7   31 1
  15    8    9 1
  16    9   10 ar
  17    9   14 ar
  18   10   11 ar
  19   10   32 1
  20   11   12 ar
  21   12   13 ar
  22   12   33 1
  23   13   14 ar
  24   13   24 1
  25   14   34 1
  26   15   16 am
  27   15   17 2
  28   16   18 1
  29   16   35 1
  30   18   19 ar
  31   18   23 ar
  32   19   20 ar
  33   19   36 1
  34   20   21 ar
  35   20   37 1
  36   21   22 ar
  37   21   25 1
  38   22   23 ar
  39   22   26 1
  40   26   38 1
  41   26   39 1
  42   26   40 1

#	End of record

