#	Name: ASD01190016
#	Creating user name:	WinNT
#	Creation time:	15. 06. 2019 19:07

#	Modifying user name:	WinNT
#	Modification time:	15. 06. 2019 19:07

#	Program:	/corina/corina34_cracker 3.40 0067  02.08.2006

@<TRIPOS>MOLECULE
ASD01190016
  61   64    0    0    0
SMALL
NO_CHARGES


@<TRIPOS>ATOM
   1 C1            -0.0187     1.5279     0.0104 C.3     
   2 C2            -3.6704    -0.2727     5.2518 C.ar    
   3 C3            -2.8791     0.0744     6.3370 C.ar    
   4 C4            -1.5473     0.3974     6.1429 C.ar    
   5 C5            -0.9881     0.3689     4.8721 C.ar    
   6 C6            -1.7903     0.0364     3.7931 C.ar    
   7 C7            -3.1207    -0.2882     3.9846 C.ar    
   8 C8             0.4781     0.6940     4.7504 C.3     
   9 C9             0.9023     0.8916     3.2879 C.3     
  10 C10            0.2744    -0.2542     2.5024 C.3     
  11 C11           -1.2234     0.0606     2.4043 C.3     
  12 C12            0.8419    -0.5731     1.1635 C.3     
  13 C13            0.0021    -0.0041     0.0020 C.3     
  14 C14           -1.4024    -0.5503    -0.0125 C.3     
  15 C15           -1.8896    -0.8712     1.4134 C.3     
  16 C16            2.2439    -0.0435     0.8324 C.3     
  17 C17            2.3219    -0.1989    -0.7119 C.3     
  18 C18            0.8697    -0.4198    -1.2046 C.3     
  19 O19           -3.4115     0.0993     7.5875 O.3     
  20 C20           -4.7933    -0.2435     7.7113 C.3     
  21 C21           -5.2035    -0.1611     9.1591 C.2     
  22 O22           -6.4666    -0.4427     9.5158 O.3     
  23 O23           -4.3956     0.1584     9.9987 O.2     
  24 C24           -6.7907    -0.3426    10.9276 C.3     
  25 C25           -8.2638    -0.6977    11.1391 C.3     
  26 O26            0.6480    -1.8150    -1.5209 O.3     
  27 O27            1.2519    -1.3884    -3.6034 O.2     
  28 C28            0.8776    -2.1968    -2.7871 C.2     
  29 C29            0.6684    -3.6336    -3.1906 C.3     
  30 H30            0.9803     1.9060    -0.2066 H       
  31 H31           -0.7153     1.8860    -0.7476 H       
  32 H32           -0.3359     1.8816     0.9915 H       
  33 H33           -4.7135    -0.5222     5.3944 H       
  34 H34           -0.9397     0.6829     6.9895 H       
  35 H35           -3.7463    -0.5483     3.1424 H       
  36 H36            0.6935     1.6050     5.3067 H       
  37 H37            1.0575    -0.1269     5.1729 H       
  38 H38            0.5198     1.8460     2.9315 H       
  39 H39            1.9848     0.8561     3.2108 H       
  40 H40            0.3693    -1.1630     3.1309 H       
  41 H41           -1.3406     1.0878     2.0578 H       
  42 H42            0.8809    -1.6777     1.0538 H       
  43 H43           -2.0778     0.1925    -0.4621 H       
  44 H44           -1.4507    -1.4554    -0.6237 H       
  45 H45           -1.6564    -1.9098     1.6571 H       
  46 H46           -2.9762    -0.7406     1.4564 H       
  47 H47            2.3590     0.9953     1.1266 H       
  48 H48            3.0066    -0.6611     1.3106 H       
  49 H49            2.7368     0.7011    -1.1595 H       
  50 H50            2.9373    -1.0636    -0.9673 H       
  51 H51            0.6449     0.2214    -2.0500 H       
  52 H52           -5.3939     0.4506     7.1234 H       
  53 H53           -4.9499    -1.2586     7.3465 H       
  54 H54           -6.1656    -1.0332    11.4937 H       
  55 H55           -6.6096     0.6760    11.2707 H       
  56 H56           -8.5071    -0.6226    12.1989 H       
  57 H57           -8.8889    -0.0072    10.5730 H       
  58 H58           -8.4449    -1.7164    10.7960 H       
  59 H59           -0.3707    -3.9125    -3.0157 H       
  60 H60            0.9033    -3.7518    -4.2484 H       
  61 H61            1.3214    -4.2757    -2.5994 H       
@<TRIPOS>BOND
   1    1   13 1
   2    1   30 1
   3    1   31 1
   4    1   32 1
   5    2    3 ar
   6    2    7 ar
   7    2   33 1
   8    3    4 ar
   9    3   19 1
  10    4    5 ar
  11    4   34 1
  12    5    6 ar
  13    5    8 1
  14    6    7 ar
  15    6   11 1
  16    7   35 1
  17    8    9 1
  18    8   36 1
  19    8   37 1
  20    9   10 1
  21    9   38 1
  22    9   39 1
  23   10   11 1
  24   10   12 1
  25   10   40 1
  26   11   15 1
  27   11   41 1
  28   12   13 1
  29   12   16 1
  30   12   42 1
  31   13   14 1
  32   13   18 1
  33   14   15 1
  34   14   43 1
  35   14   44 1
  36   15   45 1
  37   15   46 1
  38   16   17 1
  39   16   47 1
  40   16   48 1
  41   17   18 1
  42   17   49 1
  43   17   50 1
  44   18   26 1
  45   18   51 1
  46   19   20 1
  47   20   21 1
  48   20   52 1
  49   20   53 1
  50   21   22 1
  51   21   23 2
  52   22   24 1
  53   24   25 1
  54   24   54 1
  55   24   55 1
  56   25   56 1
  57   25   57 1
  58   25   58 1
  59   26   28 1
  60   27   28 2
  61   28   29 1
  62   29   59 1
  63   29   60 1
  64   29   61 1

#	End of record

