#	Name: ASD04882217
#	Creating user name:	WinNT
#	Creation time:	15. 06. 2019 20:54

#	Modifying user name:	WinNT
#	Modification time:	15. 06. 2019 20:54

#	Program:	/corina/corina34_cracker 3.40 0067  02.08.2006

@<TRIPOS>MOLECULE
ASD04882217
  71   74    0    0    0
SMALL
NO_CHARGES


@<TRIPOS>ATOM
   1 C1            -0.1617     1.4752     0.4539 C.2     
   2 C2            -0.1422     0.0094     0.4883 C.2     
   3 N3            -1.1637    -0.6908    -0.0433 N.am    
   4 C4            -1.0913    -2.0879    -0.1181 C.ar    
   5 C5            -2.2495    -2.8570     0.0250 C.ar    
   6 C6            -2.1792    -4.2434    -0.0495 C.ar    
   7 C7            -0.9686    -4.8640    -0.2639 C.ar    
   8 C8             0.1935    -4.1009    -0.4078 C.ar    
   9 C9             0.1247    -2.7066    -0.3391 C.ar    
  10 N10           -3.4755    -2.2336     0.2429 N.3     
  11 C11           -3.4998    -1.5615     1.5495 C.3     
  12 C12           -4.5823    -3.1935     0.1269 C.3     
  13 C13           -5.9130    -2.4561     0.2937 C.3     
  14 N14           -5.9373    -1.7840     1.6003 N.3     
  15 C15           -4.8306    -0.8242     1.7162 C.3     
  16 C16           -7.1670    -1.1588     1.8189 C.ar    
  17 C17           -7.6084    -0.1685     0.9508 C.ar    
  18 C18           -7.9542    -1.5301     2.9018 C.ar    
  19 C19           -9.1693    -0.9099     3.1150 C.ar    
  20 C20           -9.6034     0.0795     2.2516 C.ar    
  21 C21           -8.8250     0.4478     1.1698 C.ar    
  22 C22            1.4902    -4.7661    -0.6375 C.2     
  23 N23            1.5547    -6.1104    -0.7086 N.am    
  24 O24            2.5007    -4.1014    -0.7626 O.2     
  25 O25            0.7966    -0.5749     0.9970 O.2     
  26 C26            0.8031     2.3025     0.9533 C.2     
  27 C27            0.3766     3.6164     0.7041 C.2     
  28 C28           -0.8147     3.5346     0.0715 C.2     
  29 O29           -1.1333     2.2427    -0.0819 O.3     
  30 C30           -7.4825    -2.6088     3.8425 C.3     
  31 C31            2.8423    -6.7709    -0.9367 C.3     
  32 C32            2.6384    -8.2868    -0.9744 C.3     
  33 C33            3.9831    -8.9766    -1.2125 C.3     
  34 N34            3.7878   -10.4281    -1.2486 N.am    
  35 C35            4.8410   -11.2450    -1.4477 C.2     
  36 C36            4.6449   -12.7024    -1.4840 C.2     
  37 O37            5.9536   -10.7773    -1.5975 O.2     
  38 C38            5.6843   -13.5086    -1.6805 C.2     
  39 H39           -1.9490    -0.2275    -0.3742 H       
  40 H40           -3.0758    -4.8351     0.0615 H       
  41 H41           -0.9171    -5.9413    -0.3205 H       
  42 H42            1.0210    -2.1144    -0.4500 H       
  43 H43           -3.3929    -2.3026     2.3417 H       
  44 H44           -2.6786    -0.8470     1.6062 H       
  45 H45           -4.5503    -3.6688    -0.8535 H       
  46 H46           -4.4877    -3.9530     0.9029 H       
  47 H47           -6.0200    -1.7151    -0.4985 H       
  48 H48           -6.7343    -3.1706     0.2370 H       
  49 H49           -4.8626    -0.3489     2.6966 H       
  50 H50           -4.9252    -0.0646     0.9402 H       
  51 H51           -7.0008     0.1197     0.1056 H       
  52 H52           -9.7817    -1.1981     3.9566 H       
  53 H53          -10.5546     0.5625     2.4202 H       
  54 H54           -9.1668     1.2208     0.4976 H       
  55 H55            0.7486    -6.6406    -0.6088 H       
  56 H56            1.7171     2.0038     1.4451 H       
  57 H57            0.9016     4.5224     0.9687 H       
  58 H58           -1.4100     4.3728    -0.2594 H       
  59 H59           -6.9045    -2.1594     4.6500 H       
  60 H60           -8.3444    -3.1300     4.2591 H       
  61 H61           -6.8574    -3.3172     3.2989 H       
  62 H62            3.2589    -6.4366    -1.8869 H       
  63 H63            3.5291    -6.5167    -0.1294 H       
  64 H64            2.2218    -8.6211    -0.0242 H       
  65 H65            1.9516    -8.5410    -1.7817 H       
  66 H66            4.3997    -8.6423    -2.1627 H       
  67 H67            4.6699    -8.7223    -0.4052 H       
  68 H68            2.9004   -10.8011    -1.1291 H       
  69 H69            3.6569   -13.1178    -1.3510 H       
  70 H70            6.6723   -13.0932    -1.8135 H       
  71 H71            5.5403   -14.5786    -1.7071 H       
@<TRIPOS>BOND
   1    1    2 1
   2    1   26 2
   3    1   29 1
   4    2    3 am
   5    2   25 2
   6    3    4 1
   7    3   39 1
   8    4    5 ar
   9    4    9 ar
  10    5    6 ar
  11    5   10 1
  12    6    7 ar
  13    6   40 1
  14    7    8 ar
  15    7   41 1
  16    8    9 ar
  17    8   22 1
  18    9   42 1
  19   10   11 1
  20   10   12 1
  21   11   15 1
  22   11   43 1
  23   11   44 1
  24   12   13 1
  25   12   45 1
  26   12   46 1
  27   13   14 1
  28   13   47 1
  29   13   48 1
  30   14   15 1
  31   14   16 1
  32   15   49 1
  33   15   50 1
  34   16   17 ar
  35   16   18 ar
  36   17   21 ar
  37   17   51 1
  38   18   19 ar
  39   18   30 1
  40   19   20 ar
  41   19   52 1
  42   20   21 ar
  43   20   53 1
  44   21   54 1
  45   22   23 am
  46   22   24 2
  47   23   31 1
  48   23   55 1
  49   26   27 1
  50   26   56 1
  51   27   28 2
  52   27   57 1
  53   28   29 1
  54   28   58 1
  55   30   59 1
  56   30   60 1
  57   30   61 1
  58   31   32 1
  59   31   62 1
  60   31   63 1
  61   32   33 1
  62   32   64 1
  63   32   65 1
  64   33   34 1
  65   33   66 1
  66   33   67 1
  67   34   35 am
  68   34   68 1
  69   35   36 1
  70   35   37 2
  71   36   38 2
  72   36   69 1
  73   38   70 1
  74   38   71 1

#	End of record

