#	Name: ASD01881118
#	Creating user name:	WinNT
#	Creation time:	15. 06. 2019 19:42

#	Modifying user name:	WinNT
#	Modification time:	15. 06. 2019 19:42

#	Program:	/corina/corina34_cracker 3.40 0067  02.08.2006

@<TRIPOS>MOLECULE
ASD01881118
  39   41    0    0    0
SMALL
NO_CHARGES


@<TRIPOS>ATOM
   1 N1            -0.0158     1.3115     0.0093 N.ar    
   2 C2             0.0021    -0.0041     0.0020 C.ar    
   3 N3             1.1309    -0.6861    -0.0124 N.ar    
   4 C4             2.3010    -0.0695    -0.0203 C.ar    
   5 C5             2.3346     1.3162    -0.0132 C.ar    
   6 C6             1.1204     2.0073     0.0021 C.ar    
   7 C7             3.6464     2.0579    -0.0212 C.3     
   8 O8             4.0487     2.2996    -1.3710 O.3     
   9 C9             5.2182     2.9628    -1.5559 C.ar    
  10 C10            5.6686     3.2310    -2.8453 C.ar    
  11 C11            6.8511     3.9021    -3.0322 C.ar    
  12 C12            7.6096     4.3198    -1.9332 C.ar    
  13 C13            7.1528     4.0479    -0.6392 C.ar    
  14 C14            5.9612     3.3780    -0.4582 C.ar    
  15 C15            7.6057     4.3424    -4.2619 C.3     
  16 N16            8.8139     5.0213    -3.7797 N.am    
  17 C17            8.8116     5.0057    -2.4357 C.2     
  18 O18            9.6790     5.4898    -1.7344 O.2     
  19 C19            3.5817    -0.8636    -0.0363 C.3     
  20 Cl20           8.0812     4.5584     0.7361 Cl      
  21 C21            1.0975     3.4391     0.0100 C.1     
  22 N22            1.0793     4.5749     0.0163 N.1     
  23 C23            9.5019     7.0812    -4.9043 C.3     
  24 C24            9.8515     5.6182    -4.6242 C.3     
  25 H25           -0.9349    -0.5411     0.0084 H       
  26 H26            3.5294     3.0087     0.4988 H       
  27 H27            4.4053     1.4593     0.4825 H       
  28 H28            5.0882     2.9111    -3.6981 H       
  29 H29            5.6083     3.1683     0.5407 H       
  30 H30            7.8780     3.4760    -4.8647 H       
  31 H31            6.9975     5.0312    -4.8482 H       
  32 H32            3.8809    -1.0498    -1.0677 H       
  33 H33            4.3643    -0.3012     0.4731 H       
  34 H34            3.4264    -1.8140     0.4743 H       
  35 H35            8.5415     7.1335    -5.4171 H       
  36 H36            9.4412     7.6270    -3.9627 H       
  37 H37           10.2739     7.5253    -5.5326 H       
  38 H38           10.8119     5.5660    -4.1113 H       
  39 H39            9.9122     5.0725    -5.5657 H       
@<TRIPOS>BOND
   1    1    2 ar
   2    1    6 ar
   3    2    3 ar
   4    2   25 1
   5    3    4 ar
   6    4    5 ar
   7    4   19 1
   8    5    6 ar
   9    5    7 1
  10    6   21 1
  11    7    8 1
  12    7   26 1
  13    7   27 1
  14    8    9 1
  15    9   10 ar
  16    9   14 ar
  17   10   11 ar
  18   10   28 1
  19   11   12 ar
  20   11   15 1
  21   12   13 ar
  22   12   17 1
  23   13   14 ar
  24   13   20 1
  25   14   29 1
  26   15   16 1
  27   15   30 1
  28   15   31 1
  29   16   17 am
  30   16   24 1
  31   17   18 2
  32   19   32 1
  33   19   33 1
  34   19   34 1
  35   21   22 3
  36   23   24 1
  37   23   35 1
  38   23   36 1
  39   23   37 1
  40   24   38 1
  41   24   39 1

#	End of record

