#	Name: ASD02030713
#	Creating user name:	WinNT
#	Creation time:	15. 06. 2019 20:15

#	Modifying user name:	WinNT
#	Modification time:	15. 06. 2019 20:15

#	Program:	/corina/corina34_cracker 3.40 0067  02.08.2006

@<TRIPOS>MOLECULE
ASD02030713
  55   58    0    0    0
SMALL
NO_CHARGES


@<TRIPOS>ATOM
   1 N1            -0.0162     1.3400     0.0094 N.am    
   2 C2             0.0021    -0.0041     0.0020 C.2     
   3 C3             1.4295    -0.5050    -0.0042 C.3     
   4 C4             2.2649     0.7251     0.4200 C.3     
   5 C5             1.3438     1.8917    -0.0006 C.3     
   6 O6            -0.9826    -0.7121     0.0009 O.2     
   7 C7            -1.2368     2.1501     0.0198 C.3     
   8 C8            -1.6480     2.4206     1.4442 C.ar    
   9 C9            -1.1746     3.5422     2.0991 C.ar    
  10 C10           -1.5517     3.7903     3.4056 C.ar    
  11 C11           -2.4027     2.9172     4.0571 C.ar    
  12 C12           -2.8768     1.7961     3.4019 C.ar    
  13 C13           -2.5031     1.5502     2.0939 C.ar    
  14 C14           -2.8130     3.1872     5.4818 C.3     
  15 N15            1.5952    -1.5976     0.9637 N.3     
  16 C16            0.7378    -2.7393     0.6203 C.3     
  17 C17            0.8263    -3.7955     1.7242 C.3     
  18 C18            2.2805    -4.2516     1.8721 C.3     
  19 C19            3.1593    -3.0365     2.1817 C.3     
  20 C20            3.0032    -2.0023     1.0646 C.3     
  21 C21            2.3838    -5.2478     2.9981 C.ar    
  22 C22            2.8454    -6.5269     2.7479 C.ar    
  23 C23            2.9410    -7.4420     3.7783 C.ar    
  24 C24            2.5734    -7.0766     5.0652 C.ar    
  25 C25            2.1105    -5.7926     5.3137 C.ar    
  26 C26            2.0220    -4.8795     4.2808 C.ar    
  27 O27            2.6661    -7.9751     6.0806 O.3     
  28 F28            0.0250    -4.8917     1.3871 F       
  29 H29            1.7143    -0.8332    -1.0039 H       
  30 H30            2.4332     0.7297     1.4970 H       
  31 H31            3.2104     0.7599    -0.1212 H       
  32 H32            1.6040     2.2356    -1.0017 H       
  33 H33            1.4235     2.7115     0.7133 H       
  34 H34           -1.0500     3.0951    -0.4902 H       
  35 H35           -2.0343     1.6121    -0.4927 H       
  36 H36           -0.5098     4.2243     1.5901 H       
  37 H37           -1.1813     4.6662     3.9175 H       
  38 H38           -3.5413     1.1137     3.9110 H       
  39 H39           -2.8764     0.6763     1.5808 H       
  40 H40           -3.7208     3.7905     5.4903 H       
  41 H41           -3.0003     2.2420     5.9913 H       
  42 H42           -2.0149     3.7243     5.9942 H       
  43 H43           -0.2940    -2.4020     0.5222 H       
  44 H44            1.0697    -3.1718    -0.3236 H       
  45 H45            0.4815    -3.3678     2.6656 H       
  46 H46            2.6133    -4.7147     0.9432 H       
  47 H47            2.8512    -2.5968     3.1303 H       
  48 H48            4.2017    -3.3483     2.2460 H       
  49 H49            3.3244    -2.4382     0.1186 H       
  50 H50            3.6167    -1.1298     1.2891 H       
  51 H51            3.1312    -6.8109     1.7458 H       
  52 H52            3.3013    -8.4410     3.5823 H       
  53 H53            1.8236    -5.5058     6.3147 H       
  54 H54            1.6663    -3.8784     4.4746 H       
  55 H55            3.5197    -7.9685     6.5349 H       
@<TRIPOS>BOND
   1    1    2 am
   2    1    5 1
   3    1    7 1
   4    2    3 1
   5    2    6 2
   6    3    4 1
   7    3   15 1
   8    3   29 1
   9    4    5 1
  10    4   30 1
  11    4   31 1
  12    5   32 1
  13    5   33 1
  14    7    8 1
  15    7   34 1
  16    7   35 1
  17    8    9 ar
  18    8   13 ar
  19    9   10 ar
  20    9   36 1
  21   10   11 ar
  22   10   37 1
  23   11   12 ar
  24   11   14 1
  25   12   13 ar
  26   12   38 1
  27   13   39 1
  28   14   40 1
  29   14   41 1
  30   14   42 1
  31   15   16 1
  32   15   20 1
  33   16   17 1
  34   16   43 1
  35   16   44 1
  36   17   18 1
  37   17   28 1
  38   17   45 1
  39   18   19 1
  40   18   21 1
  41   18   46 1
  42   19   20 1
  43   19   47 1
  44   19   48 1
  45   20   49 1
  46   20   50 1
  47   21   22 ar
  48   21   26 ar
  49   22   23 ar
  50   22   51 1
  51   23   24 ar
  52   23   52 1
  53   24   25 ar
  54   24   27 1
  55   25   26 ar
  56   25   53 1
  57   26   54 1
  58   27   55 1

#	End of record

