#	Name: ASD01810367
#	Creating user name:	WinNT
#	Creation time:	15. 06. 2019 19:24

#	Modifying user name:	WinNT
#	Modification time:	15. 06. 2019 19:24

#	Program:	/corina/corina34_cracker 3.40 0067  02.08.2006

@<TRIPOS>MOLECULE
ASD01810367
  57   60    0    0    0
SMALL
NO_CHARGES


@<TRIPOS>ATOM
   1 C1            -0.0184     1.5028     0.0103 C.3     
   2 C2             0.0021    -0.0041     0.0020 C.2     
   3 O3             1.0565    -0.5939    -0.0112 O.2     
   4 O4            -1.1520    -0.6915     0.0093 O.3     
   5 C5            -1.0627    -2.0439     0.0012 C.ar    
   6 C6            -1.0049    -2.7524     1.1984 C.ar    
   7 C7            -0.9121    -4.1565     1.1907 C.ar    
   8 C8            -0.8772    -4.8462     0.0236 C.ar    
   9 C9            -0.9333    -4.1616    -1.2059 C.ar    
  10 C10           -1.0332    -2.7485    -1.2193 C.ar    
  11 C11           -1.0892    -2.0722    -2.4488 C.ar    
  12 C12           -1.0469    -2.7811    -3.6109 C.ar    
  13 C13           -0.9491    -4.1706    -3.5983 C.ar    
  14 C14           -0.8984    -4.8592    -2.4244 C.ar    
  15 C15           -0.7776    -6.3498     0.0423 C.3     
  16 C16            0.6669    -6.7592    -0.0882 C.ar    
  17 C17            1.4534    -6.9275     1.0413 C.ar    
  18 C18            2.7767    -7.3047     0.8740 C.ar    
  19 C19            3.2653    -7.4993    -0.4057 C.ar    
  20 N20            2.4869    -7.3298    -1.4579 N.ar    
  21 C21            1.2221    -6.9770    -1.3348 C.ar    
  22 Cl22           4.9208    -7.9713    -0.6298 Cl      
  23 C23           -1.0406    -2.0274     2.4813 C.2     
  24 O24           -1.1203    -0.8140     2.4920 O.2     
  25 N25           -0.9849    -2.7094     3.6424 N.am    
  26 C26           -1.0203    -1.9888     4.9175 C.3     
  27 C27           -2.4743    -1.7232     5.3129 C.3     
  28 C28           -2.5113    -0.9706     6.6445 C.3     
  29 C29           -1.8347    -1.8148     7.7264 C.3     
  30 C30           -0.3807    -2.0805     7.3310 C.3     
  31 C31           -0.3437    -2.8330     5.9994 C.3     
  32 O32            1.0143    -3.0811     5.6301 O.3     
  33 H33            1.0042     1.8801     0.0026 H       
  34 H34           -0.5455     1.8639    -0.8728 H       
  35 H35           -0.5286     1.8543     0.9071 H       
  36 H36           -0.8677    -4.6923     2.1274 H       
  37 H37           -1.1658    -0.9952    -2.4727 H       
  38 H38           -1.0901    -2.2588    -4.5552 H       
  39 H39           -0.9176    -4.7101    -4.5334 H       
  40 H40           -0.8222    -5.9365    -2.4305 H       
  41 H41           -1.1792    -6.7289     0.9820 H       
  42 H42           -1.3487    -6.7621    -0.7895 H       
  43 H43            1.0447    -6.7681     2.0282 H       
  44 H44            3.4182    -7.4445     1.7315 H       
  45 H45            0.6156    -6.8480    -2.2190 H       
  46 H46           -0.9213    -3.6772     3.6339 H       
  47 H47           -0.4929    -1.0405     4.8138 H       
  48 H48           -2.9563    -1.1217     4.5422 H       
  49 H49           -3.0017    -2.6714     5.4166 H       
  50 H50           -1.9839    -0.0224     6.5408 H       
  51 H51           -3.5472    -0.7814     6.9262 H       
  52 H52           -1.8611    -1.2787     8.6751 H       
  53 H53           -2.3621    -2.7631     7.8301 H       
  54 H54            0.1466    -1.1322     7.2273 H       
  55 H55            0.1013    -2.6819     8.1017 H       
  56 H56           -0.8711    -3.7813     6.1031 H       
  57 H57            1.5056    -3.6122     6.2717 H       
@<TRIPOS>BOND
   1    1    2 1
   2    1   33 1
   3    1   34 1
   4    1   35 1
   5    2    3 2
   6    2    4 1
   7    4    5 1
   8    5    6 ar
   9    5   10 ar
  10    6    7 ar
  11    6   23 1
  12    7    8 ar
  13    7   36 1
  14    8    9 ar
  15    8   15 1
  16    9   10 ar
  17    9   14 ar
  18   10   11 ar
  19   11   12 ar
  20   11   37 1
  21   12   13 ar
  22   12   38 1
  23   13   14 ar
  24   13   39 1
  25   14   40 1
  26   15   16 1
  27   15   41 1
  28   15   42 1
  29   16   17 ar
  30   16   21 ar
  31   17   18 ar
  32   17   43 1
  33   18   19 ar
  34   18   44 1
  35   19   20 ar
  36   19   22 1
  37   20   21 ar
  38   21   45 1
  39   23   24 2
  40   23   25 am
  41   25   26 1
  42   25   46 1
  43   26   27 1
  44   26   31 1
  45   26   47 1
  46   27   28 1
  47   27   48 1
  48   27   49 1
  49   28   29 1
  50   28   50 1
  51   28   51 1
  52   29   30 1
  53   29   52 1
  54   29   53 1
  55   30   31 1
  56   30   54 1
  57   30   55 1
  58   31   32 1
  59   31   56 1
  60   32   57 1

#	End of record

