#	Name: ASD03731195
#	Creating user name:	WinNT
#	Creation time:	15. 06. 2019 20:45

#	Modifying user name:	WinNT
#	Modification time:	15. 06. 2019 20:45

#	Program:	/corina/corina34_cracker 3.40 0067  02.08.2006

@<TRIPOS>MOLECULE
ASD03731195
  65   71    0    0    0
SMALL
NO_CHARGES


@<TRIPOS>ATOM
   1 C1            -0.0181     1.4736     0.0143 C.2     
   2 C2             0.0015    -0.0044     0.0110 C.ar    
   3 C3             1.2178    -0.6893    -0.0000 C.ar    
   4 C4             1.2291    -2.0688    -0.0030 C.ar    
   5 C5             0.0384    -2.7734     0.0048 C.ar    
   6 C6            -1.1707    -2.1008     0.0158 C.ar    
   7 C7            -1.1961    -0.7215     0.0247 C.ar    
   8 O8             1.0264     2.0954     0.0073 O.2     
   9 N9            -1.1942     2.1319     0.0193 N.am    
  10 C10            0.0584    -4.2803     0.0010 C.3     
  11 O11           -2.0679    -1.5144     6.2875 O.3     
  12 C12           -2.2977    -1.5952     7.7065 C.3     
  13 O13           -2.7965    -2.9323     7.8969 O.3     
  14 C14           -2.2695    -3.6684     6.8745 C.ar    
  15 C15           -1.8226    -2.7960     5.8847 C.ar    
  16 C16           -2.1318    -5.0345     6.7060 C.ar    
  17 C17           -1.5499    -5.5473     5.5506 C.ar    
  18 C18           -1.1148    -4.6662     4.5653 C.ar    
  19 C19           -1.2450    -3.3033     4.7330 C.ar    
  20 O20           -1.3066    -6.8421     5.1977 O.3     
  21 C21           -0.5672    -5.5108     3.4460 C.3     
  22 C22           -1.0929    -6.9147     3.7749 C.3     
  23 N23            0.0760    -4.7720     1.3809 N.am    
  24 C24           -1.0332    -5.0399     2.0985 C.2     
  25 C25            0.9310    -5.4746     3.3839 C.ar    
  26 C26            1.9282    -5.7836     4.2818 C.ar    
  27 C27            3.2558    -5.6435     3.9183 C.ar    
  28 C28            3.5786    -5.1919     2.6515 C.ar    
  29 C29            2.5833    -4.8802     1.7489 C.ar    
  30 C30            1.2443    -5.0186     2.1060 C.ar    
  31 O31           -2.1823    -4.9237     1.7282 O.2     
  32 C32           -1.2149     3.5256     0.1325 C.ar    
  33 C33           -0.2675     4.1745     0.9138 C.ar    
  34 C34           -0.2908     5.5510     1.0236 C.ar    
  35 C35           -1.2562     6.2831     0.3570 C.ar    
  36 C36           -2.2009     5.6401    -0.4217 C.ar    
  37 C37           -2.1794     4.2643    -0.5406 C.ar    
  38 C38           -3.2515     6.4418    -1.1459 C.3     
  39 C39            0.7367     6.2560     1.8711 C.3     
  40 H40            2.1479    -0.1405    -0.0065 H       
  41 H41            2.1694    -2.5999    -0.0119 H       
  42 H42           -2.0966    -2.6567     0.0219 H       
  43 H43           -2.1404    -0.1976     0.0377 H       
  44 H44           -2.0262     1.6389    -0.0556 H       
  45 H45           -0.8308    -4.6542    -0.5066 H       
  46 H46            0.9490    -4.6305    -0.5209 H       
  47 H47           -1.3660    -1.4525     8.2541 H       
  48 H48           -3.0415    -0.8612     8.0164 H       
  49 H49           -2.4783    -5.7076     7.4763 H       
  50 H50           -0.8960    -2.6302     3.9639 H       
  51 H51           -0.3483    -7.6732     3.5335 H       
  52 H52           -2.0293    -7.1097     3.2522 H       
  53 H53            1.6738    -6.1359     5.2705 H       
  54 H54            4.0382    -5.8866     4.6220 H       
  55 H55            4.6149    -5.0825     2.3679 H       
  56 H56            2.8433    -4.5276     0.7618 H       
  57 H57            0.4863     3.6033     1.4352 H       
  58 H58           -1.2727     7.3594     0.4451 H       
  59 H59           -2.9148     3.7630    -1.1525 H       
  60 H60           -2.8843     6.7114    -2.1362 H       
  61 H61           -4.1591     5.8464    -1.2446 H       
  62 H62           -3.4709     7.3477    -0.5808 H       
  63 H63            1.6053     6.5015     1.2599 H       
  64 H64            0.3069     7.1721     2.2762 H       
  65 H65            1.0412     5.6044     2.6900 H       
@<TRIPOS>BOND
   1    1    2 1
   2    1    8 2
   3    1    9 am
   4    2    3 ar
   5    2    7 ar
   6    3    4 ar
   7    3   40 1
   8    4    5 ar
   9    4   41 1
  10    5    6 ar
  11    5   10 1
  12    6    7 ar
  13    6   42 1
  14    7   43 1
  15    9   32 1
  16    9   44 1
  17   10   23 1
  18   10   45 1
  19   10   46 1
  20   11   12 1
  21   11   15 1
  22   12   13 1
  23   12   47 1
  24   12   48 1
  25   13   14 1
  26   14   15 ar
  27   14   16 ar
  28   15   19 ar
  29   16   17 ar
  30   16   49 1
  31   17   18 ar
  32   17   20 1
  33   18   19 ar
  34   18   21 1
  35   19   50 1
  36   20   22 1
  37   21   22 1
  38   21   24 1
  39   21   25 1
  40   22   51 1
  41   22   52 1
  42   23   24 am
  43   23   30 1
  44   24   31 2
  45   25   26 ar
  46   25   30 ar
  47   26   27 ar
  48   26   53 1
  49   27   28 ar
  50   27   54 1
  51   28   29 ar
  52   28   55 1
  53   29   30 ar
  54   29   56 1
  55   32   33 ar
  56   32   37 ar
  57   33   34 ar
  58   33   57 1
  59   34   35 ar
  60   34   39 1
  61   35   36 ar
  62   35   58 1
  63   36   37 ar
  64   36   38 1
  65   37   59 1
  66   38   60 1
  67   38   61 1
  68   38   62 1
  69   39   63 1
  70   39   64 1
  71   39   65 1

#	End of record

