#	Name: ASD01190011
#	Creating user name:	WinNT
#	Creation time:	15. 06. 2019 19:07

#	Modifying user name:	WinNT
#	Modification time:	15. 06. 2019 19:07

#	Program:	/corina/corina34_cracker 3.40 0067  02.08.2006

@<TRIPOS>MOLECULE
ASD01190011
  56   60    0    0    0
SMALL
NO_CHARGES


@<TRIPOS>ATOM
   1 C1            -0.0642     1.5065     0.0403 C.ar    
   2 C2            -0.0726     0.1190     0.0255 C.ar    
   3 C3             1.1253    -0.5738     0.0036 C.ar    
   4 C4             2.3354     0.1071    -0.0038 C.ar    
   5 C5             2.3394     1.4866     0.0011 C.ar    
   6 C6             1.1377     2.1815     0.0281 C.ar    
   7 C7             3.5984    -0.7133    -0.0043 C.3     
   8 C8             4.8100     0.1344    -0.3900 C.3     
   9 C9             4.7864     1.4114     0.4498 C.3     
  10 C10            3.6160     2.2754    -0.0371 C.3     
  11 C11            6.0474     2.2303     0.2654 C.3     
  12 C12            5.9269     3.4447     1.2280 C.3     
  13 C13            4.8336     4.3521     0.7042 C.3     
  14 C14            3.5087     3.5676     0.7596 C.3     
  15 C15            7.3482     1.5814     0.7509 C.3     
  16 C16            8.2738     2.8031     1.0022 C.3     
  17 C17            7.3407     4.0140     1.2537 C.3     
  18 O18            7.6216     4.6052     2.5498 O.3     
  19 O19           -1.2518    -0.5566     0.0330 O.3     
  20 C20            8.5261     5.6029     2.5838 C.2     
  21 C21            8.8621     6.2518     3.8676 C.ar    
  22 O22            9.0654     5.9690     1.5587 O.2     
  23 C23            9.7992     7.2862     3.9065 C.ar    
  24 C24            8.2399     5.8373     5.0469 C.ar    
  25 C25            8.5585     6.4475     6.2423 C.ar    
  26 C26            9.4918     7.4685     6.2744 C.ar    
  27 C27           10.1083     7.8877     5.1088 C.ar    
  28 C28            5.5589     2.9536     2.6295 C.3     
  29 H29           -0.9945     2.0548     0.0569 H       
  30 H30            1.1189    -1.6537    -0.0075 H       
  31 H31            1.1446     3.2614     0.0396 H       
  32 H32            3.7551    -1.1279     0.9915 H       
  33 H33            3.4928    -1.5307    -0.7177 H       
  34 H34            5.7262    -0.4209    -0.1891 H       
  35 H35            4.7585     0.3894    -1.4485 H       
  36 H36            4.6452     1.1583     1.5005 H       
  37 H37            3.8101     2.5491    -1.0742 H       
  38 H38            6.1356     2.5667    -0.7676 H       
  39 H39            4.7620     5.2429     1.3282 H       
  40 H40            5.0515     4.6374    -0.3250 H       
  41 H41            2.7102     4.1814     0.3427 H       
  42 H42            3.2744     3.3312     1.7975 H       
  43 H43            7.1814     1.0275     1.6748 H       
  44 H44            7.7662     0.9327    -0.0188 H       
  45 H45            8.8994     2.6249     1.8769 H       
  46 H46            8.8971     2.9865     0.1271 H       
  47 H47            7.4636     4.7558     0.4646 H       
  48 H48           -1.6040    -0.7427    -0.8482 H       
  49 H49           10.2811     7.6144     2.9974 H       
  50 H50            7.5107     5.0410     5.0231 H       
  51 H51            8.0780     6.1279     7.1552 H       
  52 H52            9.7370     7.9433     7.2129 H       
  53 H53           10.8362     8.6849     5.1409 H       
  54 H54            6.2987     2.2273     2.9659 H       
  55 H55            5.5405     3.7988     3.3175 H       
  56 H56            4.5752     2.4848     2.6035 H       
@<TRIPOS>BOND
   1    1    2 ar
   2    1    6 ar
   3    1   29 1
   4    2    3 ar
   5    2   19 1
   6    3    4 ar
   7    3   30 1
   8    4    5 ar
   9    4    7 1
  10    5    6 ar
  11    5   10 1
  12    6   31 1
  13    7    8 1
  14    7   32 1
  15    7   33 1
  16    8    9 1
  17    8   34 1
  18    8   35 1
  19    9   10 1
  20    9   11 1
  21    9   36 1
  22   10   14 1
  23   10   37 1
  24   11   12 1
  25   11   15 1
  26   11   38 1
  27   12   13 1
  28   12   28 1
  29   12   17 1
  30   13   14 1
  31   13   39 1
  32   13   40 1
  33   14   41 1
  34   14   42 1
  35   15   16 1
  36   15   43 1
  37   15   44 1
  38   16   17 1
  39   16   45 1
  40   16   46 1
  41   17   18 1
  42   17   47 1
  43   18   20 1
  44   19   48 1
  45   20   21 1
  46   20   22 2
  47   21   23 ar
  48   21   24 ar
  49   23   27 ar
  50   23   49 1
  51   24   25 ar
  52   24   50 1
  53   25   26 ar
  54   25   51 1
  55   26   27 ar
  56   26   52 1
  57   27   53 1
  58   28   54 1
  59   28   55 1
  60   28   56 1

#	End of record

