#	Name: ASD02500154
#	Creating user name:	WinNT
#	Creation time:	15. 06. 2019 20:22

#	Modifying user name:	WinNT
#	Modification time:	15. 06. 2019 20:22

#	Program:	/corina/corina34_cracker 3.40 0067  02.08.2006

@<TRIPOS>MOLECULE
ASD02500154
  62   66    0    0    0
SMALL
NO_CHARGES


@<TRIPOS>ATOM
   1 N1            -1.6356     0.2803     0.5823 N.am    
   2 C2            -1.2308    -0.5866    -0.5333 C.3     
   3 C3            -0.1725     0.1479    -1.3656 C.3     
   4 N4             0.8621     0.6650    -0.4591 N.am    
   5 C5             0.4574     1.5319     0.6565 C.3     
   6 C6            -0.6009     0.7975     1.4889 C.3     
   7 C7            -2.9318     0.5999     0.7673 C.2     
   8 O8            -3.2643     1.2539     1.7370 O.2     
   9 N9            -3.8594     0.1945    -0.1224 N.am    
  10 C10            2.1589     0.3496    -0.6471 C.2     
  11 C11            3.1965     0.9519     0.2113 C.ar    
  12 C12            4.3206     0.2067     0.5792 C.ar    
  13 C13            5.2867     0.7713     1.3800 C.ar    
  14 C14            5.1456     2.0832     1.8239 C.ar    
  15 C15            4.0270     2.8278     1.4597 C.ar    
  16 C16            3.0605     2.2709     0.6539 C.ar    
  17 O17            2.4736    -0.4314    -1.5243 O.2     
  18 S18            6.7155     4.1575     2.2835 S.o2    
  19 O19            5.5859     4.9967     2.0866 O.2     
  20 O20            7.7245     4.4258     3.2475 O.2     
  21 N21            6.1235     2.6509     2.6331 N.am    
  22 N22            9.2796     2.7196     1.6654 N.ar    
  23 C23           10.4006     2.0482     1.5612 C.ar    
  24 C24           11.0791     1.9375     0.3493 C.ar    
  25 C25           10.5772     2.5376    -0.7702 C.ar    
  26 C26            9.3729     3.2574    -0.6547 C.ar    
  27 C27            8.7967     3.9010    -1.7613 C.ar    
  28 C28            7.6308     4.5878    -1.6086 C.ar    
  29 C29            7.0009     4.6598    -0.3680 C.ar    
  30 C30            7.5320     4.0485     0.7259 C.ar    
  31 C31            8.7346     3.3304     0.6085 C.ar    
  32 C32           -5.2087     0.5117     0.0791 C.ar    
  33 C33           -6.1985    -0.3772    -0.3182 C.ar    
  34 C34           -7.5285    -0.0628    -0.1182 C.ar    
  35 C35           -7.8750     1.1381     0.4776 C.ar    
  36 C36           -6.8893     2.0260     0.8746 C.ar    
  37 C37           -5.5580     1.7128     0.6815 C.ar    
  38 F38           -9.1765     1.4442     0.6716 F       
  39 H39           -0.8106    -1.5133    -0.1426 H       
  40 H40           -2.0969    -0.8089    -1.1566 H       
  41 H41            0.2776    -0.5438    -2.0777 H       
  42 H42           -0.6376     0.9761    -1.9003 H       
  43 H43            1.3235     1.7543     1.2799 H       
  44 H44            0.0371     2.4587     0.2658 H       
  45 H45           -1.0510     1.4892     2.2010 H       
  46 H46           -0.1358    -0.0307     2.0235 H       
  47 H47           -3.5926    -0.3168    -0.9023 H       
  48 H48            4.4305    -0.8113     0.2354 H       
  49 H49            6.1552     0.1960     1.6649 H       
  50 H50            3.9200     3.8451     1.8062 H       
  51 H51            2.1955     2.8507     0.3675 H       
  52 H52            6.4590     2.1645     3.4023 H       
  53 H53           10.8094     1.5684     2.4382 H       
  54 H54           12.0013     1.3780     0.2953 H       
  55 H55           11.0902     2.4624    -1.7176 H       
  56 H56            9.2756     3.8521    -2.7281 H       
  57 H57            7.1883     5.0826    -2.4604 H       
  58 H58            6.0772     5.2112    -0.2724 H       
  59 H59           -5.9287    -1.3137    -0.7836 H       
  60 H60           -8.2987    -0.7540    -0.4271 H       
  61 H61           -7.1616     2.9622     1.3391 H       
  62 H62           -4.7894     2.4035     0.9953 H       
@<TRIPOS>BOND
   1    1    2 1
   2    1    6 1
   3    1    7 am
   4    2    3 1
   5    2   39 1
   6    2   40 1
   7    3    4 1
   8    3   41 1
   9    3   42 1
  10    4    5 1
  11    4   10 am
  12    5    6 1
  13    5   43 1
  14    5   44 1
  15    6   45 1
  16    6   46 1
  17    7    8 2
  18    7    9 am
  19    9   32 1
  20    9   47 1
  21   10   11 1
  22   10   17 2
  23   11   12 ar
  24   11   16 ar
  25   12   13 ar
  26   12   48 1
  27   13   14 ar
  28   13   49 1
  29   14   15 ar
  30   14   21 1
  31   15   16 ar
  32   15   50 1
  33   16   51 1
  34   18   19 2
  35   18   20 2
  36   18   21 am
  37   18   30 1
  38   21   52 1
  39   22   23 ar
  40   22   31 ar
  41   23   24 ar
  42   23   53 1
  43   24   25 ar
  44   24   54 1
  45   25   26 ar
  46   25   55 1
  47   26   27 ar
  48   26   31 ar
  49   27   28 ar
  50   27   56 1
  51   28   29 ar
  52   28   57 1
  53   29   30 ar
  54   29   58 1
  55   30   31 ar
  56   32   33 ar
  57   32   37 ar
  58   33   34 ar
  59   33   59 1
  60   34   35 ar
  61   34   60 1
  62   35   36 ar
  63   35   38 1
  64   36   37 ar
  65   36   61 1
  66   37   62 1

#	End of record

