#	Name: ASD09740170
#	Creating user name:	WinNT
#	Creation time:	15. 06. 2019 21:22

#	Modifying user name:	WinNT
#	Modification time:	15. 06. 2019 21:22

#	Program:	/corina/corina34_cracker 3.40 0067  02.08.2006

@<TRIPOS>MOLECULE
ASD09740170
  40   43    0    0    0
SMALL
NO_CHARGES


@<TRIPOS>ATOM
   1 C1            -0.0184     1.5028     0.0103 C.3     
   2 O2             0.0917    -6.2058     0.6681 O.3     
   3 N3             0.0821    -5.0447     1.0186 N.2     
   4 C4             0.0741    -6.2812    -0.6664 C.2     
   5 N5             0.0524    -5.0534    -1.1218 N.2     
   6 C6             0.0578    -4.2598    -0.0270 C.2     
   7 C7             0.0387    -2.7757    -0.0144 C.ar    
   8 C8             0.0783    -7.5421    -1.4917 C.3     
   9 C9             0.0124    -2.0672    -1.2138 C.ar    
  10 C10            0.0408    -2.0876     1.1964 C.ar    
  11 C11            0.0230    -0.7026     1.2015 C.ar    
  12 C12            0.0021    -0.0041     0.0020 C.ar    
  13 C13           -0.0058    -0.6867    -1.1997 C.ar    
  14 O14            0.0249    -0.0275     2.3811 O.3     
  15 C15            0.0460    -0.8101     3.5765 C.3     
  16 N16            1.0444    -8.5013    -0.9497 N.pl3   
  17 C17            0.3905    -9.6702    -0.5568 C.ar    
  18 C18           -0.9740    -9.5951    -0.7877 C.ar    
  19 C19           -1.2851    -8.2464    -1.3968 C.3     
  20 C20            0.9195   -10.8336     0.0067 C.ar    
  21 C21            0.0927   -11.8889     0.3267 C.ar    
  22 C22           -1.2676   -11.8037     0.0923 C.ar    
  23 C23           -1.7989   -10.6554    -0.4643 C.ar    
  24 H24            1.0042     1.8801     0.0026 H       
  25 H25           -0.5455     1.8639    -0.8728 H       
  26 H26           -0.5286     1.8543     0.9071 H       
  27 H27            0.3155    -7.3126    -2.5306 H       
  28 H28            0.0066    -2.5978    -2.1545 H       
  29 H29            0.0564    -2.6324     2.1288 H       
  30 H30           -0.0220    -0.1388    -2.1302 H       
  31 H31           -0.8356    -1.4505     3.6071 H       
  32 H32            0.9442    -1.4275     3.5909 H       
  33 H33            0.0453    -0.1494     4.4434 H       
  34 H34            1.9990    -8.3465    -0.8748 H       
  35 H35           -1.9595    -7.6839    -0.7512 H       
  36 H36           -1.7201    -8.3682    -2.3887 H       
  37 H37            1.9810   -10.9068     0.1920 H       
  38 H38            0.5086   -12.7856     0.7619 H       
  39 H39           -1.9132   -12.6321     0.3438 H       
  40 H40           -2.8609   -10.5872    -0.6481 H       
@<TRIPOS>BOND
   1    1   12 1
   2    1   24 1
   3    1   25 1
   4    1   26 1
   5    2    3 1
   6    2    4 1
   7    3    6 2
   8    4    5 2
   9    4    8 1
  10    5    6 1
  11    6    7 1
  12    7    9 ar
  13    7   10 ar
  14    8   16 1
  15    8   19 1
  16    8   27 1
  17    9   13 ar
  18    9   28 1
  19   10   11 ar
  20   10   29 1
  21   11   12 ar
  22   11   14 1
  23   12   13 ar
  24   13   30 1
  25   14   15 1
  26   15   31 1
  27   15   32 1
  28   15   33 1
  29   16   17 1
  30   16   34 1
  31   17   18 ar
  32   17   20 ar
  33   18   19 1
  34   18   23 ar
  35   19   35 1
  36   19   36 1
  37   20   21 ar
  38   20   37 1
  39   21   22 ar
  40   21   38 1
  41   22   23 ar
  42   22   39 1
  43   23   40 1

#	End of record

