#	Name: ASD01238008
#	Creating user name:	WinNT
#	Creation time:	15. 06. 2019 19:15

#	Modifying user name:	WinNT
#	Modification time:	15. 06. 2019 19:15

#	Program:	/corina/corina34_cracker 3.40 0067  02.08.2006

@<TRIPOS>MOLECULE
ASD01238008
  44   47    0    0    0
SMALL
NO_CHARGES


@<TRIPOS>ATOM
   1 N1            -0.1145     1.2084     0.0060 N.am    
   2 C2            -0.2465    -0.1283    -0.0461 C.2     
   3 C3             1.1158    -0.7861    -0.0413 C.3     
   4 C4             2.0734     0.3284     0.4401 C.3     
   5 C5             1.2984     1.6037     0.0409 C.3     
   6 O6            -1.3038    -0.7207    -0.0901 O.2     
   7 C7            -1.2369     2.1499     0.0198 C.3     
   8 C8            -1.6480     2.4205     1.4442 C.ar    
   9 C9            -1.0664     3.4615     2.1443 C.ar    
  10 C10           -1.4412     3.7120     3.4499 C.ar    
  11 C11           -2.4029     2.9173     4.0592 C.ar    
  12 C12           -2.9851     1.8729     3.3536 C.ar    
  13 C13           -2.6103     1.6309     2.0464 C.ar    
  14 N14           -3.0121     2.2030     6.3779 N.2     
  15 N15           -2.7851     3.1688     5.3842 N.pl3   
  16 C16           -2.9991     4.3759     5.9307 C.2     
  17 C17           -3.3497     4.1892     7.2321 C.2     
  18 C18           -3.3505     2.8218     7.4845 C.2     
  19 C19           -3.6647     5.3272     8.1705 C.3     
  20 C20           -2.8974     5.7421     5.2985 C.3     
  21 C21           -3.6175     6.7377     6.2200 C.3     
  22 O22           -3.1896     6.5399     7.5699 O.3     
  23 C23           -3.6830     2.1649     8.7994 C.3     
  24 F24           -3.4664     0.7864     8.6999 F       
  25 F25           -2.8664     2.6940     9.8046 F       
  26 F26           -5.0249     2.4046     9.1143 F       
  27 H27            1.1307    -1.6275     0.6515 H       
  28 H28            1.3851    -1.1130    -1.0457 H       
  29 H29            2.2163     0.2806     1.5196 H       
  30 H30            3.0292     0.2736    -0.0812 H       
  31 H31            1.6184     1.9472    -0.9428 H       
  32 H32            1.4528     2.3868     0.7833 H       
  33 H33           -0.9339     3.0834    -0.4545 H       
  34 H34           -2.0775     1.7212    -0.5258 H       
  35 H35           -0.3181     4.0790     1.6700 H       
  36 H36           -0.9863     4.5249     3.9964 H       
  37 H37           -3.7335     1.2531     3.8249 H       
  38 H38           -3.0662     0.8216     1.4955 H       
  39 H39           -4.7418     5.3899     8.3253 H       
  40 H40           -3.1631     5.1675     9.1250 H       
  41 H41           -1.8496     6.0247     5.1961 H       
  42 H42           -3.3757     5.7326     4.3191 H       
  43 H43           -3.3809     7.7555     5.9098 H       
  44 H44           -4.6939     6.5798     6.1539 H       
@<TRIPOS>BOND
   1    1    2 am
   2    1    5 1
   3    1    7 1
   4    2    3 1
   5    2    6 2
   6    3    4 1
   7    3   27 1
   8    3   28 1
   9    4    5 1
  10    4   29 1
  11    4   30 1
  12    5   31 1
  13    5   32 1
  14    7    8 1
  15    7   33 1
  16    7   34 1
  17    8    9 ar
  18    8   13 ar
  19    9   10 ar
  20    9   35 1
  21   10   11 ar
  22   10   36 1
  23   11   12 ar
  24   11   15 1
  25   12   13 ar
  26   12   37 1
  27   13   38 1
  28   14   15 1
  29   14   18 2
  30   15   16 1
  31   16   17 2
  32   16   20 1
  33   17   18 1
  34   17   19 1
  35   18   23 1
  36   19   22 1
  37   19   39 1
  38   19   40 1
  39   20   21 1
  40   20   41 1
  41   20   42 1
  42   21   22 1
  43   21   43 1
  44   21   44 1
  45   23   24 1
  46   23   25 1
  47   23   26 1

#	End of record

