#	Name: ASD01884284
#	Creating user name:	WinNT
#	Creation time:	15. 06. 2019 19:47

#	Modifying user name:	WinNT
#	Modification time:	15. 06. 2019 19:47

#	Program:	/corina/corina34_cracker 3.40 0067  02.08.2006

@<TRIPOS>MOLECULE
ASD01884284
  36   39    0    0    0
SMALL
NO_CHARGES


@<TRIPOS>ATOM
   1 C1            -0.1024     1.5592    -0.0888 C.ar    
   2 C2            -0.3134     0.2093     0.1599 C.ar    
   3 C3            -1.5733    -0.3340     0.0699 C.ar    
   4 C4            -2.6763     0.4616    -0.2749 C.ar    
   5 C5            -2.4457     1.8158    -0.5208 C.ar    
   6 C6            -1.1798     2.3640    -0.4252 C.ar    
   7 N7            -3.9990     0.0723    -0.4068 N.am    
   8 C8            -4.9064     0.9931    -0.7457 C.2     
   9 S9            -4.0199     2.5166    -0.9212 S.3     
  10 O10           -6.1009     0.8196    -0.9027 O.2     
  11 C11           -4.3949    -1.3198    -0.1801 C.3     
  12 C12           -4.7576    -1.5134     1.2936 C.3     
  13 C13           -5.3117    -2.8769     1.7116 C.3     
  14 C14           -3.8922    -2.4720     2.1141 C.3     
  15 F15           -2.8299    -3.1044     1.4593 F       
  16 F16           -3.6684    -2.1512     3.4573 F       
  17 O17            1.1472     2.0871     0.0023 O.3     
  18 C18            1.4408     2.8427     1.0877 C.ar    
  19 N19            0.5597     2.9570     2.0665 N.ar    
  20 C20            2.6812     3.4950     1.1688 C.ar    
  21 C21            2.9625     4.2701     2.2996 C.ar    
  22 C22            2.0009     4.3591     3.2911 C.ar    
  23 C23            0.8043     3.6823     3.1410 C.ar    
  24 C24            3.6414     3.3691     0.1140 C.1     
  25 N25            4.4032     3.2692    -0.7228 N.1     
  26 H26            0.5219    -0.4212     0.4268 H       
  27 H27           -1.7155    -1.3864     0.2666 H       
  28 H28           -1.0293     3.4155    -0.6206 H       
  29 H29           -5.2586    -1.5576    -0.8011 H       
  30 H30           -3.5675    -1.9799    -0.4404 H       
  31 H31           -5.1528    -0.6328     1.8001 H       
  32 H32           -6.0711    -2.8934     2.4933 H       
  33 H33           -5.4179    -3.6360     0.9367 H       
  34 H34            3.9065     4.7858     2.3962 H       
  35 H35            2.1855     4.9485     4.1771 H       
  36 H36            0.0547     3.7524     3.9153 H       
@<TRIPOS>BOND
   1    1    2 ar
   2    1   17 1
   3    1    6 ar
   4    2    3 ar
   5    2   26 1
   6    3    4 ar
   7    3   27 1
   8    4    5 ar
   9    4    7 1
  10    5    6 ar
  11    5    9 1
  12    6   28 1
  13    7    8 am
  14    7   11 1
  15    8    9 1
  16    8   10 2
  17   11   12 1
  18   11   29 1
  19   11   30 1
  20   12   13 1
  21   12   14 1
  22   12   31 1
  23   13   14 1
  24   13   32 1
  25   13   33 1
  26   14   15 1
  27   14   16 1
  28   17   18 1
  29   18   19 ar
  30   18   20 ar
  31   19   23 ar
  32   20   21 ar
  33   20   24 1
  34   21   22 ar
  35   21   34 1
  36   22   23 ar
  37   22   35 1
  38   23   36 1
  39   24   25 3

#	End of record

