#	Name: ASD01911940
#	Creating user name:	WinNT
#	Creation time:	15. 06. 2019 19:58

#	Modifying user name:	WinNT
#	Modification time:	15. 06. 2019 19:58

#	Program:	/corina/corina34_cracker 3.40 0067  02.08.2006

@<TRIPOS>MOLECULE
ASD01911940
  35   37    0    0    0
SMALL
NO_CHARGES


@<TRIPOS>ATOM
   1 C1            -1.0504    -0.4985    -2.0818 C.ar    
   2 C2            -1.0545     0.0499    -0.8033 C.ar    
   3 C3            -1.0140     1.4350    -0.6800 C.ar    
   4 N4            -0.9735     2.1760    -1.7750 N.ar    
   5 C5            -0.9710     1.6187    -2.9692 C.ar    
   6 N6            -1.0085     0.3108    -3.1273 N.ar    
   7 O7            -1.0973    -0.7470     0.2969 O.3     
   8 C8            -1.1386    -2.0922     0.1090 C.ar    
   9 C9             0.0156    -2.7787    -0.2322 C.ar    
  10 C10           -0.0272    -4.1602    -0.4251 C.ar    
  11 C11           -1.2336    -4.8452    -0.2732 C.ar    
  12 C12           -2.3840    -4.1509     0.0684 C.ar    
  13 C13           -2.3350    -2.7766     0.2648 C.ar    
  14 N14           -3.5939    -4.8356     0.2205 N.am    
  15 C15           -4.7555    -4.2300    -0.0963 C.2     
  16 C16           -6.0430    -4.9152     0.1629 C.ar    
  17 O17           -4.7466    -3.1216    -0.5948 O.2     
  18 C18           -7.2390    -4.2842    -0.1667 C.ar    
  19 C19            1.1636    -4.8730    -0.7783 C.1     
  20 C20           -8.4381    -4.9401     0.0823 C.ar    
  21 C21           -8.3937    -6.2053     0.6528 C.ar    
  22 C22           -7.1660    -6.7707     0.9541 C.ar    
  23 N23           -6.0458    -6.1285     0.7028 N.ar    
  24 N24            2.1082    -5.4384    -1.0585 N.1     
  25 F25           -9.6196    -4.3605    -0.2231 F       
  26 H26           -1.0764    -1.5695    -2.2187 H       
  27 H27           -1.0162     1.8985     0.2955 H       
  28 H28           -0.9377     2.2519    -3.8435 H       
  29 H29            0.9473    -2.2451    -0.3492 H       
  30 H30           -1.2710    -5.9143    -0.4219 H       
  31 H31           -3.2327    -2.2382     0.5308 H       
  32 H32           -3.5972    -5.7465     0.5541 H       
  33 H33           -7.2350    -3.2989    -0.6091 H       
  34 H34           -9.3073    -6.7427     0.8599 H       
  35 H35           -7.1275    -7.7543     1.3983 H       
@<TRIPOS>BOND
   1    1    2 ar
   2    1    6 ar
   3    1   26 1
   4    2    3 ar
   5    2    7 1
   6    3    4 ar
   7    3   27 1
   8    4    5 ar
   9    5    6 ar
  10    5   28 1
  11    7    8 1
  12    8    9 ar
  13    8   13 ar
  14    9   10 ar
  15    9   29 1
  16   10   11 ar
  17   10   19 1
  18   11   12 ar
  19   11   30 1
  20   12   13 ar
  21   12   14 1
  22   13   31 1
  23   14   15 am
  24   14   32 1
  25   15   16 1
  26   15   17 2
  27   16   18 ar
  28   16   23 ar
  29   18   20 ar
  30   18   33 1
  31   19   24 3
  32   20   21 ar
  33   20   25 1
  34   21   22 ar
  35   21   34 1
  36   22   23 ar
  37   22   35 1

#	End of record

