#	Name: ASD01911980
#	Creating user name:	WinNT
#	Creation time:	15. 06. 2019 19:58

#	Modifying user name:	WinNT
#	Modification time:	15. 06. 2019 19:58

#	Program:	/corina/corina34_cracker 3.40 0067  02.08.2006

@<TRIPOS>MOLECULE
ASD01911980
  39   41    0    0    0
SMALL
NO_CHARGES


@<TRIPOS>ATOM
   1 C1             0.7741     1.1506    -0.1315 C.ar    
   2 C2             0.5660    -0.2266    -0.1282 C.ar    
   3 C3             1.6746    -1.0612    -0.2497 C.ar    
   4 N4             2.8758    -0.5195    -0.3629 N.ar    
   5 C5             3.0309     0.7893    -0.3618 C.ar    
   6 N6             2.0078     1.6126    -0.2490 N.ar    
   7 N7            -0.7212    -0.7572    -0.0058 N.pl3   
   8 C8            -0.9090    -2.1422    -0.0046 C.ar    
   9 C9            -1.3090    -4.1863    -1.2009 C.ar    
  10 C10           -1.2834    -4.8891    -0.0111 C.ar    
  11 C11           -1.0755    -4.2202     1.1884 C.ar    
  12 C12           -0.8881    -2.8450     1.1915 C.ar    
  13 N13           -1.0502    -4.9327     2.3920 N.am    
  14 C14           -1.5535    -4.3796     3.5133 C.2     
  15 C15           -1.6215    -5.1696     4.7608 C.ar    
  16 O16           -1.9514    -3.2311     3.4987 O.2     
  17 C17           -2.1420    -4.5997     5.9237 C.ar    
  18 C18           -1.1229    -2.8169    -1.2020 C.ar    
  19 Cl19          -1.1564    -1.9382    -2.6988 Cl      
  20 C20           -1.8736     0.1384     0.1214 C.3     
  21 C21           -2.2029    -5.3421     7.0851 C.ar    
  22 C22           -1.7489    -6.6487     7.0992 C.ar    
  23 C23           -1.2308    -7.2204     5.9494 C.ar    
  24 C24           -1.1706    -6.4906     4.7794 C.ar    
  25 Br25          -0.6124    -9.0072     5.9800 Br      
  26 H26           -0.0599     1.8312    -0.0439 H       
  27 H27            1.5550    -2.1345    -0.2510 H       
  28 H28            4.0256     1.1993    -0.4557 H       
  29 H29           -1.4705    -4.7089    -2.1321 H       
  30 H30           -1.4292    -5.9592    -0.0136 H       
  31 H31           -0.7260    -2.3231     2.1230 H       
  32 H32           -0.6706    -5.8249     2.4195 H       
  33 H33           -2.4962    -3.5795     5.9145 H       
  34 H34           -2.2621     0.3736    -0.8696 H       
  35 H35           -2.6504    -0.3503     0.7095 H       
  36 H36           -1.5658     1.0582     0.6187 H       
  37 H37           -2.6055    -4.9020     7.9854 H       
  38 H38           -1.7985    -7.2252     8.0111 H       
  39 H39           -0.7663    -6.9372     3.8830 H       
@<TRIPOS>BOND
   1    1    2 ar
   2    1    6 ar
   3    1   26 1
   4    2    3 ar
   5    2    7 1
   6    3    4 ar
   7    3   27 1
   8    4    5 ar
   9    5    6 ar
  10    5   28 1
  11    7    8 1
  12    7   20 1
  13    8   18 ar
  14    8   12 ar
  15    9   10 ar
  16    9   18 ar
  17    9   29 1
  18   10   11 ar
  19   10   30 1
  20   11   12 ar
  21   11   13 1
  22   12   31 1
  23   13   14 am
  24   13   32 1
  25   14   15 1
  26   14   16 2
  27   15   17 ar
  28   15   24 ar
  29   17   21 ar
  30   17   33 1
  31   18   19 1
  32   20   34 1
  33   20   35 1
  34   20   36 1
  35   21   22 ar
  36   21   37 1
  37   22   23 ar
  38   22   38 1
  39   23   24 ar
  40   23   25 1
  41   24   39 1

#	End of record

