#	Name: ASD03430393
#	Creating user name:	WinNT
#	Creation time:	15. 06. 2019 20:41

#	Modifying user name:	WinNT
#	Modification time:	15. 06. 2019 20:41

#	Program:	/corina/corina34_cracker 3.40 0067  02.08.2006

@<TRIPOS>MOLECULE
ASD03430393
  56   61    0    0    0
SMALL
NO_CHARGES


@<TRIPOS>ATOM
   1 N1            -0.0157     1.4931     0.4900 N.am    
   2 C2             0.0410     0.2264     0.9345 C.2     
   3 C3             1.4805    -0.0489     1.3137 C.3     
   4 C4             2.1947     1.2484     1.0114 C.ar    
   5 C5             3.5074     1.6451     1.1357 C.ar    
   6 C6             3.8791     2.9269     0.7710 C.ar    
   7 C7             2.9274     3.8067     0.2816 C.ar    
   8 C8             1.6099     3.4103     0.1567 C.ar    
   9 C9             1.2303     2.1205     0.5222 C.ar    
  10 O10           -0.8869    -0.5504     1.0168 O.2     
  11 O11            1.8013    -1.0812     6.8463 O.3     
  12 C12            0.8793    -0.1244     7.3951 C.3     
  13 C13            0.8564     0.9863     6.3185 C.3     
  14 C14            1.2477     0.2199     5.0697 C.ar    
  15 C15            1.7883    -0.9901     5.4880 C.ar    
  16 C16            2.2224    -1.9008     4.5295 C.ar    
  17 C17            2.1210    -1.5958     3.1827 C.ar    
  18 C18            1.5861    -0.3806     2.7800 C.ar    
  19 C19            1.1506     0.5252     3.7300 C.ar    
  20 O20            2.5476    -2.4895     2.2521 O.3     
  21 F21            3.2895     5.0585    -0.0749 F       
  22 C22           -1.2434     2.1394     0.0198 C.3     
  23 C23           -0.9993     2.7577    -1.3327 C.ar    
  24 C24           -1.5153     4.0064    -1.6251 C.ar    
  25 C25           -1.2915     4.5736    -2.8657 C.ar    
  26 C26           -0.5512     3.8923    -3.8137 C.ar    
  27 C27           -0.0344     2.6440    -3.5210 C.ar    
  28 C28           -0.2546     2.0787    -2.2789 C.ar    
  29 C29           -2.3418     1.1132    -0.0879 C.ar    
  30 C30           -3.4804     1.2356     0.6863 C.ar    
  31 C31           -4.4878     0.2943     0.5876 C.ar    
  32 C32           -4.3569    -0.7692    -0.2857 C.ar    
  33 C33           -3.2187    -0.8912    -1.0606 C.ar    
  34 C34           -2.2131     0.0525    -0.9650 C.ar    
  35 H35            1.8869    -0.8588     0.7078 H       
  36 H36            4.2462     0.9563     1.5180 H       
  37 H37            4.9079     3.2407     0.8678 H       
  38 H38            0.8729     4.1013    -0.2252 H       
  39 H39           -0.1098    -0.5663     7.5151 H       
  40 H40            1.2469     0.2654     8.3443 H       
  41 H41           -0.1425     1.4109     6.2181 H       
  42 H42            1.5873     1.7628     6.5442 H       
  43 H43            2.6393    -2.8484     4.8370 H       
  44 H44            0.7335     1.4724     3.4213 H       
  45 H45            1.8656    -3.1104     1.9614 H       
  46 H46           -1.5390     2.9153     0.7260 H       
  47 H47           -2.0937     4.5387    -0.8844 H       
  48 H48           -1.6952     5.5488    -3.0944 H       
  49 H49           -0.3769     4.3351    -4.7832 H       
  50 H50            0.5437     2.1116    -4.2618 H       
  51 H51            0.1522     1.1051    -2.0489 H       
  52 H52           -3.5827     2.0665     1.3686 H       
  53 H53           -5.3771     0.3895     1.1930 H       
  54 H54           -5.1437    -1.5051    -0.3623 H       
  55 H55           -3.1162    -1.7223    -1.7427 H       
  56 H56           -1.3254    -0.0407    -1.5731 H       
@<TRIPOS>BOND
   1    1    2 am
   2    1    9 1
   3    1   22 1
   4    2    3 1
   5    2   10 2
   6    3    4 1
   7    3   18 1
   8    3   35 1
   9    4    5 ar
  10    4    9 ar
  11    5    6 ar
  12    5   36 1
  13    6    7 ar
  14    6   37 1
  15    7    8 ar
  16    7   21 1
  17    8    9 ar
  18    8   38 1
  19   11   12 1
  20   11   15 1
  21   12   13 1
  22   12   39 1
  23   12   40 1
  24   13   14 1
  25   13   41 1
  26   13   42 1
  27   14   15 ar
  28   14   19 ar
  29   15   16 ar
  30   16   17 ar
  31   16   43 1
  32   17   18 ar
  33   17   20 1
  34   18   19 ar
  35   19   44 1
  36   20   45 1
  37   22   23 1
  38   22   29 1
  39   22   46 1
  40   23   24 ar
  41   23   28 ar
  42   24   25 ar
  43   24   47 1
  44   25   26 ar
  45   25   48 1
  46   26   27 ar
  47   26   49 1
  48   27   28 ar
  49   27   50 1
  50   28   51 1
  51   29   30 ar
  52   29   34 ar
  53   30   31 ar
  54   30   52 1
  55   31   32 ar
  56   31   53 1
  57   32   33 ar
  58   32   54 1
  59   33   34 ar
  60   33   55 1
  61   34   56 1

#	End of record

