#	Name: ASD01911435
#	Creating user name:	WinNT
#	Creation time:	15. 06. 2019 19:57

#	Modifying user name:	WinNT
#	Modification time:	15. 06. 2019 19:57

#	Program:	/corina/corina34_cracker 3.40 0067  02.08.2006

@<TRIPOS>MOLECULE
ASD01911435
  37   39    0    0    0
SMALL
NO_CHARGES


@<TRIPOS>ATOM
   1 N1            -0.0068     1.4098    -0.0030 N.2     
   2 N2            -0.0073     0.0099    -0.0453 N.pl3   
   3 C3             1.2426     1.8242     0.0385 C.2     
   4 C4             2.0821     0.6973     0.0240 C.2     
   5 C5             1.2897    -0.4116    -0.0279 C.2     
   6 C6             1.7531    -1.8168    -0.0590 C.ar    
   7 C7             1.6876     3.2386     0.0908 C.ar    
   8 C8            -1.1921    -0.8502    -0.0983 C.3     
   9 C9            -1.6296    -1.0148    -1.5310 C.2     
  10 O10           -2.7022    -1.7670    -1.8230 O.3     
  11 O11           -1.0148    -0.4697    -2.4168 O.2     
  12 C12            0.7412     4.2606     0.0994 C.ar    
  13 N13            2.9836     3.5194     0.1345 N.ar    
  14 C14            3.4199     4.7616     0.1821 C.ar    
  15 C15            2.5359     5.8247     0.1887 C.ar    
  16 C16            1.1715     5.5754     0.1488 C.ar    
  17 C17            0.9275    -2.8152    -0.5762 C.ar    
  18 C18            1.3654    -4.1234    -0.6030 C.ar    
  19 C19            2.6202    -4.4458    -0.1179 C.ar    
  20 C20            3.4437    -3.4602     0.3963 C.ar    
  21 C21            3.0195    -2.1475     0.4233 C.ar    
  22 C22            3.0491     7.2406     0.2443 C.3     
  23 H23            3.1617     0.7075     0.0494 H       
  24 H24           -0.9515    -1.8264     0.3226 H       
  25 H25           -1.9977    -0.3947     0.4775 H       
  26 H26           -2.9444    -1.8429    -2.7561 H       
  27 H27           -0.3135     4.0305     0.0675 H       
  28 H28            4.4824     4.9521     0.2168 H       
  29 H29            0.4612     6.3890     0.1530 H       
  30 H30           -0.0526    -2.5648    -0.9546 H       
  31 H31            0.7271    -4.8972    -1.0031 H       
  32 H32            2.9582    -5.4713    -0.1403 H       
  33 H33            4.4221    -3.7183     0.7739 H       
  34 H34            3.6634    -1.3789     0.8246 H       
  35 H35            3.2013     7.6119    -0.7691 H       
  36 H36            2.3222     7.8707     0.7568 H       
  37 H37            3.9950     7.2631     0.7854 H       
@<TRIPOS>BOND
   1    1    2 1
   2    1    3 2
   3    2    8 1
   4    2    5 1
   5    3    4 1
   6    3    7 1
   7    4    5 2
   8    4   23 1
   9    5    6 1
  10    6   17 ar
  11    6   21 ar
  12    7   12 ar
  13    7   13 ar
  14    8    9 1
  15    8   24 1
  16    8   25 1
  17    9   10 1
  18    9   11 2
  19   10   26 1
  20   12   16 ar
  21   12   27 1
  22   13   14 ar
  23   14   15 ar
  24   14   28 1
  25   15   16 ar
  26   15   22 1
  27   16   29 1
  28   17   18 ar
  29   17   30 1
  30   18   19 ar
  31   18   31 1
  32   19   20 ar
  33   19   32 1
  34   20   21 ar
  35   20   33 1
  36   21   34 1
  37   22   35 1
  38   22   36 1
  39   22   37 1

#	End of record

