#	Name: ASD00170482
#	Creating user name:	WinNT
#	Creation time:	15. 06. 2019 18:32

#	Modifying user name:	WinNT
#	Modification time:	15. 06. 2019 18:32

#	Program:	/corina/corina34_cracker 3.40 0067  02.08.2006

@<TRIPOS>MOLECULE
ASD00170482
  28   30    0    0    0
SMALL
NO_CHARGES


@<TRIPOS>ATOM
   1 C1            -0.0299     1.3779     0.0169 C.ar    
   2 C2            -0.0019    -0.0120     0.0212 C.ar    
   3 C3            -1.1911    -0.7317     0.0596 C.ar    
   4 C4            -2.3945    -0.0639     0.0939 C.ar    
   5 C5            -2.4294     1.3262     0.0904 C.ar    
   6 C6            -1.2357     2.0478     0.0566 C.ar    
   7 C7            -3.8258    -0.5346     0.1394 C.3     
   8 C8            -4.6677     0.7225     0.1610 C.2     
   9 C9            -3.8508     1.7923     0.1324 C.2     
  10 S10           -6.3421     1.2721     0.2114 S.3     
  11 C11           -5.7955     2.9439     0.1894 C.2     
  12 N12           -4.5063     2.9740     0.1486 N.2     
  13 N13           -6.6214     4.0560     0.2118 N.pl3   
  14 N14            1.2236    -0.6871    -0.0138 N.am    
  15 C15            1.2907    -1.9364    -0.5149 C.2     
  16 O16            0.2783    -2.5032    -0.8684 O.2     
  17 C17            2.6236    -2.6291    -0.6359 C.3     
  18 Br18           1.5892     2.3533    -0.0354 Br      
  19 H19           -1.1707    -1.8115     0.0622 H       
  20 H20           -1.2556     3.1277     0.0540 H       
  21 H21           -4.0558    -1.1269    -0.7463 H       
  22 H22           -4.0010    -1.1209     1.0414 H       
  23 H23           -7.5845     3.9444     0.2422 H       
  24 H24           -6.2366     4.9463     0.1972 H       
  25 H25            2.0247    -0.2558     0.3226 H       
  26 H26            3.4106    -1.9689    -0.2716 H       
  27 H27            2.6130    -3.5436    -0.0429 H       
  28 H28            2.8112    -2.8760    -1.6809 H       
@<TRIPOS>BOND
   1    1    2 ar
   2    1   18 1
   3    1    6 ar
   4    2    3 ar
   5    2   14 1
   6    3    4 ar
   7    3   19 1
   8    4    5 ar
   9    4    7 1
  10    5    6 ar
  11    5    9 1
  12    6   20 1
  13    7    8 1
  14    7   21 1
  15    7   22 1
  16    8    9 2
  17    8   10 1
  18    9   12 1
  19   10   11 1
  20   11   12 2
  21   11   13 1
  22   13   23 1
  23   13   24 1
  24   14   15 am
  25   14   25 1
  26   15   16 2
  27   15   17 1
  28   17   26 1
  29   17   27 1
  30   17   28 1

#	End of record

