#	Name: ASD01811645
#	Creating user name:	WinNT
#	Creation time:	15. 06. 2019 19:27

#	Modifying user name:	WinNT
#	Modification time:	15. 06. 2019 19:27

#	Program:	/corina/corina34_cracker 3.40 0067  02.08.2006

@<TRIPOS>MOLECULE
ASD01811645
  67   70    0    0    0
SMALL
NO_CHARGES


@<TRIPOS>ATOM
   1 C1            -0.0188     1.5371     0.0105 C.3     
   2 C2             0.0021    -0.0041     0.0020 C.3     
   3 C3             0.7540    -0.5512    -1.2068 C.3     
   4 C4             2.1687     0.0442    -1.3223 C.3     
   5 C5             2.0106     1.5463    -1.3762 C.3     
   6 C6             1.4279     1.9838    -0.0009 C.3     
   7 N7             3.1923     2.3899    -1.4390 N.am    
   8 C8             2.8748     3.5257    -0.7601 C.2     
   9 N9             1.7327     3.4049    -0.0306 N.am    
  10 C10            4.4640     2.0809    -2.0974 C.3     
  11 C11            4.7473     3.1266    -3.1794 C.3     
  12 C12            6.1051     2.8338    -3.8218 C.3     
  13 N13            7.1528     2.8710    -2.7935 N.3     
  14 C14            6.9276     1.8438    -1.7686 C.3     
  15 C15            5.5944     2.1070    -1.0649 C.3     
  16 C16            8.4858     2.7315    -3.3948 C.3     
  17 C17            9.5486     2.7748    -2.2944 C.3     
  18 C18           10.9388     2.6638    -2.9281 C.3     
  19 N19           10.9831     1.4552    -3.7625 N.am    
  20 C20            9.9519     1.2697    -4.7925 C.3     
  21 C21            8.5727     1.3964    -4.1379 C.3     
  22 C22            8.7238     3.8786    -4.3788 C.3     
  23 C23           11.9514     0.5345    -3.5866 C.2     
  24 O24           11.9799    -0.5684    -4.3583 O.3     
  25 O25           12.7988     0.6997    -2.7315 O.2     
  26 C26           13.0514    -1.5171    -4.1131 C.3     
  27 C27           12.5725    -2.9282    -4.4600 C.3     
  28 C28           14.2580    -1.1598    -4.9832 C.3     
  29 O29            3.5421     4.5413    -0.8005 O.2     
  30 H30           -0.5321     1.9090    -0.8763 H       
  31 H31           -0.5150     1.8994     0.9108 H       
  32 H32            0.4865    -0.3580     0.9121 H       
  33 H33           -1.0232    -0.3734    -0.0201 H       
  34 H34            0.8316    -1.6346    -1.1154 H       
  35 H35            0.1938    -0.3124    -2.1107 H       
  36 H36            2.7627    -0.2365    -0.4526 H       
  37 H37            2.6493    -0.3123    -2.2333 H       
  38 H38            1.3209     1.8166    -2.1758 H       
  39 H39            1.9735     1.4953     0.8065 H       
  40 H40            1.2258     4.1203     0.3844 H       
  41 H41            4.4077     1.0920    -2.5524 H       
  42 H42            3.9679     3.0835    -3.9402 H       
  43 H43            4.7638     4.1197    -2.7303 H       
  44 H44            6.0835     1.8462    -4.2826 H       
  45 H45            6.3164     3.5849    -4.5829 H       
  46 H46            6.9021     0.8608    -2.2390 H       
  47 H47            7.7362     1.8759    -1.0384 H       
  48 H48            5.6241     3.0841    -0.5826 H       
  49 H49            5.4201     1.3355    -0.3149 H       
  50 H50            9.4708     3.7162    -1.7505 H       
  51 H51            9.3946     1.9431    -1.6070 H       
  52 H52           11.1300     3.5414    -3.5457 H       
  53 H53           11.6932     2.5946    -2.1444 H       
  54 H54           10.0626     2.0336    -5.5621 H       
  55 H55           10.0551     0.2807    -5.2389 H       
  56 H56            8.4279     0.5776    -3.4331 H       
  57 H57            7.8004     1.3567    -4.9060 H       
  58 H58            8.6614     4.8297    -3.8500 H       
  59 H59            9.7129     3.7752    -4.8251 H       
  60 H60            7.9667     3.8482    -5.1623 H       
  61 H61           13.3372    -1.4786    -3.0619 H       
  62 H62           12.2866    -2.9668    -5.5111 H       
  63 H63           13.3768    -3.6404    -4.2759 H       
  64 H64           11.7128    -3.1828    -3.8401 H       
  65 H65           14.5992    -0.1545    -4.7361 H       
  66 H66           15.0624    -1.8720    -4.7991 H       
  67 H67           13.9721    -1.1983    -6.0344 H       
@<TRIPOS>BOND
   1    1    2 1
   2    1    6 1
   3    1   30 1
   4    1   31 1
   5    2    3 1
   6    2   32 1
   7    2   33 1
   8    3    4 1
   9    3   34 1
  10    3   35 1
  11    4    5 1
  12    4   36 1
  13    4   37 1
  14    5    7 1
  15    5    6 1
  16    5   38 1
  17    6    9 1
  18    6   39 1
  19    7    8 am
  20    7   10 1
  21    8    9 am
  22    8   29 2
  23    9   40 1
  24   10   11 1
  25   10   15 1
  26   10   41 1
  27   11   12 1
  28   11   42 1
  29   11   43 1
  30   12   13 1
  31   12   44 1
  32   12   45 1
  33   13   14 1
  34   13   16 1
  35   14   15 1
  36   14   46 1
  37   14   47 1
  38   15   48 1
  39   15   49 1
  40   16   17 1
  41   16   21 1
  42   16   22 1
  43   17   18 1
  44   17   50 1
  45   17   51 1
  46   18   19 1
  47   18   52 1
  48   18   53 1
  49   19   20 1
  50   19   23 am
  51   20   21 1
  52   20   54 1
  53   20   55 1
  54   21   56 1
  55   21   57 1
  56   22   58 1
  57   22   59 1
  58   22   60 1
  59   23   24 1
  60   23   25 2
  61   24   26 1
  62   26   27 1
  63   26   28 1
  64   26   61 1
  65   27   62 1
  66   27   63 1
  67   27   64 1
  68   28   65 1
  69   28   66 1
  70   28   67 1

#	End of record

