#	Name: ASD01948264
#	Creating user name:	WinNT
#	Creation time:	15. 06. 2019 20:14

#	Modifying user name:	WinNT
#	Modification time:	15. 06. 2019 20:14

#	Program:	/corina/corina34_cracker 3.40 0067  02.08.2006

@<TRIPOS>MOLECULE
ASD01948264
  55   59    0    0    0
SMALL
NO_CHARGES


@<TRIPOS>ATOM
   1 C1             1.1474     0.8858    -1.7134 C.ar    
   2 C2             0.0410     0.9918    -0.8890 C.ar    
   3 C3             0.1140     1.7259     0.2808 C.ar    
   4 C4             1.2925     2.3565     0.6310 C.ar    
   5 C5             2.4052     2.2532    -0.1928 C.ar    
   6 C6             2.3296     1.5141    -1.3694 C.ar    
   7 C7             3.2059     4.6451    -1.4604 C.ar    
   8 C8             4.0735     3.9644    -0.6084 C.ar    
   9 N9             3.5991     2.8903     0.1591 N.pl3   
  10 C10            3.6619     5.7029    -2.2197 C.ar    
  11 C11            5.0020     6.0949    -2.1346 C.ar    
  12 C12            5.8756     5.4104    -1.2781 C.ar    
  13 C13            5.4071     4.3451    -0.5164 C.ar    
  14 N14            6.2780     3.6572     0.3429 N.am    
  15 I15           -1.7490     0.0386    -1.4145 I       
  16 F16            2.8160     6.3585    -3.0441 F       
  17 F17            3.4100     1.4104    -2.1739 F       
  18 F18            1.9128     4.2637    -1.5474 F       
  19 O19            7.0812     6.0090    -1.4102 O.3     
  20 C20            6.9567     7.0075    -2.2994 C.2     
  21 N21            5.7355     7.0711    -2.7366 N.2     
  22 S22            7.8860     4.0512     0.3811 S.o2    
  23 O23            7.8991     5.4430     0.6674 O.2     
  24 O24            8.4556     3.1123     1.2829 O.2     
  25 C25            8.4677     3.7437    -1.3094 C.3     
  26 C26            9.9426     4.0183    -1.6099 C.3     
  27 C27            9.4350     2.5776    -1.5225 C.3     
  28 C28           10.2917     4.5613    -2.9970 C.3     
  29 O29           11.6872     4.8637    -3.0528 O.3     
  30 C30           12.1200     5.3805    -4.3128 C.3     
  31 C31           13.5994     5.6625    -4.2587 C.ar    
  32 C32           14.5040     4.6789    -4.6127 C.ar    
  33 C33           15.8610     4.9376    -4.5630 C.ar    
  34 C34           16.3135     6.1800    -4.1597 C.ar    
  35 C35           15.4089     7.1638    -3.8066 C.ar    
  36 C36           14.0518     6.9066    -3.8605 C.ar    
  37 H37            1.0885     0.3081    -2.6240 H       
  38 H38           -0.7517     1.8066     0.9215 H       
  39 H39            1.3479     2.9297     1.5446 H       
  40 H40            4.0993     2.5896     0.9338 H       
  41 H41            5.9381     2.9509     0.9143 H       
  42 H42            7.7575     7.6637    -2.6069 H       
  43 H43            7.7461     3.9503    -2.0998 H       
  44 H44           10.5633     4.3837    -0.7919 H       
  45 H45            9.7218     1.9952    -0.6469 H       
  46 H46            9.3498     2.0166    -2.4532 H       
  47 H47           10.0518     3.8121    -3.7515 H       
  48 H48            9.7158     5.4668    -3.1883 H       
  49 H49           11.9181     4.6482    -5.0946 H       
  50 H50           11.5821     6.3030    -4.5313 H       
  51 H51           14.1504     3.7083    -4.9277 H       
  52 H52           16.5677     4.1689    -4.8389 H       
  53 H53           17.3737     6.3818    -4.1202 H       
  54 H54           15.7624     8.1344    -3.4912 H       
  55 H55           13.3451     7.6752    -3.5846 H       
@<TRIPOS>BOND
   1    1    2 ar
   2    1    6 ar
   3    1   37 1
   4    2    3 ar
   5    2   15 1
   6    3    4 ar
   7    3   38 1
   8    4    5 ar
   9    4   39 1
  10    5    6 ar
  11    5    9 1
  12    6   17 1
  13    7    8 ar
  14    7   10 ar
  15    7   18 1
  16    8    9 1
  17    8   13 ar
  18    9   40 1
  19   10   11 ar
  20   10   16 1
  21   11   12 ar
  22   11   21 1
  23   12   13 ar
  24   12   19 1
  25   13   14 1
  26   14   22 am
  27   14   41 1
  28   19   20 1
  29   20   21 2
  30   20   42 1
  31   22   23 2
  32   22   24 2
  33   22   25 1
  34   25   26 1
  35   25   27 1
  36   25   43 1
  37   26   27 1
  38   26   28 1
  39   26   44 1
  40   27   45 1
  41   27   46 1
  42   28   29 1
  43   28   47 1
  44   28   48 1
  45   29   30 1
  46   30   31 1
  47   30   49 1
  48   30   50 1
  49   31   32 ar
  50   31   36 ar
  51   32   33 ar
  52   32   51 1
  53   33   34 ar
  54   33   52 1
  55   34   35 ar
  56   34   53 1
  57   35   36 ar
  58   35   54 1
  59   36   55 1

#	End of record

