#	Name: ASD02198564
#	Creating user name:	WinNT
#	Creation time:	15. 06. 2019 20:19

#	Modifying user name:	WinNT
#	Modification time:	15. 06. 2019 20:19

#	Program:	/corina/corina34_cracker 3.40 0067  02.08.2006

@<TRIPOS>MOLECULE
ASD02198564
  51   55    0    0    0
SMALL
NO_CHARGES


@<TRIPOS>ATOM
   1 C1            -0.1926     1.5567    -0.2292 C.2     
   2 C2            -0.1689     0.2426    -0.5827 C.2     
   3 N3            -1.3046    -0.4926    -0.5885 N.pl3   
   4 N4            -2.4520    -0.0179    -0.2709 N.2     
   5 C5            -2.6161     1.2379     0.0906 C.2     
   6 C6            -1.4427     2.1209     0.1356 C.2     
   7 C7            -1.2225    -1.8390    -0.9604 C.ar    
   8 C8            -1.9386    -3.6562    -2.3576 C.ar    
   9 C9            -1.0603    -4.5056    -1.6960 C.ar    
  10 C10           -0.2681    -4.0192    -0.6632 C.ar    
  11 C11           -0.3490    -2.6910    -0.2968 C.ar    
  12 C12           -3.9550     1.7482     0.4495 C.2     
  13 N13           -4.3037     2.3598     1.6208 N.pl3   
  14 N14           -5.6642     2.6830     1.5447 N.2     
  15 C15           -6.1263     2.2891     0.3849 C.2     
  16 C16           -5.0860     1.7024    -0.3358 C.2     
  17 C17           -3.4530     2.6169     2.7034 C.ar    
  18 C18           -2.5416     1.6538     3.1161 C.ar    
  19 O19           -1.5406     3.2944     0.4647 O.2     
  20 C20           -3.5153     3.8375     3.3626 C.ar    
  21 C21           -2.6751     4.0880     4.4298 C.ar    
  22 C22           -1.7726     3.1247     4.8420 C.ar    
  23 C23           -1.7042     1.9104     4.1840 C.ar    
  24 C24           -2.0204    -2.3265    -1.9917 C.ar    
  25 F25           -2.8744    -1.4999    -2.6341 F       
  26 O26            0.9446     2.3027    -0.2203 O.3     
  27 C27            2.1554     1.6442    -0.5973 C.3     
  28 N28           -0.9777    -5.8502    -2.0654 N.3     
  29 C29           -1.1352    -6.0084    -3.5232 C.3     
  30 C30           -0.0080    -7.0494    -3.4759 C.3     
  31 C31            0.4272    -6.2683    -2.2281 C.3     
  32 F32           -0.4427    -8.3529    -3.2131 F       
  33 H33            0.7670    -0.2183    -0.8621 H       
  34 H34           -2.5540    -4.0344    -3.1605 H       
  35 H35            0.4144    -4.6801    -0.1494 H       
  36 H36            0.2675    -2.3139     0.5058 H       
  37 H37           -7.1438     2.4031     0.0412 H       
  38 H38           -5.1561     1.2817    -1.3280 H       
  39 H39           -2.4880     0.7051     2.6028 H       
  40 H40           -4.2197     4.5903     3.0409 H       
  41 H41           -2.7228     5.0372     4.9427 H       
  42 H42           -1.1166     3.3230     5.6768 H       
  43 H43           -0.9985     1.1600     4.5085 H       
  44 H44            2.9840     2.3508    -0.5475 H       
  45 H45            2.3445     0.8140     0.0831 H       
  46 H46            2.0615     1.2657    -1.6152 H       
  47 H47           -2.0996    -6.4255    -3.8130 H       
  48 H48           -0.8757    -5.1128    -4.0877 H       
  49 H49            0.6927    -6.9867    -4.3085 H       
  50 H50            1.1036    -5.4421    -2.4470 H       
  51 H51            0.7868    -6.9057    -1.4203 H       
@<TRIPOS>BOND
   1    1    2 2
   2    1   26 1
   3    1    6 1
   4    2    3 1
   5    2   33 1
   6    3    4 1
   7    3    7 1
   8    4    5 2
   9    5    6 1
  10    5   12 1
  11    6   19 2
  12    7   24 ar
  13    7   11 ar
  14    8    9 ar
  15    8   24 ar
  16    8   34 1
  17    9   10 ar
  18    9   28 1
  19   10   11 ar
  20   10   35 1
  21   11   36 1
  22   12   13 1
  23   12   16 2
  24   13   14 1
  25   13   17 1
  26   14   15 2
  27   15   16 1
  28   15   37 1
  29   16   38 1
  30   17   20 ar
  31   17   18 ar
  32   18   23 ar
  33   18   39 1
  34   20   21 ar
  35   20   40 1
  36   21   22 ar
  37   21   41 1
  38   22   23 ar
  39   22   42 1
  40   23   43 1
  41   24   25 1
  42   26   27 1
  43   27   44 1
  44   27   45 1
  45   27   46 1
  46   28   29 1
  47   28   31 1
  48   29   30 1
  49   29   47 1
  50   29   48 1
  51   30   31 1
  52   30   32 1
  53   30   49 1
  54   31   50 1
  55   31   51 1

#	End of record

