#	Name: ASD02448153
#	Creating user name:	WinNT
#	Creation time:	15. 06. 2019 20:21

#	Modifying user name:	WinNT
#	Modification time:	15. 06. 2019 20:21

#	Program:	/corina/corina34_cracker 3.40 0067  02.08.2006

@<TRIPOS>MOLECULE
ASD02448153
  83   88    0    0    0
SMALL
NO_CHARGES


@<TRIPOS>ATOM
   1 C1             3.3244    -7.8997    -0.1637 C.ar    
   2 C2             2.8433    -6.8721     0.6226 C.ar    
   3 C3             2.0527    -5.8791     0.0602 C.ar    
   4 C4             1.7451    -5.9194    -1.2930 C.ar    
   5 C5             2.2258    -6.9467    -2.0800 C.ar    
   6 C6             3.0172    -7.9401    -1.5178 C.ar    
   7 N7             3.5046    -8.9805    -2.3146 N.am    
   8 C8             4.6996    -9.8047    -2.0913 C.3     
   9 C9             4.8741   -10.8149    -3.1790 C.2     
  10 N10            3.9320   -10.7824    -4.1320 N.am    
  11 S11            2.8580    -9.5749    -3.7330 S.o2    
  12 O12            5.7963   -11.6024    -3.1979 O.2     
  13 O13            1.6241   -10.2013    -3.4097 O.2     
  14 O14            2.9959    -8.5516    -4.7093 O.2     
  15 N15            1.5638    -4.8345     0.8600 N.pl3   
  16 C16            0.8151    -4.9661     1.9985 C.2     
  17 C17            1.7507    -3.5051     0.6514 C.2     
  18 N18            1.1508    -2.8409     1.5996 N.2     
  19 C19            0.5633    -3.7088     2.4480 C.2     
  20 C20           -0.2192    -3.3540     3.6574 C.ar    
  21 C21           -0.4011    -2.0155     4.0056 C.ar    
  22 C22           -0.7798    -4.3562     4.4463 C.ar    
  23 C23           -1.5070    -4.0211     5.5706 C.ar    
  24 C24           -1.6801    -2.6918     5.9155 C.ar    
  25 C25           -1.1304    -1.6911     5.1324 C.ar    
  26 C26            3.9378    -2.6172    -0.0447 C.ar    
  27 C27            4.8921    -3.6162    -0.1112 C.ar    
  28 C28            4.2763    -1.3603     0.4231 C.ar    
  29 C29            5.5698    -1.0964     0.8259 C.ar    
  30 C30            6.5352    -2.0991     0.7611 C.ar    
  31 C31            6.1883    -3.3636     0.2899 C.ar    
  32 C32            7.9276    -1.8212     1.1924 C.ar    
  33 Cl33          -2.5964    -2.2776     7.3306 Cl      
  34 Cl34           0.2884    -0.7602     3.0245 Cl      
  35 C35            2.5254    -2.8973    -0.4895 C.3     
  36 C36            8.8929    -2.8238     1.1275 C.ar    
  37 C37           10.1866    -2.5597     1.5295 C.ar    
  38 C38           10.5255    -1.3024     1.9960 C.ar    
  39 C39            9.5712    -0.3034     2.0625 C.ar    
  40 C40            8.2757    -0.5550     1.6582 C.ar    
  41 C41           11.9396    -1.0202     2.4340 C.3     
  42 C42           12.5227     0.1072     1.5796 C.3     
  43 C43           12.6555    -0.3670     0.1311 C.3     
  44 C44           13.1286     0.7949    -0.7446 C.3     
  45 C45           11.9436    -0.5996     3.9050 C.3     
  46 C46           11.4783    -1.7714     4.7718 C.3     
  47 C47           11.3697    -1.3167     6.2286 C.3     
  48 H48            3.9431    -8.6697     0.2730 H       
  49 H49            3.0818    -6.8408     1.6755 H       
  50 H50            1.1295    -5.1471    -1.7299 H       
  51 H51            1.9861    -6.9781    -3.1326 H       
  52 H52            5.5774    -9.1594    -2.0592 H       
  53 H53            4.6035   -10.3213    -1.1363 H       
  54 H54            3.8834   -11.3591    -4.9104 H       
  55 H55            0.4881    -5.8903     2.4517 H       
  56 H56           -0.6459    -5.3939     4.1783 H       
  57 H57           -1.9420    -4.7976     6.1823 H       
  58 H58           -1.2683    -0.6554     5.4058 H       
  59 H59            4.6223    -4.5958    -0.4773 H       
  60 H60            3.5273    -0.5839     0.4729 H       
  61 H61            5.8332    -0.1145     1.1904 H       
  62 H62            6.9326    -4.1445     0.2379 H       
  63 H63            2.5400    -3.5918    -1.3295 H       
  64 H64            2.0496    -1.9659    -0.7963 H       
  65 H65            8.6293    -3.8059     0.7637 H       
  66 H66           10.9356    -3.3362     1.4800 H       
  67 H67            9.8411     0.6764     2.4280 H       
  68 H68            7.5314     0.2258     1.7105 H       
  69 H69           12.5441    -1.9188     2.3114 H       
  70 H70           11.8611     0.9726     1.6194 H       
  71 H71           13.5050     0.3829     1.9632 H       
  72 H72           13.3804    -1.1794     0.0797 H       
  73 H73           11.6880    -0.7204    -0.2257 H       
  74 H74           12.4036     1.6073    -0.6933 H       
  75 H75           14.0961     1.1483    -0.3879 H       
  76 H76           13.2232     0.4570    -1.7766 H       
  77 H77           12.9528    -0.3097     4.1973 H       
  78 H78           11.2685     0.2450     4.0433 H       
  79 H79           10.5039    -2.1155     4.4249 H       
  80 H80           12.1987    -2.5862     4.6982 H       
  81 H81           12.3441    -0.9726     6.5754 H       
  82 H82           10.6493    -0.5019     6.3021 H       
  83 H83           11.0382    -2.1515     6.8460 H       
@<TRIPOS>BOND
   1    1    2 ar
   2    1    6 ar
   3    1   48 1
   4    2    3 ar
   5    2   49 1
   6    3    4 ar
   7    3   15 1
   8    4    5 ar
   9    4   50 1
  10    5    6 ar
  11    5   51 1
  12    6    7 1
  13    7    8 1
  14    7   11 am
  15    8    9 1
  16    8   52 1
  17    8   53 1
  18    9   10 am
  19    9   12 2
  20   10   11 am
  21   10   54 1
  22   11   13 2
  23   11   14 2
  24   15   16 1
  25   15   17 1
  26   16   19 2
  27   16   55 1
  28   17   18 2
  29   17   35 1
  30   18   19 1
  31   19   20 1
  32   20   21 ar
  33   20   22 ar
  34   21   34 1
  35   21   25 ar
  36   22   23 ar
  37   22   56 1
  38   23   24 ar
  39   23   57 1
  40   24   25 ar
  41   24   33 1
  42   25   58 1
  43   26   27 ar
  44   26   28 ar
  45   26   35 1
  46   27   31 ar
  47   27   59 1
  48   28   29 ar
  49   28   60 1
  50   29   30 ar
  51   29   61 1
  52   30   31 ar
  53   30   32 1
  54   31   62 1
  55   32   36 ar
  56   32   40 ar
  57   35   63 1
  58   35   64 1
  59   36   37 ar
  60   36   65 1
  61   37   38 ar
  62   37   66 1
  63   38   39 ar
  64   38   41 1
  65   39   40 ar
  66   39   67 1
  67   40   68 1
  68   41   42 1
  69   41   45 1
  70   41   69 1
  71   42   43 1
  72   42   70 1
  73   42   71 1
  74   43   44 1
  75   43   72 1
  76   43   73 1
  77   44   74 1
  78   44   75 1
  79   44   76 1
  80   45   46 1
  81   45   77 1
  82   45   78 1
  83   46   47 1
  84   46   79 1
  85   46   80 1
  86   47   81 1
  87   47   82 1
  88   47   83 1

#	End of record

