#	Name: ASD02038536
#	Creating user name:	WinNT
#	Creation time:	15. 06. 2019 20:16

#	Modifying user name:	WinNT
#	Modification time:	15. 06. 2019 20:16

#	Program:	/corina/corina34_cracker 3.40 0067  02.08.2006

@<TRIPOS>MOLECULE
ASD02038536
  59   61    0    0    0
SMALL
NO_CHARGES


@<TRIPOS>ATOM
   1 Cl1            6.8244     3.6512    -3.2184 Cl      
   2 C2            -0.3041     1.4756    -0.1462 C.3     
   3 N3            -0.3143     0.0052    -0.1782 N.am    
   4 C4            -0.8559    -0.7050     0.8311 C.2     
   5 C5             0.2817    -0.6696    -1.3412 C.3     
   6 C6             1.6874    -0.1022    -1.5656 C.3     
   7 N7             1.6107     1.3611    -1.6685 N.3     
   8 C8             2.8455     1.9028    -2.0355 C.ar    
   9 C9             2.9851     3.2766    -2.1872 C.ar    
  10 C10            4.2063     3.8099    -2.5500 C.ar    
  11 C11            5.2909     2.9773    -2.7625 C.ar    
  12 C12            5.1550     1.6074    -2.6126 C.ar    
  13 C13            3.9363     1.0692    -2.2436 C.ar    
  14 C14            1.1247     1.9585    -0.4176 C.3     
  15 C15           -0.8556    -2.2110     0.7777 C.3     
  16 O16           -1.4808    -2.7295     1.9534 O.3     
  17 C17           -1.5632    -4.0823     2.0634 C.ar    
  18 C18           -2.1581    -4.6522     3.1794 C.ar    
  19 O19           -1.3435    -0.1320     1.7824 O.2     
  20 C20           -2.2421    -6.0260     3.2917 C.ar    
  21 C21           -1.7310    -6.8368     2.2873 C.ar    
  22 C22           -1.1358    -6.2658     1.1705 C.ar    
  23 C23           -1.0574    -4.8918     1.0568 C.ar    
  24 N24           -1.8156    -8.2312     2.4008 N.am    
  25 C25           -2.8944    -8.7961     2.9783 C.2     
  26 O26           -3.7536    -8.0958     3.4762 O.2     
  27 O27           -3.0200   -10.1365     3.0037 O.3     
  28 C28           -4.2076   -10.6753     3.6422 C.3     
  29 C29           -5.4537   -10.1592     2.9198 C.3     
  30 C30           -4.1746   -12.2034     3.5737 C.3     
  31 C31           -4.2458   -10.2311     5.1057 C.3     
  32 Cl32           6.5177     0.5659    -2.8812 Cl      
  33 H33           -0.9737     1.8633    -0.9139 H       
  34 H34           -0.6277     1.8227     0.8351 H       
  35 H35            0.3455    -1.7408    -1.1501 H       
  36 H36           -0.3315    -0.4882    -2.2239 H       
  37 H37            2.3279    -0.3748    -0.7268 H       
  38 H38            2.1016    -0.5105    -2.4875 H       
  39 H39            2.1391     3.9273    -2.0219 H       
  40 H40            4.3148     4.8779    -2.6683 H       
  41 H41            3.8304     0.0008    -2.1263 H       
  42 H42            1.1306     3.0448    -0.5069 H       
  43 H43            1.7729     1.6573     0.4053 H       
  44 H44           -1.4054    -2.5435    -0.1028 H       
  45 H45            0.1713    -2.5725     0.7228 H       
  46 H46           -2.5553    -4.0214     3.9609 H       
  47 H47           -2.7050    -6.4696     4.1608 H       
  48 H48           -0.7380    -6.8960     0.3888 H       
  49 H49           -0.5944    -4.4474     0.1882 H       
  50 H50           -1.0977    -8.7896     2.0637 H       
  51 H51           -5.4264   -10.4757     1.8771 H       
  52 H52           -6.3452   -10.5637     3.3991 H       
  53 H53           -5.4771    -9.0705     2.9686 H       
  54 H54           -3.2869   -12.5711     4.0883 H       
  55 H55           -5.0661   -12.6079     4.0530 H       
  56 H56           -4.1474   -12.5199     2.5310 H       
  57 H57           -4.2693    -9.1425     5.1545 H       
  58 H58           -5.1373   -10.6356     5.5851 H       
  59 H59           -3.3581   -10.5988     5.6203 H       
@<TRIPOS>BOND
   1    1   11 1
   2    2    3 1
   3    2   14 1
   4    2   33 1
   5    2   34 1
   6    3    4 am
   7    3    5 1
   8    4   15 1
   9    4   19 2
  10    5    6 1
  11    5   35 1
  12    5   36 1
  13    6    7 1
  14    6   37 1
  15    6   38 1
  16    7    8 1
  17    7   14 1
  18    8    9 ar
  19    8   13 ar
  20    9   10 ar
  21    9   39 1
  22   10   11 ar
  23   10   40 1
  24   11   12 ar
  25   12   13 ar
  26   12   32 1
  27   13   41 1
  28   14   42 1
  29   14   43 1
  30   15   16 1
  31   15   44 1
  32   15   45 1
  33   16   17 1
  34   17   18 ar
  35   17   23 ar
  36   18   20 ar
  37   18   46 1
  38   20   21 ar
  39   20   47 1
  40   21   22 ar
  41   21   24 1
  42   22   23 ar
  43   22   48 1
  44   23   49 1
  45   24   25 am
  46   24   50 1
  47   25   26 2
  48   25   27 1
  49   27   28 1
  50   28   29 1
  51   28   30 1
  52   28   31 1
  53   29   51 1
  54   29   52 1
  55   29   53 1
  56   30   54 1
  57   30   55 1
  58   30   56 1
  59   31   57 1
  60   31   58 1
  61   31   59 1

#	End of record

