#	Name: ASD03430690
#	Creating user name:	WinNT
#	Creation time:	15. 06. 2019 20:41

#	Modifying user name:	WinNT
#	Modification time:	15. 06. 2019 20:41

#	Program:	/corina/corina34_cracker 3.40 0067  02.08.2006

@<TRIPOS>MOLECULE
ASD03430690
  57   63    0    0    0
SMALL
NO_CHARGES


@<TRIPOS>ATOM
   1 C1             2.1033     0.7789    -0.3605 C.ar    
   2 C2             1.6748    -0.5295    -0.3167 C.ar    
   3 C3             2.5785    -1.5589    -0.4763 C.ar    
   4 C4             3.9294    -1.2851    -0.6750 C.ar    
   5 C5             4.3515     0.0379    -0.7288 C.ar    
   6 C6             3.4433     1.0784    -0.5749 C.ar    
   7 O7             4.6551    -2.4350    -0.7755 O.3     
   8 C8             2.4352    -3.0564    -0.4975 C.3     
   9 C9             3.7722    -3.5299    -1.0852 C.3     
  10 C10            0.9956    -4.3338     0.7739 C.ar    
  11 C11            2.1916    -3.6269     0.8682 C.ar    
  12 C12            1.2708    -3.5082    -1.3311 C.2     
  13 N13            0.4836    -4.2463    -0.5234 N.am    
  14 O14            1.0766    -3.2580    -2.5019 O.2     
  15 C15            2.8795    -3.5689     2.0596 C.ar    
  16 C16            2.3860    -4.2179     3.1777 C.ar    
  17 C17            1.2006    -4.9248     3.0961 C.ar    
  18 C18            0.5062    -4.9852     1.9042 C.ar    
  19 C19           -0.7634    -4.8825    -0.9551 C.3     
  20 C20            1.3717     2.0975    -0.2024 C.3     
  21 C21            2.5394     3.0855     0.0295 C.3     
  22 O22            3.6461     2.4249    -0.6077 O.3     
  23 Cl23          -0.9813    -5.8757     1.8136 Cl      
  24 C24           -1.9308    -4.2088    -0.2810 C.ar    
  25 C25           -3.0814    -4.9259    -0.0116 C.ar    
  26 C26           -4.1522    -4.3079     0.6067 C.ar    
  27 C27           -4.0722    -2.9729     0.9562 C.ar    
  28 C28           -2.9212    -2.2559     0.6876 C.ar    
  29 C29           -1.8488    -2.8751     0.0732 C.ar    
  30 C30           -0.9027    -4.7517    -2.4500 C.ar    
  31 C31           -0.7906    -5.8698    -3.2551 C.ar    
  32 C32           -0.9183    -5.7498    -4.6262 C.ar    
  33 C33           -1.1587    -4.5118    -5.1923 C.ar    
  34 C34           -1.2718    -3.3938    -4.3872 C.ar    
  35 C35           -1.1483    -3.5145    -3.0156 C.ar    
  36 H36            0.6297    -0.7496    -0.1567 H       
  37 H37            5.3960     0.2596    -0.8914 H       
  38 H38            3.6929    -3.6701    -2.1632 H       
  39 H39            4.1062    -4.4460    -0.5981 H       
  40 H40            3.8055    -3.0165     2.1214 H       
  41 H41            2.9259    -4.1726     4.1121 H       
  42 H42            0.8162    -5.4323     3.9685 H       
  43 H43           -0.7461    -5.9378    -0.6828 H       
  44 H44            0.8226     2.3495    -1.1097 H       
  45 H45            0.7056     2.0724     0.6600 H       
  46 H46            2.3350     4.0439    -0.4478 H       
  47 H47            2.7290     3.2160     1.0949 H       
  48 H48           -3.1439    -5.9690    -0.2846 H       
  49 H49           -5.0514    -4.8681     0.8165 H       
  50 H50           -4.9090    -2.4899     1.4386 H       
  51 H51           -2.8588    -1.2128     0.9603 H       
  52 H52           -0.9481    -2.3159    -0.1332 H       
  53 H53           -0.6028    -6.8370    -2.8128 H       
  54 H54           -0.8300    -6.6232    -5.2553 H       
  55 H55           -1.2578    -4.4179    -6.2637 H       
  56 H56           -1.4592    -2.4266    -4.8294 H       
  57 H57           -1.2404    -2.6417    -2.3863 H       
@<TRIPOS>BOND
   1    1    2 ar
   2    1    6 ar
   3    1   20 1
   4    2    3 ar
   5    2   36 1
   6    3    4 ar
   7    3    8 1
   8    4    5 ar
   9    4    7 1
  10    5    6 ar
  11    5   37 1
  12    6   22 1
  13    7    9 1
  14    8    9 1
  15    8   11 1
  16    8   12 1
  17    9   38 1
  18    9   39 1
  19   10   11 ar
  20   10   13 1
  21   10   18 ar
  22   11   15 ar
  23   12   13 am
  24   12   14 2
  25   13   19 1
  26   15   16 ar
  27   15   40 1
  28   16   17 ar
  29   16   41 1
  30   17   18 ar
  31   17   42 1
  32   18   23 1
  33   19   24 1
  34   19   30 1
  35   19   43 1
  36   20   21 1
  37   20   44 1
  38   20   45 1
  39   21   22 1
  40   21   46 1
  41   21   47 1
  42   24   25 ar
  43   24   29 ar
  44   25   26 ar
  45   25   48 1
  46   26   27 ar
  47   26   49 1
  48   27   28 ar
  49   27   50 1
  50   28   29 ar
  51   28   51 1
  52   29   52 1
  53   30   31 ar
  54   30   35 ar
  55   31   32 ar
  56   31   53 1
  57   32   33 ar
  58   32   54 1
  59   33   34 ar
  60   33   55 1
  61   34   35 ar
  62   34   56 1
  63   35   57 1

#	End of record

