#	Name: ASD01382006
#	Creating user name:	WinNT
#	Creation time:	15. 06. 2019 19:16

#	Modifying user name:	WinNT
#	Modification time:	15. 06. 2019 19:16

#	Program:	/corina/corina34_cracker 3.40 0067  02.08.2006

@<TRIPOS>MOLECULE
ASD01382006
  81   84    0    0    0
SMALL
NO_CHARGES


@<TRIPOS>ATOM
   1 C1             0.5442     1.0272     1.4584 C.ar    
   2 C2             0.4958    -0.3304     1.2091 C.ar    
   3 C3             1.6598    -1.0199     0.9010 C.ar    
   4 C4             2.8695    -0.3435     0.8443 C.ar    
   5 C5             2.9125     1.0146     1.0945 C.ar    
   6 C6             1.7514     1.6993     1.4012 C.ar    
   7 O7             1.6149    -2.3559     0.6557 O.3     
   8 C8             0.3350    -2.9868     0.7322 C.3     
   9 C9             0.4807    -4.4565     0.4325 C.ar    
  10 C10            0.7254    -5.3502     1.4583 C.ar    
  11 C11            0.8591    -6.6983     1.1834 C.ar    
  12 C12            0.7478    -7.1528    -0.1173 C.ar    
  13 C13            0.5022    -6.2592    -1.1431 C.ar    
  14 C14            0.3642    -4.9117    -0.8676 C.ar    
  15 C15            0.8946    -8.6224    -0.4172 C.3     
  16 C16           -0.4752    -9.2990    -0.3345 C.3     
  17 C17           -0.3284   -10.7686    -0.6343 C.ar    
  18 C18           -0.0824   -11.6621     0.3914 C.ar    
  19 C19            0.0523   -13.0101     0.1163 C.ar    
  20 C20           -0.0594   -13.4646    -1.1844 C.ar    
  21 C21           -0.3063   -12.5713    -2.2099 C.ar    
  22 C22           -0.4453   -11.2238    -1.9343 C.ar    
  23 C23            4.1357    -1.0894     0.5105 C.3     
  24 C24            4.2857    -1.1850    -1.0092 C.3     
  25 N25            5.5200    -1.9120    -1.3346 N.3     
  26 C26            5.5809    -2.2311    -2.7672 C.3     
  27 C27            4.6759    -3.3998    -3.0605 C.ar    
  28 C28            3.3935    -3.1770    -3.5299 C.ar    
  29 C29            2.5599    -4.2422    -3.8004 C.ar    
  30 C30            3.0128    -5.5476    -3.5995 C.ar    
  31 C31            4.3081    -5.7652    -3.1256 C.ar    
  32 C32            5.1331    -4.6910    -2.8645 C.ar    
  33 C33            2.1255    -6.6933    -3.8866 C.2     
  34 O34            2.5656    -7.9515    -3.6916 O.3     
  35 O35            0.9991    -6.5008    -4.2984 O.2     
  36 C36            6.7049    -1.1526    -0.9135 C.3     
  37 C37            7.9210    -2.0805    -0.8831 C.3     
  38 C38            9.1250    -1.3249    -0.3170 C.3     
  39 C39           10.3412    -2.2528    -0.2866 C.3     
  40 C40           11.5270    -1.5085     0.2709 C.2     
  41 O41           12.7118    -2.1278     0.3916 O.3     
  42 O42           11.4113    -0.3544     0.6092 O.2     
  43 H43           -0.3622     1.5652     1.6939 H       
  44 H44           -0.4472    -0.8549     1.2542 H       
  45 H45            3.8541     1.5418     1.0505 H       
  46 H46            1.7872     2.7609     1.5966 H       
  47 H47           -0.0737    -2.8592     1.7346 H       
  48 H48           -0.3380    -2.5327     0.0049 H       
  49 H49            0.8124    -4.9951     2.4746 H       
  50 H50            1.0510    -7.3964     1.9848 H       
  51 H51            0.4155    -6.6143    -2.1594 H       
  52 H52            0.1723    -4.2136    -1.6690 H       
  53 H53            1.3027    -8.7496    -1.4198 H       
  54 H54            1.5684    -9.0759     0.3097 H       
  55 H55           -0.8833    -9.1718     0.6682 H       
  56 H56           -1.1490    -8.8455    -1.0613 H       
  57 H57            0.0050   -11.3070     1.4076 H       
  58 H58            0.2452   -13.7081     0.9176 H       
  59 H59            0.0465   -14.5177    -1.3994 H       
  60 H60           -0.3933   -12.9264    -3.2262 H       
  61 H61           -0.6383   -10.5258    -2.7356 H       
  62 H62            4.9911    -0.5578     0.9273 H       
  63 H63            4.0892    -2.0923     0.9348 H       
  64 H64            3.4303    -1.7165    -1.4260 H       
  65 H65            4.3322    -0.1820    -1.4335 H       
  66 H66            5.2567    -1.3663    -3.3461 H       
  67 H67            6.6049    -2.4872    -3.0392 H       
  68 H68            3.0443    -2.1668    -3.6846 H       
  69 H69            1.5590    -4.0669    -4.1665 H       
  70 H70            4.6646    -6.7724    -2.9680 H       
  71 H71            6.1352    -4.8579    -2.4979 H       
  72 H72            1.9489    -8.6685    -3.8934 H       
  73 H73            6.8851    -0.3404    -1.6177 H       
  74 H74            6.5375    -0.7404     0.0816 H       
  75 H75            7.7043    -2.9430    -0.2528 H       
  76 H76            8.1464    -2.4173    -1.8949 H       
  77 H77            9.3417    -0.4624    -0.9473 H       
  78 H78            8.8996    -0.9881     0.6948 H       
  79 H79           10.1244    -3.1153     0.3436 H       
  80 H80           10.5666    -2.5896    -1.2985 H       
  81 H81           13.4431    -1.6095     0.7545 H       
@<TRIPOS>BOND
   1    1    2 ar
   2    1    6 ar
   3    1   43 1
   4    2    3 ar
   5    2   44 1
   6    3    4 ar
   7    3    7 1
   8    4    5 ar
   9    4   23 1
  10    5    6 ar
  11    5   45 1
  12    6   46 1
  13    7    8 1
  14    8    9 1
  15    8   47 1
  16    8   48 1
  17    9   10 ar
  18    9   14 ar
  19   10   11 ar
  20   10   49 1
  21   11   12 ar
  22   11   50 1
  23   12   13 ar
  24   12   15 1
  25   13   14 ar
  26   13   51 1
  27   14   52 1
  28   15   16 1
  29   15   53 1
  30   15   54 1
  31   16   17 1
  32   16   55 1
  33   16   56 1
  34   17   18 ar
  35   17   22 ar
  36   18   19 ar
  37   18   57 1
  38   19   20 ar
  39   19   58 1
  40   20   21 ar
  41   20   59 1
  42   21   22 ar
  43   21   60 1
  44   22   61 1
  45   23   24 1
  46   23   62 1
  47   23   63 1
  48   24   25 1
  49   24   64 1
  50   24   65 1
  51   25   26 1
  52   25   36 1
  53   26   27 1
  54   26   66 1
  55   26   67 1
  56   27   28 ar
  57   27   32 ar
  58   28   29 ar
  59   28   68 1
  60   29   30 ar
  61   29   69 1
  62   30   31 ar
  63   30   33 1
  64   31   32 ar
  65   31   70 1
  66   32   71 1
  67   33   34 1
  68   33   35 2
  69   34   72 1
  70   36   37 1
  71   36   73 1
  72   36   74 1
  73   37   38 1
  74   37   75 1
  75   37   76 1
  76   38   39 1
  77   38   77 1
  78   38   78 1
  79   39   40 1
  80   39   79 1
  81   39   80 1
  82   40   41 1
  83   40   42 2
  84   41   81 1

#	End of record

