#	Name: ASD04560166
#	Creating user name:	WinNT
#	Creation time:	15. 06. 2019 20:49

#	Modifying user name:	WinNT
#	Modification time:	15. 06. 2019 20:49

#	Program:	/corina/corina34_cracker 3.40 0067  02.08.2006

@<TRIPOS>MOLECULE
ASD04560166
  43   45    0    0    0
SMALL
NO_CHARGES


@<TRIPOS>ATOM
   1 C1            -0.0296     1.3122     0.9605 C.ar    
   2 C2            -0.0221    -0.0521     0.8272 C.ar    
   3 C3             1.1828    -0.7299     0.6554 C.ar    
   4 C4             2.3832    -0.0240     0.6184 C.ar    
   5 C5             2.3819     1.3404     0.7507 C.ar    
   6 C6             1.1739     2.0237     0.9233 C.ar    
   7 C7             1.1690     3.4912     1.0653 C.2     
   8 O8             2.2161     4.1087     1.0325 O.2     
   9 N9             0.0041     4.1483     1.2316 N.am    
  10 C10            0.0070     5.5201     1.4808 C.ar    
  11 C11           -1.1979     6.2117     1.5383 C.ar    
  12 C12            1.2043     7.4467     1.9046 C.ar    
  13 N13            1.1560     6.1499     1.6658 N.ar    
  14 S14            1.1885    -2.4837     0.4851 S.3     
  15 C15           -1.1819     7.5726     1.7867 C.ar    
  16 C16            0.0457     8.1985     1.9703 C.ar    
  17 C17            2.9505    -2.8692     0.2925 C.3     
  18 C18            3.1246    -4.3576     0.1330 C.ar    
  19 C19            3.0156    -4.9422    -1.1275 C.ar    
  20 C20            3.3979    -5.1435     1.2339 C.ar    
  21 C21            3.1782    -6.3196    -1.2678 C.ar    
  22 C22            3.4460    -7.0964    -0.1596 C.ar    
  23 C23            3.5584    -6.5100     1.0889 C.ar    
  24 B24            2.7102    -4.0528    -2.3847 Du      
  25 O25            3.0850    -4.5004    -3.6791 O.3     
  26 O26            2.0592    -2.8006    -2.2274 O.3     
  27 F27            0.1057     9.5257     2.2156 F       
  28 H28           -0.9644     1.8376     1.0895 H       
  29 H29           -0.9511    -0.6021     0.8558 H       
  30 H30            3.3158    -0.5522     0.4858 H       
  31 H31            3.3128     1.8872     0.7223 H       
  32 H32           -0.8362     3.6669     1.1779 H       
  33 H33           -2.1338     5.6934     1.3905 H       
  34 H34            2.1607     7.9268     2.0505 H       
  35 H35           -2.1021     8.1358     1.8366 H       
  36 H36            3.3392    -2.3613    -0.5902 H       
  37 H37            3.4948    -2.5322     1.1747 H       
  38 H38            3.4870    -4.6910     2.2105 H       
  39 H39            3.0944    -6.7778    -2.2422 H       
  40 H40            3.5721    -8.1636    -0.2672 H       
  41 H41            3.7680    -7.1218     1.9538 H       
  42 H42            2.8558    -3.8858    -4.3895 H       
  43 H43            1.9143    -2.3257    -3.0571 H       
@<TRIPOS>BOND
   1    1    2 ar
   2    1    6 ar
   3    1   28 1
   4    2    3 ar
   5    2   29 1
   6    3    4 ar
   7    3   14 1
   8    4    5 ar
   9    4   30 1
  10    5    6 ar
  11    5   31 1
  12    6    7 1
  13    7    8 2
  14    7    9 am
  15    9   10 1
  16    9   32 1
  17   10   11 ar
  18   10   13 ar
  19   11   15 ar
  20   11   33 1
  21   12   13 ar
  22   12   16 ar
  23   12   34 1
  24   14   17 1
  25   15   16 ar
  26   15   35 1
  27   16   27 1
  28   17   18 1
  29   17   36 1
  30   17   37 1
  31   18   19 ar
  32   18   20 ar
  33   19   24 1
  34   19   21 ar
  35   20   23 ar
  36   20   38 1
  37   21   22 ar
  38   21   39 1
  39   22   23 ar
  40   22   40 1
  41   23   41 1
  42   24   25 1
  43   24   26 1
  44   25   42 1
  45   26   43 1

#	End of record

