#	Name: ASD02038512
#	Creating user name:	WinNT
#	Creation time:	15. 06. 2019 20:16

#	Modifying user name:	WinNT
#	Modification time:	15. 06. 2019 20:16

#	Program:	/corina/corina34_cracker 3.40 0067  02.08.2006

@<TRIPOS>MOLECULE
ASD02038512
  51   53    0    0    0
SMALL
NO_CHARGES


@<TRIPOS>ATOM
   1 C1            -0.0184     1.5028     0.0103 C.3     
   2 C2            -1.0675    -4.7136     0.7506 C.3     
   3 C3            -0.9660    -6.2404     0.7843 C.3     
   4 N4            -0.9725    -6.7596    -0.5905 N.3     
   5 C5            -0.9525    -8.2285    -0.5985 C.3     
   6 C6            -0.7093    -8.7274    -2.0243 C.3     
   7 C7            -0.6885   -10.2572    -2.0327 C.3     
   8 O8            -0.3463   -10.7218    -3.3401 O.3     
   9 C9            -0.2836   -12.0681    -3.5200 C.ar    
  10 C10            0.0431   -12.5870    -4.7644 C.ar    
  11 C11           -0.5406   -12.9221    -2.4582 C.ar    
  12 C12           -0.4767   -14.2907    -2.6399 C.ar    
  13 C13           -0.1556   -14.8108    -3.8837 C.ar    
  14 O14           -0.0928   -16.1579    -4.0622 O.3     
  15 C15            0.1527    -6.2134    -1.3620 C.3     
  16 C16            0.0512    -4.6866    -1.3956 C.3     
  17 N17            0.0577    -4.1674    -0.0209 N.3     
  18 C18            0.0387    -2.7708    -0.0132 C.ar    
  19 C19            0.0412    -2.0812     1.1927 C.ar    
  20 C20            0.0229    -0.7003     1.1966 C.ar    
  21 C21            0.0021    -0.0041     0.0020 C.ar    
  22 C22           -0.0005    -0.6874    -1.2002 C.ar    
  23 C23            0.0231    -2.0682    -1.2114 C.ar    
  24 C24            0.1068   -13.9561    -4.9470 C.ar    
  25 F25            0.4199   -14.4624    -6.1598 F       
  26 O26           -1.7563    -8.2605    -2.8775 O.3     
  27 H27            1.0042     1.8801     0.0026 H       
  28 H28           -0.5455     1.8639    -0.8728 H       
  29 H29           -0.5286     1.8543     0.9071 H       
  30 H30           -2.0066    -4.4219     0.2803 H       
  31 H31           -1.0337    -4.3244     1.7682 H       
  32 H32           -0.0397    -6.5325     1.2790 H       
  33 H33           -1.8154    -6.6493     1.3315 H       
  34 H34           -0.1539    -8.5846     0.0522 H       
  35 H35           -1.9097    -8.6068    -0.2396 H       
  36 H36            0.2479    -8.3490    -2.3833 H       
  37 H37            0.0503   -10.6145    -1.3153 H       
  38 H38           -1.6734   -10.6355    -1.7590 H       
  39 H39            0.2473   -11.9217    -5.5904 H       
  40 H40           -0.7905   -12.5175    -1.4886 H       
  41 H41           -0.6767   -14.9550    -1.8123 H       
  42 H42           -0.9310   -16.5587    -4.3302 H       
  43 H43            1.0917    -6.5051    -0.8917 H       
  44 H44            0.1189    -6.6026    -2.3795 H       
  45 H45            0.9006    -4.2777    -1.9428 H       
  46 H46           -0.8751    -4.3946    -1.8903 H       
  47 H47            0.0571    -2.6243     2.1260 H       
  48 H48            0.0244    -0.1635     2.1338 H       
  49 H49           -0.0167    -0.1406    -2.1314 H       
  50 H50            0.0215    -2.6013    -2.1507 H       
  51 H51           -2.6384    -8.5593    -2.6172 H       
@<TRIPOS>BOND
   1    1   21 1
   2    1   27 1
   3    1   28 1
   4    1   29 1
   5    2    3 1
   6    2   17 1
   7    2   30 1
   8    2   31 1
   9    3    4 1
  10    3   32 1
  11    3   33 1
  12    4    5 1
  13    4   15 1
  14    5    6 1
  15    5   34 1
  16    5   35 1
  17    6    7 1
  18    6   26 1
  19    6   36 1
  20    7    8 1
  21    7   37 1
  22    7   38 1
  23    8    9 1
  24    9   10 ar
  25    9   11 ar
  26   10   24 ar
  27   10   39 1
  28   11   12 ar
  29   11   40 1
  30   12   13 ar
  31   12   41 1
  32   13   24 ar
  33   13   14 1
  34   14   42 1
  35   15   16 1
  36   15   43 1
  37   15   44 1
  38   16   17 1
  39   16   45 1
  40   16   46 1
  41   17   18 1
  42   18   19 ar
  43   18   23 ar
  44   19   20 ar
  45   19   47 1
  46   20   21 ar
  47   20   48 1
  48   21   22 ar
  49   22   23 ar
  50   22   49 1
  51   23   50 1
  52   24   25 1
  53   26   51 1

#	End of record

