#	Name: ASD01910320
#	Creating user name:	WinNT
#	Creation time:	15. 06. 2019 19:55

#	Modifying user name:	WinNT
#	Modification time:	15. 06. 2019 19:55

#	Program:	/corina/corina34_cracker 3.40 0067  02.08.2006

@<TRIPOS>MOLECULE
ASD01910320
  36   38    0    0    0
SMALL
NO_CHARGES


@<TRIPOS>ATOM
   1 C1            -0.0145     1.3758     0.0603 C.ar    
   2 C2            -0.0069     0.0267     0.3684 C.ar    
   3 C3             1.1869    -0.6251     0.6233 C.ar    
   4 C4             2.3789     0.0667     0.5723 C.ar    
   5 C5             2.3792     1.4294     0.2617 C.ar    
   6 C6             1.1695     2.0808     0.0051 C.ar    
   7 C7             3.6127     2.1547     0.2073 C.1     
   8 C8             4.6239     2.7494     0.1627 C.1     
   9 C9             5.8575     3.4747     0.1082 C.ar    
  10 C10            5.8541     4.8390    -0.2030 C.ar    
  11 C11            7.0309     5.5301    -0.2548 C.ar    
  12 C12            8.2388     4.8748     0.0026 C.ar    
  13 C13            8.2428     3.5118     0.3135 C.ar    
  14 C14            7.0662     2.8208     0.3718 C.ar    
  15 C15            9.5105     5.6223    -0.0546 C.2     
  16 N16           10.6835     4.9643     0.0328 N.am    
  17 O17            9.4997     6.8316    -0.1804 O.2     
  18 C18           12.1076     5.3255    -0.0318 C.3     
  19 C19           12.3904     3.9016    -0.5306 C.3     
  20 C20           11.1026     3.5701     0.2412 C.3     
  21 O21           12.2862     3.7456    -1.9473 O.3     
  22 H22           -0.9497     1.8769    -0.1419 H       
  23 H23           -0.9373    -0.5201     0.4105 H       
  24 H24            1.1851    -1.6782     0.8631 H       
  25 H25            3.3098    -0.4432     0.7721 H       
  26 H26            1.1620     3.1336    -0.2358 H       
  27 H27            4.9212     5.3452    -0.4025 H       
  28 H28            7.0285     6.5831    -0.4950 H       
  29 H29            9.1762     3.0061     0.5122 H       
  30 H30            7.0695     1.7679     0.6121 H       
  31 H31           12.3270     6.0959    -0.7710 H       
  32 H32           12.5460     5.5389     0.9431 H       
  33 H33           13.2895     3.4511    -0.1102 H       
  34 H34           11.2762     3.3172     1.2871 H       
  35 H35           10.4655     2.8468    -0.2678 H       
  36 H36           12.4649     2.8475    -2.2582 H       
@<TRIPOS>BOND
   1    1    2 ar
   2    1    6 ar
   3    1   22 1
   4    2    3 ar
   5    2   23 1
   6    3    4 ar
   7    3   24 1
   8    4    5 ar
   9    4   25 1
  10    5    6 ar
  11    5    7 1
  12    6   26 1
  13    7    8 3
  14    8    9 1
  15    9   10 ar
  16    9   14 ar
  17   10   11 ar
  18   10   27 1
  19   11   12 ar
  20   11   28 1
  21   12   13 ar
  22   12   15 1
  23   13   14 ar
  24   13   29 1
  25   14   30 1
  26   15   16 am
  27   15   17 2
  28   16   18 1
  29   16   20 1
  30   18   19 1
  31   18   31 1
  32   18   32 1
  33   19   20 1
  34   19   21 1
  35   19   33 1
  36   20   34 1
  37   20   35 1
  38   21   36 1

#	End of record

