#	Name: ASD01883972
#	Creating user name:	WinNT
#	Creation time:	15. 06. 2019 19:47

#	Modifying user name:	WinNT
#	Modification time:	15. 06. 2019 19:47

#	Program:	/corina/corina34_cracker 3.40 0067  02.08.2006

@<TRIPOS>MOLECULE
ASD01883972
  50   54    0    0    0
SMALL
NO_CHARGES


@<TRIPOS>ATOM
   1 C1            -0.2647     3.1825     0.4276 C.3     
   2 C2            -0.8938     1.8523     0.1025 C.2     
   3 N3            -1.3115     1.4601    -1.0941 N.2     
   4 C4            -1.8089     0.2399    -1.0142 C.2     
   5 C5            -2.4295    -0.8341    -1.8067 C.2     
   6 O6            -2.6596    -0.7841    -3.0000 O.2     
   7 N7            -2.7018    -1.8804    -1.0051 N.am    
   8 C8            -3.3209    -3.1429    -1.4165 C.3     
   9 C9            -2.2317    -4.1324    -1.8352 C.3     
  10 C10           -1.6692    -4.9599    -0.6674 C.3     
  11 C11           -1.6602    -6.1619    -1.6266 C.3     
  12 C12           -2.7827    -5.4517    -2.4015 C.3     
  13 C13           -2.2688    -1.5338     0.3531 C.3     
  14 N14           -1.7123    -0.1809     0.2849 N.pl3   
  15 C15           -1.1305     0.8274     0.9969 C.2     
  16 C16           -0.8187     0.8244     2.4410 C.ar    
  17 C17           -1.7585     0.3514     3.3588 C.ar    
  18 C18           -1.4648     0.3499     4.7059 C.ar    
  19 C19           -0.2363     0.8184     5.1515 C.ar    
  20 O20            0.0490     0.8151     6.4798 O.3     
  21 C21           -0.8507     0.2456     7.3241 C.ar    
  22 C22           -0.7791    -1.1118     7.6206 C.ar    
  23 C23           -1.7188    -1.6470     8.4870 C.ar    
  24 C24           -2.6888    -0.8217     9.0241 C.ar    
  25 N25           -2.7292     0.4614     8.7222 N.ar    
  26 C26           -1.8507     1.0109     7.9075 C.ar    
  27 C27            0.7038     1.2909     4.2409 C.ar    
  28 F28            1.8983     1.7456     4.6785 F       
  29 C29            0.4193     1.2896     2.8910 C.ar    
  30 H30            0.8161     3.1130     0.3047 H       
  31 H31           -0.6585     3.9448    -0.2446 H       
  32 H32           -0.4965     3.4519     1.4581 H       
  33 H33           -3.8880    -3.5579    -0.5832 H       
  34 H34           -3.9904    -2.9622    -2.2574 H       
  35 H35           -1.4630    -3.6766    -2.4593 H       
  36 H36           -0.6744    -4.6471    -0.3500 H       
  37 H37           -2.3648    -5.0702     0.1644 H       
  38 H38           -0.7342    -6.2617    -2.1929 H       
  39 H39           -1.9748    -7.0953    -1.1598 H       
  40 H40           -3.7828    -5.6966    -2.0437 H       
  41 H41           -2.6870    -5.5360    -3.4840 H       
  42 H42           -3.1209    -1.5529     1.0325 H       
  43 H43           -1.5056    -2.2346     0.6915 H       
  44 H44           -2.7149    -0.0128     3.0139 H       
  45 H45           -2.1918    -0.0161     5.4158 H       
  46 H46           -0.0102    -1.7333     7.1859 H       
  47 H47           -1.6939    -2.6968     8.7393 H       
  48 H48           -3.4238    -1.2333     9.6999 H       
  49 H49           -1.9128     2.0665     7.6878 H       
  50 H50            1.1505     1.6522     2.1837 H       
@<TRIPOS>BOND
   1    1    2 1
   2    1   30 1
   3    1   31 1
   4    1   32 1
   5    2   15 2
   6    2    3 1
   7    3    4 2
   8    4   14 1
   9    4    5 1
  10    5    6 2
  11    5    7 am
  12    7    8 1
  13    7   13 1
  14    8    9 1
  15    8   33 1
  16    8   34 1
  17    9   12 1
  18    9   10 1
  19    9   35 1
  20   10   11 1
  21   10   36 1
  22   10   37 1
  23   11   12 1
  24   11   38 1
  25   11   39 1
  26   12   40 1
  27   12   41 1
  28   13   14 1
  29   13   42 1
  30   13   43 1
  31   14   15 1
  32   15   16 1
  33   16   29 ar
  34   16   17 ar
  35   17   18 ar
  36   17   44 1
  37   18   19 ar
  38   18   45 1
  39   19   20 1
  40   19   27 ar
  41   20   21 1
  42   21   26 ar
  43   21   22 ar
  44   22   23 ar
  45   22   46 1
  46   23   24 ar
  47   23   47 1
  48   24   25 ar
  49   24   48 1
  50   25   26 ar
  51   26   49 1
  52   27   28 1
  53   27   29 ar
  54   29   50 1

#	End of record

