#	Name: ASD07301528
#	Creating user name:	WinNT
#	Creation time:	15. 06. 2019 21:11

#	Modifying user name:	WinNT
#	Modification time:	15. 06. 2019 21:11

#	Program:	/corina/corina34_cracker 3.40 0067  02.08.2006

@<TRIPOS>MOLECULE
ASD07301528
  32   35    0    0    0
SMALL
NO_CHARGES


@<TRIPOS>ATOM
   1 C1            -0.0158     1.3137     0.0093 C.ar    
   2 N2             0.0021    -0.0041     0.0020 N.ar    
   3 C3             1.1382    -0.6805    -0.0124 C.ar    
   4 C4             2.3702    -0.0049    -0.0206 C.ar    
   5 C5             2.3746     1.3935    -0.0131 C.ar    
   6 C6             1.1577     2.0497     0.0020 C.ar    
   7 N7             1.4459    -2.0289    -0.0226 N.pl3   
   8 C8             2.8018    -2.1509    -0.0363 C.2     
   9 N9             3.3451    -0.9462    -0.0350 N.2     
  10 C10            0.8294    -3.3629    -0.0242 C.3     
  11 C11            2.0181    -4.3387    -0.0411 C.3     
  12 N12            3.2030    -3.4738    -0.0468 N.pl3   
  13 C13            4.5314    -3.9183    -0.0618 C.ar    
  14 C14            5.5714    -2.9981    -0.0658 C.ar    
  15 C15            4.8082    -5.2791    -0.0667 C.ar    
  16 C16            6.1175    -5.7172    -0.0810 C.ar    
  17 C17            7.1576    -4.7970    -0.0904 C.ar    
  18 C18            6.8807    -3.4361    -0.0806 C.ar    
  19 N19            8.4846    -5.2410    -0.1049 N.pl3   
  20 H20           -0.9643     1.8301     0.0165 H       
  21 H21            3.3028     1.9456    -0.0193 H       
  22 H22            1.1223     3.1291     0.0078 H       
  23 H23            0.2322    -3.5068     0.8762 H       
  24 H24            0.2150    -3.4967    -0.9145 H       
  25 H25            2.0090    -4.9649     0.8510 H       
  26 H26            1.9918    -4.9548    -0.9399 H       
  27 H27            5.3561    -1.9398    -0.0578 H       
  28 H28            3.9994    -5.9947    -0.0591 H       
  29 H29            6.3328    -6.7755    -0.0845 H       
  30 H30            7.6895    -2.7204    -0.0882 H       
  31 H31            8.6780    -6.1915    -0.1083 H       
  32 H32            9.2111    -4.5983    -0.1114 H       
@<TRIPOS>BOND
   1    1    2 ar
   2    1    6 ar
   3    1   20 1
   4    2    3 ar
   5    3    4 ar
   6    3    7 1
   7    4    5 ar
   8    4    9 1
   9    5    6 ar
  10    5   21 1
  11    6   22 1
  12    7    8 1
  13    7   10 1
  14    8    9 2
  15    8   12 1
  16   10   11 1
  17   10   23 1
  18   10   24 1
  19   11   12 1
  20   11   25 1
  21   11   26 1
  22   12   13 1
  23   13   14 ar
  24   13   15 ar
  25   14   18 ar
  26   14   27 1
  27   15   16 ar
  28   15   28 1
  29   16   17 ar
  30   16   29 1
  31   17   18 ar
  32   17   19 1
  33   18   30 1
  34   19   31 1
  35   19   32 1

#	End of record

