#	Name: ASD05430041
#	Creating user name:	WinNT
#	Creation time:	15. 06. 2019 20:59

#	Modifying user name:	WinNT
#	Modification time:	15. 06. 2019 20:59

#	Program:	/corina/corina34_cracker 3.40 0067  02.08.2006

@<TRIPOS>MOLECULE
ASD05430041
  57   62    0    0    0
SMALL
NO_CHARGES


@<TRIPOS>ATOM
   1 C1            -0.0386     1.4040    -0.3146 C.ar    
   2 C2            -0.0043     0.0160    -0.3191 C.ar    
   3 C3            -1.2095    -0.6878    -0.1991 C.ar    
   4 C4            -2.3854     0.0234    -0.0811 C.ar    
   5 C5            -2.3400     1.4207    -0.0846 C.ar    
   6 N6            -1.1778     2.0554    -0.1953 N.ar    
   7 C7            -2.2184     4.2542     0.3007 C.3     
   8 C8            -3.5395     3.5339     0.1489 C.2     
   9 C9            -3.5868     2.1935     0.0401 C.2     
  10 C10           -2.4552     5.6284     0.9340 C.3     
  11 C11           -3.6968     5.7527     1.8250 C.3     
  12 N12           -4.8760     5.3801     1.0433 N.pl3   
  13 C13           -4.7738     4.3389     0.1237 C.2     
  14 C14           -6.1621     6.0572     1.2116 C.3     
  15 C15           -6.8297     6.1738    -0.1628 C.3     
  16 O16           -6.8897     4.8956    -0.7872 O.3     
  17 N17           -5.7231     4.1086    -0.7241 N.2     
  18 C18           -7.0409     5.2551     2.1364 C.ar    
  19 C19           -7.8264     5.8992     3.0741 C.ar    
  20 C20           -8.6331     5.1647     3.9224 C.ar    
  21 C21           -8.6543     3.7832     3.8330 C.ar    
  22 C22           -7.8671     3.1391     2.8935 C.ar    
  23 C23           -7.0652     3.8760     2.0427 C.ar    
  24 F24           -9.4422     3.0641     4.6621 F       
  25 C25           -1.2204     6.4370     1.3385 C.3     
  26 C26           -2.0468     6.8590     0.1223 C.3     
  27 C27            1.3789     1.9157    -0.4558 C.3     
  28 C28            2.2423     0.6468    -0.5431 C.3     
  29 N29            1.2973    -0.4692    -0.4495 N.am    
  30 C30            1.6359    -1.7733    -0.4836 C.2     
  31 O31            0.7901    -2.6243    -0.3063 O.2     
  32 C32            3.0654    -2.1740    -0.7422 C.3     
  33 H33           -1.2179    -1.7678    -0.1995 H       
  34 H34           -3.3294    -0.4927     0.0125 H       
  35 H35           -1.5569     3.6690     0.9396 H       
  36 H36           -1.7587     4.3802    -0.6795 H       
  37 H37           -4.5394     1.6847     0.0443 H       
  38 H38           -3.6003     5.0855     2.6815 H       
  39 H39           -3.7974     6.7817     2.1702 H       
  40 H40           -6.0017     7.0518     1.6275 H       
  41 H41           -7.8399     6.5649    -0.0420 H       
  42 H42           -6.2527     6.8549    -0.7883 H       
  43 H43           -7.8094     6.9768     3.1439 H       
  44 H44           -9.2464     5.6682     4.6551 H       
  45 H45           -7.8829     2.0616     2.8229 H       
  46 H46           -6.4511     3.3739     1.3099 H       
  47 H47           -1.2935     7.0528     2.2350 H       
  48 H48           -0.2435     5.9906     1.1529 H       
  49 H49           -1.6135     6.6906    -0.8635 H       
  50 H50           -2.6635     7.7526     0.2185 H       
  51 H51            1.4804     2.5078    -1.3653 H       
  52 H52            1.6584     2.5064     0.4165 H       
  53 H53            2.7720     0.6148    -1.4952 H       
  54 H54            2.9499     0.6134     0.2853 H       
  55 H55            3.6903    -1.2821    -0.7877 H       
  56 H56            3.4130    -2.8204     0.0637 H       
  57 H57            3.1270    -2.7095    -1.6896 H       
@<TRIPOS>BOND
   1    1    2 ar
   2    1   27 1
   3    1    6 ar
   4    2    3 ar
   5    2   29 1
   6    3    4 ar
   7    3   33 1
   8    4    5 ar
   9    4   34 1
  10    5    6 ar
  11    5    9 1
  12    7    8 1
  13    7   10 1
  14    7   35 1
  15    7   36 1
  16    8    9 2
  17    8   13 1
  18    9   37 1
  19   10   11 1
  20   10   25 1
  21   10   26 1
  22   11   12 1
  23   11   38 1
  24   11   39 1
  25   12   13 1
  26   12   14 1
  27   13   17 2
  28   14   15 1
  29   14   18 1
  30   14   40 1
  31   15   16 1
  32   15   41 1
  33   15   42 1
  34   16   17 1
  35   18   19 ar
  36   18   23 ar
  37   19   20 ar
  38   19   43 1
  39   20   21 ar
  40   20   44 1
  41   21   22 ar
  42   21   24 1
  43   22   23 ar
  44   22   45 1
  45   23   46 1
  46   25   26 1
  47   25   47 1
  48   25   48 1
  49   26   49 1
  50   26   50 1
  51   27   28 1
  52   27   51 1
  53   27   52 1
  54   28   29 1
  55   28   53 1
  56   28   54 1
  57   29   30 am
  58   30   31 2
  59   30   32 1
  60   32   55 1
  61   32   56 1
  62   32   57 1

#	End of record

