#	Name: ASD09740115
#	Creating user name:	WinNT
#	Creation time:	15. 06. 2019 21:22

#	Modifying user name:	WinNT
#	Modification time:	15. 06. 2019 21:22

#	Program:	/corina/corina34_cracker 3.40 0067  02.08.2006

@<TRIPOS>MOLECULE
ASD09740115
  28   30    0    0    0
SMALL
NO_CHARGES


@<TRIPOS>ATOM
   1 N1            -0.0144     1.2086     0.0087 N.2     
   2 O2             0.0021    -0.0041     0.0020 O.3     
   3 C3             1.2063     1.6794    -0.0004 C.2     
   4 N4             2.0453     0.6226    -0.0141 N.2     
   5 C5             1.2696    -0.4439    -0.0124 C.2     
   6 C6             1.7124    -1.8560    -0.0238 C.ar    
   7 C7             1.5963     3.1117     0.0031 C.ar    
   8 C8             0.6173     4.1028     0.0178 C.ar    
   9 C9             0.9854     5.4330     0.0210 C.ar    
  10 C10            2.3236     5.7828     0.0091 C.ar    
  11 C11            3.2997     4.8029    -0.0060 C.ar    
  12 C12            2.9427     3.4696    -0.0025 C.ar    
  13 C13            0.7851    -2.9066    -0.0207 C.ar    
  14 C14            1.2756    -4.2012    -0.0324 C.ar    
  15 N15            2.5779    -4.4127    -0.0459 N.ar    
  16 N16            3.4322    -3.4558    -0.0489 N.ar    
  17 C17            3.0708    -2.1880    -0.0440 C.ar    
  18 C18            2.7195     7.2369     0.0122 C.3     
  19 F19            2.8554     7.6805     1.3320 F       
  20 F20            3.9374     7.3900    -0.6590 F       
  21 F21            1.7332     7.9901    -0.6337 F       
  22 H22           -0.4278     3.8307     0.0264 H       
  23 H23            0.2273     6.2021     0.0324 H       
  24 H24            4.3431     5.0816    -0.0155 H       
  25 H25            3.7056     2.7053    -0.0140 H       
  26 H26           -0.2773    -2.7128    -0.0091 H       
  27 H27            0.5925    -5.0377    -0.0300 H       
  28 H28            3.8199    -1.4100    -0.0471 H       
@<TRIPOS>BOND
   1    1    2 1
   2    1    3 2
   3    2    5 1
   4    3    4 1
   5    3    7 1
   6    4    5 2
   7    5    6 1
   8    6   13 ar
   9    6   17 ar
  10    7    8 ar
  11    7   12 ar
  12    8    9 ar
  13    8   22 1
  14    9   10 ar
  15    9   23 1
  16   10   11 ar
  17   10   18 1
  18   11   12 ar
  19   11   24 1
  20   12   25 1
  21   13   14 ar
  22   13   26 1
  23   14   15 ar
  24   14   27 1
  25   15   16 ar
  26   16   17 ar
  27   17   28 1
  28   18   19 1
  29   18   20 1
  30   18   21 1

#	End of record

