#	Name: ASD03930114
#	Creating user name:	WinNT
#	Creation time:	15. 06. 2019 20:47

#	Modifying user name:	WinNT
#	Modification time:	15. 06. 2019 20:47

#	Program:	/corina/corina34_cracker 3.40 0067  02.08.2006

@<TRIPOS>MOLECULE
ASD03930114
  49   51    0    0    0
SMALL
NO_CHARGES


@<TRIPOS>ATOM
   1 C1            -0.0167     1.3779     0.0096 C.ar    
   2 C2             0.0021    -0.0041     0.0020 C.ar    
   3 C3             1.2084    -0.6771    -0.0131 C.ar    
   4 C4             2.3998     0.0283    -0.0203 C.ar    
   5 C5             2.3810     1.4107    -0.0127 C.ar    
   6 C6             1.1710     2.0835     0.0021 C.ar    
   7 C7             3.8311    -0.4638    -0.0366 C.3     
   8 C8             4.6800     0.7483     0.4020 C.3     
   9 C9             3.7985     1.9416    -0.0234 C.3     
  10 N10            5.9623     0.7696    -0.3061 N.am    
  11 C11           -1.2922    -0.7760     0.0107 C.3     
  12 N12           -1.7253    -1.0187    -1.3676 N.pl3   
  13 N13           -1.9198    -0.0434    -2.3542 N.2     
  14 C14           -2.3054    -0.6430    -3.4513 C.2     
  15 C15           -2.3688    -2.0173    -3.1990 C.2     
  16 C16           -2.0018    -2.2218    -1.9127 C.2     
  17 C17           -2.6263     0.0307    -4.7605 C.3     
  18 F18           -2.3399     1.3967    -4.6645 F       
  19 F19           -1.8536    -0.5373    -5.7790 F       
  20 F20           -3.9834    -0.1417    -5.0534 F       
  21 S21            7.3250     1.3093     0.4647 S.o2    
  22 O22            8.3917     1.1742    -0.4644 O.2     
  23 O23            6.9780     2.5445     1.0754 O.2     
  24 N24            7.6423     0.2507     1.6980 N.am    
  25 C25           -2.7689    -3.0826    -4.1869 C.3     
  26 O26           -2.7107    -4.3635    -3.5560 O.3     
  27 C27            8.5003    -0.9131     1.4619 C.3     
  28 C28            7.0651     0.4780     3.0252 C.3     
  29 H29           -0.9589     1.9056     0.0170 H       
  30 H30            1.2222    -1.7570    -0.0190 H       
  31 H31            1.1556     3.1633     0.0077 H       
  32 H32            3.9560    -1.2873     0.6665 H       
  33 H33            4.1116    -0.7780    -1.0420 H       
  34 H34            4.8323     0.7444     1.4813 H       
  35 H35            4.0702     2.2744    -1.0252 H       
  36 H36            3.9011     2.7605     0.6887 H       
  37 H37            6.0132     0.4676    -1.2265 H       
  38 H38           -1.1433    -1.7292     0.5180 H       
  39 H39           -2.0549    -0.2005     0.5353 H       
  40 H40           -1.9472    -3.1762    -1.4101 H       
  41 H41           -3.7852    -2.8940    -4.5330 H       
  42 H42           -2.0865    -3.0648    -5.0367 H       
  43 H43           -2.9562    -5.0984    -4.1345 H       
  44 H44            9.5374    -0.6475     1.6670 H       
  45 H45            8.1969    -1.7275     2.1198 H       
  46 H46            8.4049    -1.2301     0.4234 H       
  47 H47            6.0976    -0.0198     3.0907 H       
  48 H48            7.7334     0.0749     3.7860 H       
  49 H49            6.9347     1.5482     3.1862 H       
@<TRIPOS>BOND
   1    1    2 ar
   2    1    6 ar
   3    1   29 1
   4    2    3 ar
   5    2   11 1
   6    3    4 ar
   7    3   30 1
   8    4    5 ar
   9    4    7 1
  10    5    6 ar
  11    5    9 1
  12    6   31 1
  13    7    8 1
  14    7   32 1
  15    7   33 1
  16    8    9 1
  17    8   10 1
  18    8   34 1
  19    9   35 1
  20    9   36 1
  21   10   21 am
  22   10   37 1
  23   11   12 1
  24   11   38 1
  25   11   39 1
  26   12   13 1
  27   12   16 1
  28   13   14 2
  29   14   15 1
  30   14   17 1
  31   15   16 2
  32   15   25 1
  33   16   40 1
  34   17   18 1
  35   17   19 1
  36   17   20 1
  37   21   22 2
  38   21   23 2
  39   21   24 am
  40   24   27 1
  41   24   28 1
  42   25   26 1
  43   25   41 1
  44   25   42 1
  45   26   43 1
  46   27   44 1
  47   27   45 1
  48   27   46 1
  49   28   47 1
  50   28   48 1
  51   28   49 1

#	End of record

