#	Name: ASD01411608
#	Creating user name:	WinNT
#	Creation time:	15. 06. 2019 19:19

#	Modifying user name:	WinNT
#	Modification time:	15. 06. 2019 19:19

#	Program:	/corina/corina34_cracker 3.40 0067  02.08.2006

@<TRIPOS>MOLECULE
ASD01411608
  34   35    0    0    0
SMALL
NO_CHARGES


@<TRIPOS>ATOM
   1 C1             1.1665    -0.6893     0.6529 C.2     
   2 N2             0.0932    -0.0920     0.1033 N.am    
   3 C3            -3.4376    -0.4874     0.9370 C.3     
   4 C4            -1.9613    -0.6048     1.3777 C.3     
   5 C5            -1.1888    -0.7993     0.0541 C.3     
   6 O6            -2.0420    -0.2236    -0.9591 O.3     
   7 C7            -3.3823    -0.6248    -0.6007 C.3     
   8 C8            -4.4087     0.3020    -1.2555 C.3     
   9 O9            -3.9709     0.7856     1.3071 O.3     
  10 O10           -4.2909     0.2145    -2.6769 O.3     
  11 F11           -1.7862    -1.7121     2.2146 F       
  12 C12           -1.5089     0.6754     2.0828 C.3     
  13 N13            2.3438    -0.0693     0.7112 N.2     
  14 C14            2.4881     1.1572     0.2268 C.2     
  15 C15            1.3829     1.8109    -0.3558 C.2     
  16 C16            0.1926     1.1674    -0.4075 C.2     
  17 N17            3.7088     1.7879     0.2929 N.pl3   
  18 O18            1.0581    -1.8152     1.1099 O.2     
  19 N19           -3.6221    -2.0145    -0.9975 N.2     
  20 N20           -3.5652    -2.3073    -2.0812 N.1     
  21 N21           -3.5082    -2.6001    -3.1649 N.pl3   
  22 H22           -4.0314    -1.2906     1.3732 H       
  23 H23           -1.0291    -1.8599    -0.1397 H       
  24 H24           -5.4127     0.0023    -0.9549 H       
  25 H25           -4.2257     1.3286    -0.9382 H       
  26 H26           -4.8955     0.9133     1.0544 H       
  27 H27           -4.9128     0.7771    -3.1584 H       
  28 H28           -2.1256     0.8410     2.9661 H       
  29 H29           -0.4654     0.5762     2.3816 H       
  30 H30           -1.6134     1.5210     1.4029 H       
  31 H31            1.4840     2.8096    -0.7543 H       
  32 H32           -0.6686     1.6470    -0.8487 H       
  33 H33            4.4672     1.3358     0.6946 H       
  34 H34            3.8112     2.6848    -0.0621 H       
@<TRIPOS>BOND
   1    1    2 am
   2    1   13 1
   3    1   18 2
   4    2    5 1
   5    2   16 1
   6    3    4 1
   7    3    9 1
   8    3    7 1
   9    3   22 1
  10    4   11 1
  11    4   12 1
  12    4    5 1
  13    5    6 1
  14    5   23 1
  15    6    7 1
  16    7    8 1
  17    7   19 1
  18    8   10 1
  19    8   24 1
  20    8   25 1
  21    9   26 1
  22   10   27 1
  23   12   28 1
  24   12   29 1
  25   12   30 1
  26   13   14 2
  27   14   15 1
  28   14   17 1
  29   15   16 2
  30   15   31 1
  31   16   32 1
  32   17   33 1
  33   17   34 1
  34   19   20 2
  35   20   21 2

#	End of record

