#	Name: ASD05130028
#	Creating user name:	WinNT
#	Creation time:	15. 06. 2019 20:56

#	Modifying user name:	WinNT
#	Modification time:	15. 06. 2019 20:56

#	Program:	/corina/corina34_cracker 3.40 0067  02.08.2006

@<TRIPOS>MOLECULE
ASD05130028
  57   60    0    0    0
SMALL
NO_CHARGES


@<TRIPOS>ATOM
   1 N1            -0.6876     2.0333     0.1135 N.am    
   2 C2            -0.4425     0.7890     0.5697 C.2     
   3 O3             0.6466     0.5161     1.0364 O.2     
   4 N4            -1.4045    -0.1529     0.5084 N.am    
   5 C5            -1.1185    -1.4706     0.8829 C.ar    
   6 C6            -2.0979    -2.2518     1.4821 C.ar    
   7 C7            -1.8126    -3.5521     1.8500 C.ar    
   8 C8            -0.5532    -4.0761     1.6227 C.ar    
   9 C9             0.4243    -3.3006     1.0267 C.ar    
  10 C10            0.1435    -2.0016     0.6508 C.ar    
  11 C11            0.2802     3.0356     0.2583 C.ar    
  12 C12           -0.1083     4.3674     0.3702 C.ar    
  13 C13            0.8451     5.3599     0.5133 C.ar    
  14 C14            2.1864     5.0342     0.5462 C.ar    
  15 C15            2.5839     3.7023     0.4351 C.ar    
  16 C16            1.6239     2.7011     0.2957 C.ar    
  17 N17            6.2273     3.4872    -0.5659 N.am    
  18 C18            4.9183     3.8054    -0.5968 C.2     
  19 C19            4.0231     3.3514     0.4698 C.2     
  20 C20            4.5245     2.6017     1.4986 C.2     
  21 C21            5.9026     2.2806     1.5087 C.ar    
  22 C22            6.4582     1.5154     2.5415 C.ar    
  23 N23            7.7411     1.2259     2.5357 N.ar    
  24 C24            8.5553     1.6365     1.5692 C.ar    
  25 C25            8.0876     2.3990     0.5083 C.ar    
  26 C26            6.7393     2.7337     0.4652 C.ar    
  27 O27            4.4778     4.4732    -1.5155 O.2     
  28 N28            9.8993     1.2968     1.6221 N.pl3   
  29 C29           10.8095     1.7421     0.5640 C.3     
  30 C30            7.1114     3.9426    -1.6416 C.3     
  31 C31            6.6228     3.3776    -2.9769 C.3     
  32 C32            7.0987     5.4714    -1.6995 C.3     
  33 F33           -1.4194     4.6919     0.3387 F       
  34 H34           -1.5326     2.2337    -0.3185 H       
  35 H35           -2.2952     0.0825     0.2048 H       
  36 H36           -3.0814    -1.8430     1.6605 H       
  37 H37           -2.5738    -4.1602     2.3161 H       
  38 H38           -0.3325    -5.0930     1.9117 H       
  39 H39            1.4071    -3.7124     0.8512 H       
  40 H40            0.9060    -1.3978     0.1812 H       
  41 H41            0.5393     6.3921     0.5992 H       
  42 H42            2.9280     5.8114     0.6577 H       
  43 H43            1.9271     1.6678     0.2131 H       
  44 H44            3.8772     2.2598     2.2927 H       
  45 H45            5.8307     1.1619     3.3463 H       
  46 H46            8.7600     2.7270    -0.2706 H       
  47 H47           10.2363     0.7645     2.3596 H       
  48 H48           10.4749     1.3446    -0.3942 H       
  49 H49           10.8146     2.8313     0.5237 H       
  50 H50           11.8162     1.3816     0.7754 H       
  51 H51            8.1264     3.5947    -1.4495 H       
  52 H52            5.6078     3.7255    -3.1690 H       
  53 H53            7.2806     3.7165    -3.7773 H       
  54 H54            6.6319     2.2884    -2.9357 H       
  55 H55            7.4468     5.8739    -0.7482 H       
  56 H56            7.7564     5.8103    -2.4998 H       
  57 H57            6.0837     5.8193    -1.8915 H       
@<TRIPOS>BOND
   1    1    2 am
   2    1   11 1
   3    1   34 1
   4    2    3 2
   5    2    4 am
   6    4    5 1
   7    4   35 1
   8    5    6 ar
   9    5   10 ar
  10    6    7 ar
  11    6   36 1
  12    7    8 ar
  13    7   37 1
  14    8    9 ar
  15    8   38 1
  16    9   10 ar
  17    9   39 1
  18   10   40 1
  19   11   12 ar
  20   11   16 ar
  21   12   13 ar
  22   12   33 1
  23   13   14 ar
  24   13   41 1
  25   14   15 ar
  26   14   42 1
  27   15   16 ar
  28   15   19 1
  29   16   43 1
  30   17   18 am
  31   17   26 1
  32   17   30 1
  33   18   19 1
  34   18   27 2
  35   19   20 2
  36   20   21 1
  37   20   44 1
  38   21   22 ar
  39   21   26 ar
  40   22   23 ar
  41   22   45 1
  42   23   24 ar
  43   24   25 ar
  44   24   28 1
  45   25   26 ar
  46   25   46 1
  47   28   29 1
  48   28   47 1
  49   29   48 1
  50   29   49 1
  51   29   50 1
  52   30   31 1
  53   30   32 1
  54   30   51 1
  55   31   52 1
  56   31   53 1
  57   31   54 1
  58   32   55 1
  59   32   56 1
  60   32   57 1

#	End of record

