#	Name: ASD03091296
#	Creating user name:	WinNT
#	Creation time:	15. 06. 2019 20:30

#	Modifying user name:	WinNT
#	Modification time:	15. 06. 2019 20:30

#	Program:	/corina/corina34_cracker 3.40 0067  02.08.2006

@<TRIPOS>MOLECULE
ASD03091296
  47   51    0    0    0
SMALL
NO_CHARGES


@<TRIPOS>ATOM
   1 N1            -0.1086     1.2808    -0.0305 N.2     
   2 C2            -0.0082    -0.0248    -0.0047 C.2     
   3 N3             1.1950    -0.6808     0.0356 N.am    
   4 C4             2.3545     0.0171     0.0510 C.2     
   5 C5             2.2641     1.4847     0.0225 C.ar    
   6 C6             3.4007     2.2896     0.0354 C.ar    
   7 C7             3.2578     3.6669     0.0072 C.ar    
   8 C8             1.9886     4.2447    -0.0333 C.ar    
   9 C9             0.8655     3.4690    -0.0464 C.ar    
  10 C10            0.9799     2.0751    -0.0190 C.ar    
  11 O11            3.4317    -0.5487     0.0875 O.2     
  12 S12           -2.8800    -0.1830     0.0920 S.3     
  13 C13           -1.2439    -0.8245    -0.0191 C.2     
  14 N14           -1.3053    -2.1252    -0.1167 N.2     
  15 C15           -2.5092    -2.6415    -0.1110 C.2     
  16 C16           -3.5182    -1.7671    -0.0057 C.2     
  17 C17            1.2258    -2.1453     0.0627 C.3     
  18 N18            7.0906     5.4059    -0.7780 N.3     
  19 C19            6.8470     4.5465     0.3905 C.3     
  20 C20            5.6134     3.6836     0.1750 C.3     
  21 N21            4.3921     4.4829     0.0198 N.3     
  22 C22            4.4625     5.3057    -1.1959 C.3     
  23 C23            4.9867     6.6954    -0.8666 C.3     
  24 C24            6.4726     6.7234    -0.5704 C.3     
  25 C25            6.7774     4.8340    -2.0700 C.3     
  26 C26            5.2889     4.5792    -2.2414 C.3     
  27 H27            4.3839     1.8441     0.0674 H       
  28 H28            1.8935     5.3203    -0.0542 H       
  29 H29           -0.1102     3.9310    -0.0775 H       
  30 H30           -2.6776    -3.7056    -0.1868 H       
  31 H31           -4.5676    -2.0215     0.0140 H       
  32 H32            1.1541    -2.5290    -0.9550 H       
  33 H33            2.1603    -2.4808     0.5125 H       
  34 H34            0.3860    -2.5155     0.6507 H       
  35 H35            7.7121     3.9027     0.5494 H       
  36 H36            6.6987     5.1714     1.2712 H       
  37 H37            5.7568     3.0803    -0.7214 H       
  38 H38            5.4938     3.0187     1.0304 H       
  39 H39            3.4522     5.4099    -1.5914 H       
  40 H40            4.7864     7.3538    -1.7119 H       
  41 H41            4.4498     7.0744     0.0030 H       
  42 H42            6.6233     7.0279     0.4653 H       
  43 H43            6.9527     7.4491    -1.2269 H       
  44 H44            7.1110     5.5186    -2.8498 H       
  45 H45            7.3122     3.8904    -2.1779 H       
  46 H46            5.1010     3.5086    -2.1603 H       
  47 H47            4.9834     4.9169    -3.2317 H       
@<TRIPOS>BOND
   1    1    2 2
   2    1   10 1
   3    2    3 1
   4    2   13 1
   5    3    4 am
   6    3   17 1
   7    4    5 1
   8    4   11 2
   9    5    6 ar
  10    5   10 ar
  11    6    7 ar
  12    6   27 1
  13    7    8 ar
  14    7   21 1
  15    8    9 ar
  16    8   28 1
  17    9   10 ar
  18    9   29 1
  19   12   13 1
  20   12   16 1
  21   13   14 2
  22   14   15 1
  23   15   16 2
  24   15   30 1
  25   16   31 1
  26   17   32 1
  27   17   33 1
  28   17   34 1
  29   18   19 1
  30   18   24 1
  31   18   25 1
  32   19   20 1
  33   19   35 1
  34   19   36 1
  35   20   21 1
  36   20   37 1
  37   20   38 1
  38   21   22 1
  39   22   23 1
  40   22   26 1
  41   22   39 1
  42   23   24 1
  43   23   40 1
  44   23   41 1
  45   24   42 1
  46   24   43 1
  47   25   26 1
  48   25   44 1
  49   25   45 1
  50   26   46 1
  51   26   47 1

#	End of record

