#	Name: ASD01901185
#	Creating user name:	WinNT
#	Creation time:	15. 06. 2019 19:53

#	Modifying user name:	WinNT
#	Modification time:	15. 06. 2019 19:53

#	Program:	/corina/corina34_cracker 3.40 0067  02.08.2006

@<TRIPOS>MOLECULE
ASD01901185
  51   54    0    0    0
SMALL
NO_CHARGES


@<TRIPOS>ATOM
   1 C1            -0.0367     1.3768    -0.1256 C.ar    
   2 C2            -0.0204    -0.0020    -0.1493 C.ar    
   3 C3             1.1841    -0.6828    -0.1736 C.ar    
   4 C4             2.3802     0.0131    -0.1739 C.ar    
   5 C5             2.3796     1.3920    -0.1500 C.ar    
   6 C6             1.1671     2.0865    -0.1262 C.ar    
   7 C7             1.1584     3.5182    -0.1022 C.1     
   8 C8             1.1512     4.6920    -0.0825 C.1     
   9 C9             1.1424     6.1238    -0.0585 C.ar    
  10 C10            2.3476     6.8319    -0.0592 C.ar    
  11 C11            2.3353     8.2116    -0.0365 C.ar    
  12 C12            1.1254     8.8979    -0.0125 C.ar    
  13 C13           -0.0761     8.1964    -0.0118 C.ar    
  14 C14           -0.0715     6.8168    -0.0402 C.ar    
  15 N15            1.1168    10.3001     0.0115 N.am    
  16 C16            1.1008    10.9816    -1.1462 C.2     
  17 N17            0.8535    12.3010    -1.1823 N.am    
  18 C18            0.4690    13.0279     0.0291 C.3     
  19 C19            1.2156    12.4476     1.2324 C.3     
  20 C20            1.1190    10.9428     1.1937 C.2     
  21 O21            1.3158    10.3898    -2.1858 O.2     
  22 O22            1.0472    10.3124     2.2268 O.2     
  23 C23            0.8310    14.5058    -0.1311 C.3     
  24 C24           -1.0161    12.8958     0.2482 C.ar    
  25 C25            0.9705    13.0232    -2.4515 C.3     
  26 C26           -1.8075    12.2402    -0.6834 C.ar    
  27 C27           -3.1683    12.1424    -0.4409 C.ar    
  28 C28           -3.6888    12.6984     0.7146 C.ar    
  29 N29           -2.9050    13.3154     1.5784 N.ar    
  30 C30           -1.6049    13.4213     1.3820 C.ar    
  31 F31           -1.2487     8.8669     0.0116 F       
  32 F32            3.4997     8.8968    -0.0371 F       
  33 Cl33          -5.3919    12.5833     1.0309 Cl      
  34 H34           -0.9776     1.9069    -0.1111 H       
  35 H35           -0.9500    -0.5519    -0.1485 H       
  36 H36            1.1907    -1.7627    -0.1921 H       
  37 H37            3.3164    -0.5250    -0.1926 H       
  38 H38            3.3139     1.9339    -0.1495 H       
  39 H39            3.2873     6.2998    -0.0771 H       
  40 H40           -1.0046     6.2729    -0.0441 H       
  41 H41            2.2621    12.7500     1.1921 H       
  42 H42            0.7643    12.8163     2.1535 H       
  43 H43            1.9052    14.6017    -0.2892 H       
  44 H44            0.2993    14.9193    -0.9881 H       
  45 H45            0.5464    15.0494     0.7698 H       
  46 H46            1.2635    12.3289    -3.2390 H       
  47 H47            0.0103    13.4737    -2.7030 H       
  48 H48            1.7246    13.8045    -2.3568 H       
  49 H49           -1.3734    11.8162    -1.5768 H       
  50 H50           -3.8145    11.6392    -1.1449 H       
  51 H51           -0.9944    13.9292     2.1139 H       
@<TRIPOS>BOND
   1    1    2 ar
   2    1    6 ar
   3    1   34 1
   4    2    3 ar
   5    2   35 1
   6    3    4 ar
   7    3   36 1
   8    4    5 ar
   9    4   37 1
  10    5    6 ar
  11    5   38 1
  12    6    7 1
  13    7    8 3
  14    8    9 1
  15    9   10 ar
  16    9   14 ar
  17   10   11 ar
  18   10   39 1
  19   11   12 ar
  20   11   32 1
  21   12   13 ar
  22   12   15 1
  23   13   14 ar
  24   13   31 1
  25   14   40 1
  26   15   16 am
  27   15   20 am
  28   16   17 am
  29   16   21 2
  30   17   25 1
  31   17   18 1
  32   18   19 1
  33   18   23 1
  34   18   24 1
  35   19   20 1
  36   19   41 1
  37   19   42 1
  38   20   22 2
  39   23   43 1
  40   23   44 1
  41   23   45 1
  42   24   26 ar
  43   24   30 ar
  44   25   46 1
  45   25   47 1
  46   25   48 1
  47   26   27 ar
  48   26   49 1
  49   27   28 ar
  50   27   50 1
  51   28   29 ar
  52   28   33 1
  53   29   30 ar
  54   30   51 1

#	End of record

