#	Name: ASD01880217
#	Creating user name:	WinNT
#	Creation time:	15. 06. 2019 19:40

#	Modifying user name:	WinNT
#	Modification time:	15. 06. 2019 19:40

#	Program:	/corina/corina34_cracker 3.40 0067  02.08.2006

@<TRIPOS>MOLECULE
ASD01880217
  55   58    0    0    0
SMALL
NO_CHARGES


@<TRIPOS>ATOM
   1 C1            -0.0184     1.5028     0.0103 C.3     
   2 C2             0.0021    -0.0041     0.0020 C.ar    
   3 C3             0.0229    -0.7006     1.1962 C.ar    
   4 C4             0.0416    -2.0819     1.1913 C.ar    
   5 C5             0.0396    -2.7702    -0.0132 C.ar    
   6 C6             0.0187    -2.0690    -1.2101 C.ar    
   7 C7            -0.0057    -0.6878    -1.1997 C.ar    
   8 O8             0.0585    -4.1290    -0.0207 O.3     
   9 C9             0.0551    -4.7709    -1.2974 C.3     
  10 N10            1.3560     2.0099    -0.0001 N.am    
  11 C11            2.1482     2.3128    -1.2036 C.3     
  12 C12            3.4900     2.8026    -0.6383 C.3     
  13 O13            3.3259     2.7293     0.8026 O.3     
  14 C14            2.0962     2.2795     1.0849 C.2     
  15 O15            1.6919     2.1217     2.2198 O.2     
  16 C16            0.0781    -6.2886    -1.1053 C.3     
  17 C17           -0.0512    -6.9769    -2.4656 C.3     
  18 C18           -0.0282    -8.4946    -2.2735 C.3     
  19 C19            1.2915    -8.9056    -1.6173 C.3     
  20 C20            1.4207    -8.2174    -0.2570 C.3     
  21 C21            1.3977    -6.6997    -0.4491 C.3     
  22 C22            4.6230     1.8895    -1.0985 C.3     
  23 C23            5.9540     2.4318    -0.5681 C.3     
  24 O24            6.1274     3.7787    -1.0133 O.3     
  25 C25            5.1236     4.6834    -0.5484 C.3     
  26 C26            3.7561     4.2398    -1.0777 C.3     
  27 H27           -0.5455     1.8639    -0.8728 H       
  28 H28           -0.5286     1.8543     0.9071 H       
  29 H29            0.0248    -0.1643     2.1337 H       
  30 H30            0.0582    -2.6255     2.1244 H       
  31 H31            0.0171    -2.6025    -2.1491 H       
  32 H32           -0.0220    -0.1414    -2.1312 H       
  33 H33           -0.8443    -4.4875    -1.8442 H       
  34 H34            0.9354    -4.4626    -1.8614 H       
  35 H35            2.2903     1.4150    -1.8052 H       
  36 H36            1.6699     3.0971    -1.7902 H       
  37 H37           -0.7535    -6.5867    -0.4668 H       
  38 H38           -0.9913    -6.6840    -2.9331 H       
  39 H39            0.7804    -6.6788    -3.1041 H       
  40 H40           -0.8598    -8.7927    -1.6350 H       
  41 H41           -0.1203    -8.9849    -3.2426 H       
  42 H42            1.3079    -9.9869    -1.4805 H       
  43 H43            2.1231    -8.6076    -2.2558 H       
  44 H44            0.5891    -8.5154     0.3815 H       
  45 H45            2.3609    -8.5102     0.2104 H       
  46 H46            2.2293    -6.4016    -1.0876 H       
  47 H47            1.4898    -6.2093     0.5200 H       
  48 H48            4.4597     0.8835    -0.7120 H       
  49 H49            4.6490     1.8622    -2.1879 H       
  50 H50            5.9487     2.4066     0.5216 H       
  51 H51            6.7724     1.8168    -0.9425 H       
  52 H52            5.1095     4.6823     0.5416 H       
  53 H53            5.3445     5.6882    -0.9085 H       
  54 H54            3.7518     4.2945    -2.1663 H       
  55 H55            2.9810     4.8928    -0.6764 H       
@<TRIPOS>BOND
   1    1    2 1
   2    1   10 1
   3    1   27 1
   4    1   28 1
   5    2    3 ar
   6    2    7 ar
   7    3    4 ar
   8    3   29 1
   9    4    5 ar
  10    4   30 1
  11    5    6 ar
  12    5    8 1
  13    6    7 ar
  14    6   31 1
  15    7   32 1
  16    8    9 1
  17    9   16 1
  18    9   33 1
  19    9   34 1
  20   10   11 1
  21   10   14 am
  22   11   12 1
  23   11   35 1
  24   11   36 1
  25   12   13 1
  26   12   22 1
  27   12   26 1
  28   13   14 1
  29   14   15 2
  30   16   17 1
  31   16   21 1
  32   16   37 1
  33   17   18 1
  34   17   38 1
  35   17   39 1
  36   18   19 1
  37   18   40 1
  38   18   41 1
  39   19   20 1
  40   19   42 1
  41   19   43 1
  42   20   21 1
  43   20   44 1
  44   20   45 1
  45   21   46 1
  46   21   47 1
  47   22   23 1
  48   22   48 1
  49   22   49 1
  50   23   24 1
  51   23   50 1
  52   23   51 1
  53   24   25 1
  54   25   26 1
  55   25   52 1
  56   25   53 1
  57   26   54 1
  58   26   55 1

#	End of record

