#	Name: ASD01840461
#	Creating user name:	WinNT
#	Creation time:	15. 06. 2019 19:37

#	Modifying user name:	WinNT
#	Modification time:	15. 06. 2019 19:37

#	Program:	/corina/corina34_cracker 3.40 0067  02.08.2006

@<TRIPOS>MOLECULE
ASD01840461
  51   54    0    0    0
SMALL
NO_CHARGES


@<TRIPOS>ATOM
   1 C1            -0.3149     1.0863     0.0077 C.ar    
   2 C2            -0.2845    -0.2281    -0.4035 C.ar    
   3 N3             0.7976    -0.9618    -0.2076 N.ar    
   4 N4             1.8498    -0.5028     0.3601 N.ar    
   5 C5             0.8365     1.6126     0.6366 C.ar    
   6 C6             1.0910     2.9396     1.1660 C.2     
   7 C7             1.9334     0.7556     0.7982 C.ar    
   8 S8             3.2493     1.6057     1.5959 S.3     
   9 C9             2.3251     3.0908     1.7075 C.2     
  10 C10           -1.5373     1.9398    -0.2120 C.3     
  11 C11           -1.4891    -0.8318    -1.0785 C.3     
  12 N12            0.1544     3.9634     1.1217 N.pl3   
  13 C13            2.8202     4.3304     2.3044 C.2     
  14 O14            2.1077     5.3171     2.3378 O.2     
  15 N15            4.0653     4.3807     2.8178 N.am    
  16 C16            4.5614     5.6227     3.4159 C.3     
  17 C17            4.1520     5.7030     4.9010 C.3     
  18 C18            5.4828     5.7567     5.6817 C.3     
  19 N19            6.4676     6.2915     4.7064 N.3     
  20 C20            6.1051     5.6345     3.4242 C.3     
  21 C21            7.7753     5.9663     5.0845 C.ar    
  22 C22            8.6050     5.2865     4.2048 C.ar    
  23 C23            9.8961     4.9664     4.5806 C.ar    
  24 C24           10.3637     5.3222     5.8321 C.ar    
  25 C25            9.5423     6.0000     6.7143 C.ar    
  26 C26            8.2492     6.3295     6.3433 C.ar    
  27 O27            7.4421     7.0010     7.2079 O.3     
  28 C28            7.9952     7.3408     8.4809 C.3     
  29 H29           -2.1502     1.9356     0.6894 H       
  30 H30           -1.2314     2.9611    -0.4386 H       
  31 H31           -2.1145     1.5399    -1.0457 H       
  32 H32           -1.4147    -0.6828    -2.1557 H       
  33 H33           -1.5304    -1.8992    -0.8614 H       
  34 H34           -2.3934    -0.3501    -0.7067 H       
  35 H35           -0.7841     3.7568     0.9892 H       
  36 H36            0.4384     4.8853     1.2233 H       
  37 H37            4.6330     3.5946     2.7913 H       
  38 H38            4.1776     6.4846     2.8702 H       
  39 H39            3.5687     6.6053     5.0846 H       
  40 H40            3.5819     4.8184     5.1849 H       
  41 H41            5.3944     6.4251     6.5381 H       
  42 H42            5.7735     4.7577     6.0065 H       
  43 H43            6.4933     4.6164     3.3957 H       
  44 H44            6.4854     6.2110     2.5809 H       
  45 H45            8.2422     5.0071     3.2267 H       
  46 H46           10.5411     4.4368     3.8951 H       
  47 H47           11.3730     5.0698     6.1217 H       
  48 H48            9.9107     6.2764     7.6912 H       
  49 H49            8.2910     6.4309     9.0031 H       
  50 H50            8.8678     7.9785     8.3394 H       
  51 H51            7.2488     7.8722     9.0713 H       
@<TRIPOS>BOND
   1    1    2 ar
   2    1    5 ar
   3    1   10 1
   4    2   11 1
   5    2    3 ar
   6    3    4 ar
   7    4    7 ar
   8    5    7 ar
   9    5    6 1
  10    6    9 2
  11    6   12 1
  12    7    8 1
  13    8    9 1
  14    9   13 1
  15   10   29 1
  16   10   30 1
  17   10   31 1
  18   11   32 1
  19   11   33 1
  20   11   34 1
  21   12   35 1
  22   12   36 1
  23   13   14 2
  24   13   15 am
  25   15   16 1
  26   15   37 1
  27   16   17 1
  28   16   20 1
  29   16   38 1
  30   17   18 1
  31   17   39 1
  32   17   40 1
  33   18   19 1
  34   18   41 1
  35   18   42 1
  36   19   20 1
  37   19   21 1
  38   20   43 1
  39   20   44 1
  40   21   22 ar
  41   21   26 ar
  42   22   23 ar
  43   22   45 1
  44   23   24 ar
  45   23   46 1
  46   24   25 ar
  47   24   47 1
  48   25   26 ar
  49   25   48 1
  50   26   27 1
  51   27   28 1
  52   28   49 1
  53   28   50 1
  54   28   51 1

#	End of record

