#	Name: ASD01810599
#	Creating user name:	WinNT
#	Creation time:	15. 06. 2019 19:24

#	Modifying user name:	WinNT
#	Modification time:	15. 06. 2019 19:24

#	Program:	/corina/corina34_cracker 3.40 0067  02.08.2006

@<TRIPOS>MOLECULE
ASD01810599
  58   63    0    0    0
SMALL
NO_CHARGES


@<TRIPOS>ATOM
   1 N1            -0.0153     1.2784     0.0091 N.pl3   
   2 N2             0.0021    -0.0041     0.0020 N.2     
   3 C3             1.0992    -0.7157    -0.0123 C.2     
   4 C4             2.4158    -0.0317    -0.0211 C.2     
   5 C5             2.3886     1.4421    -0.0134 C.ar    
   6 C6             3.5453     2.2104    -0.0206 C.ar    
   7 C7             3.4472     3.5871    -0.0130 C.ar    
   8 C8             2.2029     4.1987     0.0022 C.ar    
   9 C9             1.0468     3.4466     0.0100 C.ar    
  10 C10            1.1227     2.0587     0.0024 C.ar    
  11 N11            2.7672    -2.2289    -0.0356 N.am    
  12 N12            3.3339    -0.9519    -0.0344 N.2     
  13 C13            1.4195    -2.1449    -0.0225 C.2     
  14 O14            0.6279    -3.0727    -0.0198 O.2     
  15 C15           -1.3160     1.9525     0.0188 C.3     
  16 C16           -2.5263     1.2438    -2.0578 C.ar    
  17 C17           -1.7686     2.1913    -1.3987 C.ar    
  18 C18           -1.4282     3.3666    -2.0549 C.ar    
  19 C19           -1.8642     3.5467    -3.3554 C.ar    
  20 C20           -2.6244     2.5499    -3.9582 C.ar    
  21 N21           -2.9287     1.4427    -3.2985 N.ar    
  22 N22           -3.0690     2.7178    -5.2645 N.3     
  23 C23           -3.8507     1.5545    -5.7085 C.3     
  24 C24           -4.3697     1.8064    -7.1266 C.3     
  25 O25           -3.2641     2.0781    -7.9922 O.3     
  26 C26           -2.4812     3.2053    -7.5897 C.3     
  27 C27           -1.9432     2.9676    -6.1762 C.3     
  28 C28            3.4932    -3.4254    -0.0489 C.ar    
  29 C29            4.4346    -3.6574    -1.0438 C.ar    
  30 C30            5.1495    -4.8387    -1.0538 C.ar    
  31 C31            4.9289    -5.7907    -0.0749 C.ar    
  32 C32            3.9923    -5.5631     0.9165 C.ar    
  33 C33            3.2782    -4.3809     0.9358 C.ar    
  34 C34            4.6750    -2.6212    -2.1113 C.3     
  35 H35            4.5146     1.7342    -0.0318 H       
  36 H36            4.3430     4.1903    -0.0186 H       
  37 H37            2.1382     5.2768     0.0084 H       
  38 H38            0.0838     3.9354     0.0224 H       
  39 H39           -2.0457     1.3267     0.5326 H       
  40 H40           -1.2267     2.9070     0.5374 H       
  41 H41           -2.7895     0.3263    -1.5527 H       
  42 H42           -0.8367     4.1233    -1.5610 H       
  43 H43           -1.6179     4.4491    -3.8952 H       
  44 H44           -3.2173     0.6675    -5.7049 H       
  45 H45           -4.6935     1.4034    -5.0340 H       
  46 H46           -4.9015     0.9237    -7.4817 H       
  47 H47           -5.0457     2.6614    -7.1203 H       
  48 H48           -1.6473     3.3343    -8.2797 H       
  49 H49           -3.1023     4.1010    -7.5969 H       
  50 H50           -1.3935     3.8480    -5.8432 H       
  51 H51           -1.2792     2.1031    -6.1801 H       
  52 H52            5.8815    -5.0197    -1.8270 H       
  53 H53            5.4891    -6.7139    -0.0852 H       
  54 H54            3.8219    -6.3087     1.6789 H       
  55 H55            2.5500    -4.2018     1.7130 H       
  56 H56            5.4579    -1.9372    -1.7839 H       
  57 H57            4.9850    -3.1140    -3.0328 H       
  58 H58            3.7558    -2.0630    -2.2893 H       
@<TRIPOS>BOND
   1    1    2 1
   2    1   10 1
   3    1   15 1
   4    2    3 2
   5    3    4 1
   6    3   13 1
   7    4    5 1
   8    4   12 2
   9    5    6 ar
  10    5   10 ar
  11    6    7 ar
  12    6   35 1
  13    7    8 ar
  14    7   36 1
  15    8    9 ar
  16    8   37 1
  17    9   10 ar
  18    9   38 1
  19   11   12 1
  20   11   13 am
  21   11   28 1
  22   13   14 2
  23   15   17 1
  24   15   39 1
  25   15   40 1
  26   16   17 ar
  27   16   21 ar
  28   16   41 1
  29   17   18 ar
  30   18   19 ar
  31   18   42 1
  32   19   20 ar
  33   19   43 1
  34   20   21 ar
  35   20   22 1
  36   22   23 1
  37   22   27 1
  38   23   24 1
  39   23   44 1
  40   23   45 1
  41   24   25 1
  42   24   46 1
  43   24   47 1
  44   25   26 1
  45   26   27 1
  46   26   48 1
  47   26   49 1
  48   27   50 1
  49   27   51 1
  50   28   29 ar
  51   28   33 ar
  52   29   30 ar
  53   29   34 1
  54   30   31 ar
  55   30   52 1
  56   31   32 ar
  57   31   53 1
  58   32   33 ar
  59   32   54 1
  60   33   55 1
  61   34   56 1
  62   34   57 1
  63   34   58 1

#	End of record

