#	Name: ASD01910602
#	Creating user name:	WinNT
#	Creation time:	15. 06. 2019 19:56

#	Modifying user name:	WinNT
#	Modification time:	15. 06. 2019 19:56

#	Program:	/corina/corina34_cracker 3.40 0067  02.08.2006

@<TRIPOS>MOLECULE
ASD01910602
  42   45    0    0    0
SMALL
NO_CHARGES


@<TRIPOS>ATOM
   1 C1             2.2742    -0.0501     1.7802 C.ar    
   2 N2             2.2401    -1.3022     1.3679 N.ar    
   3 C3             3.1451    -1.7926     0.5435 C.ar    
   4 C4             4.1770    -1.0051     0.0740 C.ar    
   5 C5             4.2526     0.3300     0.4854 C.ar    
   6 C6             3.2709     0.8077     1.3602 C.ar    
   7 C7             5.3409     1.2121     0.0089 C.2     
   8 N8             5.5209     2.4820     0.3224 N.2     
   9 C9             6.6242     2.8633    -0.3397 C.2     
  10 N10            7.0561     1.8358    -1.0095 N.2     
  11 O11            6.3399     0.8753    -0.8210 O.3     
  12 C12            7.2495     4.2342    -0.3119 C.3     
  13 C13            8.6801     4.1324     0.2221 C.3     
  14 C14            9.3047     5.5283     0.2816 C.3     
  15 C15            9.3567     6.1207    -1.1302 C.3     
  16 N16            8.0056     6.0883    -1.7066 N.am    
  17 C17            7.2781     4.8120    -1.7304 C.3     
  18 C18            7.4442     7.2080    -2.2041 C.2     
  19 C19            8.1335     8.5033    -2.0631 C.2     
  20 O20            6.3690     7.1497    -2.7693 O.2     
  21 C21            8.8295     9.0485    -0.8875 C.2     
  22 N22            9.2690    10.2145    -1.2584 N.2     
  23 O23            8.9795    10.4706    -2.4014 O.3     
  24 C24            8.2895     9.4965    -2.9990 C.2     
  25 C25            7.7746     9.4922    -4.4153 C.3     
  26 H26            1.5095     0.3104     2.4522 H       
  27 H27            3.0781    -2.8244     0.2317 H       
  28 H28            4.9151    -1.4135    -0.6004 H       
  29 H29            3.2925     1.8320     1.7017 H       
  30 H30            6.6650     4.8876     0.3358 H       
  31 H31            8.6645     3.6986     1.2219 H       
  32 H32            9.2704     3.4983    -0.4394 H       
  33 H33            8.7011     6.1699     0.9234 H       
  34 H34           10.3153     5.4578     0.6839 H       
  35 H35            9.7085     7.1512    -1.0813 H       
  36 H36           10.0324     5.5307    -1.7494 H       
  37 H37            7.7843     4.1153    -2.3986 H       
  38 H38            6.2585     4.9790    -2.0776 H       
  39 H39            8.9498     8.5800     0.0781 H       
  40 H40            8.0506    10.4260    -4.9051 H       
  41 H41            8.2115     8.6542    -4.9582 H       
  42 H42            6.6891     9.3934    -4.4069 H       
@<TRIPOS>BOND
   1    1    2 ar
   2    1    6 ar
   3    1   26 1
   4    2    3 ar
   5    3    4 ar
   6    3   27 1
   7    4    5 ar
   8    4   28 1
   9    5    6 ar
  10    5    7 1
  11    6   29 1
  12    7    8 2
  13    7   11 1
  14    8    9 1
  15    9   10 2
  16    9   12 1
  17   10   11 1
  18   12   13 1
  19   12   17 1
  20   12   30 1
  21   13   14 1
  22   13   31 1
  23   13   32 1
  24   14   15 1
  25   14   33 1
  26   14   34 1
  27   15   16 1
  28   15   35 1
  29   15   36 1
  30   16   17 1
  31   16   18 am
  32   17   37 1
  33   17   38 1
  34   18   19 1
  35   18   20 2
  36   19   21 1
  37   19   24 2
  38   21   22 2
  39   21   39 1
  40   22   23 1
  41   23   24 1
  42   24   25 1
  43   25   40 1
  44   25   41 1
  45   25   42 1

#	End of record

