#	Name: ASD01200413
#	Creating user name:	WinNT
#	Creation time:	15. 06. 2019 19:09

#	Modifying user name:	WinNT
#	Modification time:	15. 06. 2019 19:09

#	Program:	/corina/corina34_cracker 3.40 0067  02.08.2006

@<TRIPOS>MOLECULE
ASD01200413
  25   26    0    0    0
SMALL
NO_CHARGES


@<TRIPOS>ATOM
   1 N1             2.2307     1.3387     0.5646 N.ar    
   2 C2             2.2415     0.0208     0.5645 C.ar    
   3 C3             1.2056    -0.6960    -0.0206 C.ar    
   4 C4             0.1516    -0.0017    -0.6089 C.ar    
   5 C5             0.1813     1.3832    -0.5852 C.ar    
   6 C6             1.2474     2.0255     0.0160 C.ar    
   7 N7             1.2212    -2.0949    -0.0195 N.am    
   8 C8             0.0667    -2.7816     0.0900 C.2     
   9 O9            -0.9771    -2.1889     0.2859 O.2     
  10 O10           -0.5771    -6.3421    -0.1029 O.3     
  11 C11           -1.0055    -5.0865     0.0588 C.2     
  12 C12            0.0691    -4.2504    -0.0275 C.2     
  13 C13            1.2301    -5.1213    -0.2627 C.2     
  14 C14            0.7509    -6.3742    -0.2947 C.2     
  15 C15           -2.4330    -4.6657     0.2959 C.3     
  16 H16            3.0643    -0.5070     1.0237 H       
  17 H17           -0.6686    -0.5297    -1.0724 H       
  18 H18           -0.6190     1.9544    -1.0320 H       
  19 H19            1.2753     3.1050     0.0376 H       
  20 H20            2.0630    -2.5706    -0.0975 H       
  21 H21            2.2586    -4.8151    -0.3848 H       
  22 H22            1.3398    -7.2660    -0.4501 H       
  23 H23           -3.0731    -5.5477     0.3170 H       
  24 H24           -2.5040    -4.1425     1.2495 H       
  25 H25           -2.7546    -4.0025    -0.5072 H       
@<TRIPOS>BOND
   1    1    2 ar
   2    1    6 ar
   3    2    3 ar
   4    2   16 1
   5    3    4 ar
   6    3    7 1
   7    4    5 ar
   8    4   17 1
   9    5    6 ar
  10    5   18 1
  11    6   19 1
  12    7    8 am
  13    7   20 1
  14    8    9 2
  15    8   12 1
  16   10   11 1
  17   10   14 1
  18   11   12 2
  19   11   15 1
  20   12   13 1
  21   13   14 2
  22   13   21 1
  23   14   22 1
  24   15   23 1
  25   15   24 1
  26   15   25 1

#	End of record

