#	Name: ASD04910551
#	Creating user name:	WinNT
#	Creation time:	15. 06. 2019 20:56

#	Modifying user name:	WinNT
#	Modification time:	15. 06. 2019 20:56

#	Program:	/corina/corina34_cracker 3.40 0067  02.08.2006

@<TRIPOS>MOLECULE
ASD04910551
  61   64    0    0    0
SMALL
NO_CHARGES


@<TRIPOS>ATOM
   1 C1             0.0373     1.3372    -0.1999 C.ar    
   2 C2             0.0894    -0.0427    -0.2862 C.ar    
   3 C3            -1.0695    -0.7702    -0.4622 C.ar    
   4 C4            -2.2965    -0.1111    -0.5526 C.ar    
   5 C5            -2.3421     1.2811    -0.4643 C.ar    
   6 C6            -1.1764     1.9963    -0.2831 C.ar    
   7 C7            -3.5424    -0.8843    -0.7417 C.2     
   8 N8            -4.7257    -0.2449    -0.8287 N.am    
   9 O9            -3.4996    -2.0966    -0.8187 O.2     
  10 C10           -5.9602    -1.0111    -1.0160 C.3     
  11 C11           -7.1505    -0.0520    -1.0822 C.3     
  12 C12           -8.4205    -0.8402    -1.2749 C.2     
  13 O13           -9.5989    -0.2034    -1.3616 O.3     
  14 O14           -8.3779    -2.0452    -1.3514 O.2     
  15 C15            1.3073     2.1254    -0.0082 C.3     
  16 C16            1.7595     2.6990    -1.3526 C.3     
  17 N17            1.0646     3.2212     0.9334 N.pl3   
  18 C18            3.0290     3.5477    -1.1635 C.3     
  19 C19            2.1343     1.5541    -2.3164 C.3     
  20 C20            3.3517     2.1020    -3.1017 C.3     
  21 C21            4.1309     2.8890    -2.0189 C.3     
  22 C22            1.1847     3.0004     2.3097 C.ar    
  23 C23            1.0796     4.0547     3.2131 C.ar    
  24 N24            1.1982     3.8070     4.5068 N.ar    
  25 C25            1.4138     2.5776     4.9448 C.ar    
  26 N26            1.5194     1.5513     4.1169 N.ar    
  27 C27            1.4066     1.7201     2.8100 C.ar    
  28 N28            1.5337     2.3572     6.3184 N.pl3   
  29 C29            1.4510     3.2962     7.2982 C.2     
  30 C30            1.7514     1.1511     6.9354 C.2     
  31 C31            1.7996     1.3935     8.2586 C.2     
  32 N32            1.6135     2.7081     8.4515 N.2     
  33 C33            2.0203     0.3649     9.3376 C.3     
  34 F34            3.3908     0.2393     9.5888 F       
  35 F35            1.3670     0.7683    10.5071 F       
  36 F36            1.5080    -0.8676     8.9187 F       
  37 H37            1.0395    -0.5514    -0.2160 H       
  38 H38           -1.0273    -1.8472    -0.5301 H       
  39 H39           -3.2884     1.7971    -0.5336 H       
  40 H40           -1.2103     3.0736    -0.2146 H       
  41 H41           -4.7598     0.7225    -0.7673 H       
  42 H42           -5.8985    -1.5782    -1.9448 H       
  43 H43           -6.0925    -1.6971    -0.1794 H       
  44 H44           -7.2123     0.5151    -0.1535 H       
  45 H45           -7.0182     0.6341    -1.9188 H       
  46 H46          -10.3860    -0.7514    -1.4850 H       
  47 H47            2.0844     1.4716     0.3877 H       
  48 H48            0.9649     3.3070    -1.7851 H       
  49 H49            0.8206     4.0998     0.6026 H       
  50 H50            2.8507     4.5673    -1.5049 H       
  51 H51            3.3230     3.5509    -0.1139 H       
  52 H52            2.4116     0.6604    -1.7575 H       
  53 H53            1.3079     1.3402    -2.9942 H       
  54 H54            3.9565     1.2852    -3.4958 H       
  55 H55            3.0275     2.7656    -3.9033 H       
  56 H56            4.7617     3.6492    -2.4796 H       
  57 H57            4.7307     2.2108    -1.4119 H       
  58 H58            0.9040     5.0609     2.8622 H       
  59 H59            1.4934     0.8778     2.1397 H       
  60 H60            1.2799     4.3518     7.1472 H       
  61 H61            1.8626     0.1917     6.4523 H       
@<TRIPOS>BOND
   1    1    2 ar
   2    1   15 1
   3    1    6 ar
   4    2    3 ar
   5    2   37 1
   6    3    4 ar
   7    3   38 1
   8    4    5 ar
   9    4    7 1
  10    5    6 ar
  11    5   39 1
  12    6   40 1
  13    7    8 am
  14    7    9 2
  15    8   10 1
  16    8   41 1
  17   10   11 1
  18   10   42 1
  19   10   43 1
  20   11   12 1
  21   11   44 1
  22   11   45 1
  23   12   13 1
  24   12   14 2
  25   13   46 1
  26   15   16 1
  27   15   17 1
  28   15   47 1
  29   16   18 1
  30   16   19 1
  31   16   48 1
  32   17   22 1
  33   17   49 1
  34   18   21 1
  35   18   50 1
  36   18   51 1
  37   19   20 1
  38   19   52 1
  39   19   53 1
  40   20   21 1
  41   20   54 1
  42   20   55 1
  43   21   56 1
  44   21   57 1
  45   22   23 ar
  46   22   27 ar
  47   23   24 ar
  48   23   58 1
  49   24   25 ar
  50   25   26 ar
  51   25   28 1
  52   26   27 ar
  53   27   59 1
  54   28   29 1
  55   28   30 1
  56   29   32 2
  57   29   60 1
  58   30   31 2
  59   30   61 1
  60   31   32 1
  61   31   33 1
  62   33   34 1
  63   33   35 1
  64   33   36 1

#	End of record

