#	Name: ASD01200138
#	Creating user name:	WinNT
#	Creation time:	15. 06. 2019 19:08

#	Modifying user name:	WinNT
#	Modification time:	15. 06. 2019 19:08

#	Program:	/corina/corina34_cracker 3.40 0067  02.08.2006

@<TRIPOS>MOLECULE
ASD01200138
  47   50    0    0    0
SMALL
NO_CHARGES


@<TRIPOS>ATOM
   1 C1            -0.0194     1.3725    -0.0075 C.ar    
   2 C2             0.0019    -0.0107    -0.0149 C.ar    
   3 C3             1.2098    -0.6887    -0.0244 C.ar    
   4 C4             2.3919     0.0143    -0.0267 C.ar    
   5 C5             2.3820     1.4114    -0.0193 C.ar    
   6 C6             1.1608     2.0874    -0.0096 C.ar    
   7 C7             3.8416    -0.4018    -0.0361 C.3     
   8 N8             4.6250     0.8389    -0.0335 N.am    
   9 C9             3.7797     1.8839    -0.0238 C.2     
  10 O10            4.1183     3.0513    -0.0190 O.2     
  11 S11            4.2188    -1.3803     1.4441 S.3     
  12 C12            6.0875     0.9245    -0.0403 C.3     
  13 C13            6.5819     0.9613    -1.4634 C.ar    
  14 C14            3.6296    -3.0372     0.9990 C.3     
  15 C15            3.8762    -3.9830     2.1460 C.2     
  16 N16            3.5169    -5.2777     2.0411 N.am    
  17 O17            4.3981    -3.5791     3.1635 O.2     
  18 C18            3.8413    -6.1757     3.0569 C.ar    
  19 N19            4.5853    -5.7733     4.0748 N.ar    
  20 C20            4.9147    -6.5905     5.0568 C.ar    
  21 C21            4.4916    -7.9048     5.0563 C.ar    
  22 C22            3.7092    -8.3665     4.0064 C.ar    
  23 C23            3.3755    -7.4842     2.9942 C.ar    
  24 C24            6.7387     2.1732    -2.1096 C.ar    
  25 C25            7.1922     2.2070    -3.4150 C.ar    
  26 C26            7.4892     1.0288    -4.0741 C.ar    
  27 C27            7.3333    -0.1832    -3.4277 C.ar    
  28 C28            6.8839    -0.2167    -2.1209 C.ar    
  29 H29           -0.9644     1.8954    -0.0046 H       
  30 H30           -0.9258    -0.5636    -0.0128 H       
  31 H31            1.2233    -1.7686    -0.0298 H       
  32 H32            1.1398     3.1672    -0.0042 H       
  33 H33            4.0594    -0.9804    -0.9338 H       
  34 H34            6.4008     1.8315     0.4767 H       
  35 H35            6.5048     0.0546     0.4669 H       
  36 H36            2.5618    -2.9975     0.7840 H       
  37 H37            4.1650    -3.3885     0.1169 H       
  38 H38            3.0325    -5.5847     1.2588 H       
  39 H39            5.5235    -6.2268     5.8714 H       
  40 H40            4.7667    -8.5669     5.8640 H       
  41 H41            3.3657    -9.3902     3.9823 H       
  42 H42            2.7681    -7.8097     2.1626 H       
  43 H43            6.5066     3.0937    -1.5946 H       
  44 H44            7.3140     3.1538    -3.9200 H       
  45 H45            7.8428     1.0551    -5.0943 H       
  46 H46            7.5650    -1.1037    -3.9428 H       
  47 H47            6.7621    -1.1635    -1.6158 H       
@<TRIPOS>BOND
   1    1    2 ar
   2    1    6 ar
   3    1   29 1
   4    2    3 ar
   5    2   30 1
   6    3    4 ar
   7    3   31 1
   8    4    5 ar
   9    4    7 1
  10    5    6 ar
  11    5    9 1
  12    6   32 1
  13    7    8 1
  14    7   11 1
  15    7   33 1
  16    8    9 am
  17    8   12 1
  18    9   10 2
  19   11   14 1
  20   12   13 1
  21   12   34 1
  22   12   35 1
  23   13   24 ar
  24   13   28 ar
  25   14   15 1
  26   14   36 1
  27   14   37 1
  28   15   16 am
  29   15   17 2
  30   16   18 1
  31   16   38 1
  32   18   19 ar
  33   18   23 ar
  34   19   20 ar
  35   20   21 ar
  36   20   39 1
  37   21   22 ar
  38   21   40 1
  39   22   23 ar
  40   22   41 1
  41   23   42 1
  42   24   25 ar
  43   24   43 1
  44   25   26 ar
  45   25   44 1
  46   26   27 ar
  47   26   45 1
  48   27   28 ar
  49   27   46 1
  50   28   47 1

#	End of record

