#	Name: ASD01815103
#	Creating user name:	WinNT
#	Creation time:	15. 06. 2019 19:33

#	Modifying user name:	WinNT
#	Modification time:	15. 06. 2019 19:33

#	Program:	/corina/corina34_cracker 3.40 0067  02.08.2006

@<TRIPOS>MOLECULE
ASD01815103
  60   64    0    0    0
SMALL
NO_CHARGES


@<TRIPOS>ATOM
   1 C1            -0.0814     1.4042    -0.0298 C.2     
   2 C2            -0.0578     0.0030    -0.0325 C.2     
   3 C3             1.1410    -0.6483    -0.0300 C.2     
   4 C4             2.3317     0.0970    -0.0248 C.2     
   5 N5             2.2791     1.4645    -0.0219 N.am    
   6 C6             1.0753     2.1045    -0.0248 C.2     
   7 C7             3.5649    -0.5699    -0.0221 C.2     
   8 C8             4.7276     0.1446    -0.0166 C.2     
   9 C9             4.6697     1.5506    -0.0142 C.2     
  10 C10            3.4142     2.1921    -0.0166 C.2     
  11 O11            3.3547     3.4100    -0.0149 O.2     
  12 C12            5.9029     2.3407    -0.0078 C.2     
  13 O13            5.8406     3.6882    -0.0055 O.3     
  14 O14            6.9833     1.7818    -0.0046 O.2     
  15 C15            3.6066    -2.0764    -0.0248 C.3     
  16 N16            3.7452    -2.5599    -1.4050 N.3     
  17 C17            2.8202    -1.8581    -2.3038 C.3     
  18 C18            3.5523    -4.0140    -1.4750 C.3     
  19 C19            3.8440    -4.5014    -2.8959 C.3     
  20 C20            2.9005    -3.7962    -3.8758 C.3     
  21 C21            3.0916    -2.2811    -3.7491 C.3     
  22 C22            3.2344    -4.2223    -5.2821 C.ar    
  23 C23            2.5081    -5.1685    -5.9697 C.ar    
  24 C24            1.3003    -5.8487    -5.3752 C.3     
  25 N25            1.2219    -5.5478    -3.9416 N.am    
  26 C26            1.4544    -4.1532    -3.5312 C.3     
  27 C27            4.3284    -3.6218    -5.8930 C.ar    
  28 C28            4.6950    -3.9714    -7.1762 C.ar    
  29 C29            3.9683    -4.9259    -7.8628 C.ar    
  30 C30            2.8791    -5.5213    -7.2599 C.ar    
  31 C31            0.9478    -6.5086    -3.0372 C.2     
  32 O32            0.9865    -6.2546    -1.8519 O.2     
  33 C33            0.5931    -7.8987    -3.4986 C.3     
  34 H34           -1.0267     1.9265    -0.0363 H       
  35 H35           -0.9813    -0.5569    -0.0362 H       
  36 H36            1.1742    -1.7278    -0.0317 H       
  37 H37            1.0452     3.1840    -0.0225 H       
  38 H38            5.6809    -0.3631    -0.0138 H       
  39 H39            6.6810     4.1665    -0.0013 H       
  40 H40            4.4562    -2.4174     0.5667 H       
  41 H41            2.6842    -2.4661     0.4059 H       
  42 H42            1.7937    -2.1109    -2.0381 H       
  43 H43            2.9657    -0.7822    -2.2069 H       
  44 H44            4.2306    -4.5043    -0.7766 H       
  45 H45            2.5228    -4.2569    -1.2120 H       
  46 H46            4.8771    -4.2701    -3.1552 H       
  47 H47            3.6868    -5.5786    -2.9507 H       
  48 H48            2.3965    -1.7696    -4.4149 H       
  49 H49            4.1148    -2.0194    -4.0190 H       
  50 H50            0.3995    -5.4878    -5.8716 H       
  51 H51            1.3847    -6.9263    -5.5158 H       
  52 H52            1.2959    -4.0535    -2.4574 H       
  53 H53            0.7737    -3.4925    -4.0680 H       
  54 H54            4.8965    -2.8746    -5.3588 H       
  55 H55            5.5473    -3.5002    -7.6432 H       
  56 H56            4.2516    -5.2043    -8.8672 H       
  57 H57            2.3110    -6.2671    -7.7960 H       
  58 H58            0.5150    -7.9118    -4.5857 H       
  59 H59            1.3689    -8.5957    -3.1817 H       
  60 H60           -0.3611    -8.1940    -3.0622 H       
@<TRIPOS>BOND
   1    1    2 1
   2    1    6 2
   3    1   34 1
   4    2    3 2
   5    2   35 1
   6    3    4 1
   7    3   36 1
   8    4    5 1
   9    4    7 2
  10    5    6 1
  11    5   10 am
  12    6   37 1
  13    7    8 1
  14    7   15 1
  15    8    9 2
  16    8   38 1
  17    9   10 1
  18    9   12 1
  19   10   11 2
  20   12   13 1
  21   12   14 2
  22   13   39 1
  23   15   16 1
  24   15   40 1
  25   15   41 1
  26   16   18 1
  27   16   17 1
  28   17   21 1
  29   17   42 1
  30   17   43 1
  31   18   19 1
  32   18   44 1
  33   18   45 1
  34   19   20 1
  35   19   46 1
  36   19   47 1
  37   20   21 1
  38   20   22 1
  39   20   26 1
  40   21   48 1
  41   21   49 1
  42   22   23 ar
  43   22   27 ar
  44   23   24 1
  45   23   30 ar
  46   24   25 1
  47   24   50 1
  48   24   51 1
  49   25   26 1
  50   25   31 am
  51   26   52 1
  52   26   53 1
  53   27   28 ar
  54   27   54 1
  55   28   29 ar
  56   28   55 1
  57   29   30 ar
  58   29   56 1
  59   30   57 1
  60   31   32 2
  61   31   33 1
  62   33   58 1
  63   33   59 1
  64   33   60 1

#	End of record

