#	Name: ASD03430722
#	Creating user name:	WinNT
#	Creation time:	15. 06. 2019 20:41

#	Modifying user name:	WinNT
#	Modification time:	15. 06. 2019 20:41

#	Program:	/corina/corina34_cracker 3.40 0067  02.08.2006

@<TRIPOS>MOLECULE
ASD03430722
  47   52    0    0    0
SMALL
NO_CHARGES


@<TRIPOS>ATOM
   1 C1            -0.0167     1.3821     0.0096 C.ar    
   2 C2             0.0021    -0.0041     0.0020 C.ar    
   3 C3             1.2026    -0.6820    -0.0146 C.ar    
   4 C4             2.4084     0.0128    -0.0144 C.ar    
   5 C5             2.3859     1.4038    -0.0116 C.ar    
   6 C6             1.1815     2.0868     0.0020 C.ar    
   7 O7             3.4712    -0.8418    -0.0028 O.3     
   8 C8             1.5511    -2.1459    -0.0470 C.3     
   9 C9             3.0371    -2.1463    -0.4320 C.3     
  10 C10            0.4304    -3.8629     1.0102 C.ar    
  11 C11            1.3150    -2.8193     1.2723 C.ar    
  12 C12            0.7192    -2.9084    -1.0378 C.2     
  13 N13            0.1023    -3.8884    -0.3479 N.am    
  14 O14            0.6211    -2.6857    -2.2260 O.2     
  15 C15            1.7770    -2.5966     2.5497 C.ar    
  16 C16            1.3650    -3.4142     3.5886 C.ar    
  17 C17            0.4879    -4.4545     3.3391 C.ar    
  18 C18            0.0214    -4.6804     2.0604 C.ar    
  19 C19           -0.8067    -4.8660    -0.9514 C.3     
  20 O20            1.1869     3.4484     0.0124 O.3     
  21 C21           -2.2161    -4.3342    -0.9094 C.ar    
  22 O22           -1.2112     2.0357     0.0189 O.3     
  23 C23           -1.1862     3.4155     0.4008 C.3     
  24 C24           -0.0357     4.1000    -0.3485 C.3     
  25 Br25           2.0000    -3.1098     5.3436 Br      
  26 C26           -2.7282    -3.6694    -2.0073 C.ar    
  27 C27           -4.0262    -3.1839    -1.9584 C.ar    
  28 C28           -4.7633    -3.3865    -0.8019 C.ar    
  29 C29           -4.1840    -4.0609     0.2565 C.ar    
  30 N30           -2.9484    -4.5134     0.1727 N.ar    
  31 H31           -0.9269    -0.5549     0.0095 H       
  32 H32            3.3147     1.9549    -0.0194 H       
  33 H33            3.1577    -2.2594    -1.5094 H       
  34 H34            3.5752    -2.9288     0.1031 H       
  35 H35            2.4617    -1.7838     2.7418 H       
  36 H36            0.1672    -5.0931     4.1489 H       
  37 H37           -0.6633    -5.4945     1.8734 H       
  38 H38           -0.5154    -5.0420    -1.9870 H       
  39 H39           -0.7548    -5.8020    -0.3953 H       
  40 H40           -2.1313     3.8881     0.1336 H       
  41 H41           -1.0249     3.4965     1.4758 H       
  42 H42            0.0113     5.1522    -0.0676 H       
  43 H43           -0.1936     4.0127    -1.4234 H       
  44 H44           -2.1249    -3.5293    -2.8921 H       
  45 H45           -4.4527    -2.6602    -2.8012 H       
  46 H46           -5.7772    -3.0218    -0.7288 H       
  47 H47           -4.7514    -4.2225     1.1611 H       
@<TRIPOS>BOND
   1    1    2 ar
   2    1    6 ar
   3    1   22 1
   4    2    3 ar
   5    2   31 1
   6    3    4 ar
   7    3    8 1
   8    4    5 ar
   9    4    7 1
  10    5    6 ar
  11    5   32 1
  12    6   20 1
  13    7    9 1
  14    8    9 1
  15    8   11 1
  16    8   12 1
  17    9   33 1
  18    9   34 1
  19   10   11 ar
  20   10   13 1
  21   10   18 ar
  22   11   15 ar
  23   12   13 am
  24   12   14 2
  25   13   19 1
  26   15   16 ar
  27   15   35 1
  28   16   17 ar
  29   16   25 1
  30   17   18 ar
  31   17   36 1
  32   18   37 1
  33   19   21 1
  34   19   38 1
  35   19   39 1
  36   20   24 1
  37   21   26 ar
  38   21   30 ar
  39   22   23 1
  40   23   24 1
  41   23   40 1
  42   23   41 1
  43   24   42 1
  44   24   43 1
  45   26   27 ar
  46   26   44 1
  47   27   28 ar
  48   27   45 1
  49   28   29 ar
  50   28   46 1
  51   29   30 ar
  52   29   47 1

#	End of record

