#	Name: ASD02500310
#	Creating user name:	WinNT
#	Creation time:	15. 06. 2019 20:22

#	Modifying user name:	WinNT
#	Modification time:	15. 06. 2019 20:22

#	Program:	/corina/corina34_cracker 3.40 0067  02.08.2006

@<TRIPOS>MOLECULE
ASD02500310
  69   73    0    0    0
SMALL
NO_CHARGES


@<TRIPOS>ATOM
   1 N1            -3.4701     5.3749    -3.0802 N.ar    
   2 C2            -4.3807     5.8908    -3.8696 C.ar    
   3 C3            -5.7323     5.8862    -3.5311 C.ar    
   4 C4            -6.1373     5.3335    -2.3497 C.ar    
   5 C5            -5.1567     4.7800    -1.5047 C.ar    
   6 C6            -5.4971     4.1950    -0.2748 C.ar    
   7 C7            -4.5192     3.6707     0.5146 C.ar    
   8 C8            -3.1841     3.7074     0.1181 C.ar    
   9 C9            -2.8187     4.2668    -1.0676 C.ar    
  10 C10           -3.7994     4.8185    -1.9101 C.ar    
  11 S11           -1.1228     4.3003    -1.5443 S.o2    
  12 O12           -0.8458     5.6342    -1.9484 O.2     
  13 O13           -0.4035     3.6348    -0.5152 O.2     
  14 N14           -0.9760     3.3609    -2.9001 N.am    
  15 C15           -1.2518     1.9996    -2.8359 C.ar    
  16 C16           -2.0496     1.4058    -3.8101 C.ar    
  17 C17           -2.3244     0.0588    -3.7494 C.ar    
  18 C18           -1.8014    -0.7134    -2.7080 C.ar    
  19 C19           -1.0007    -0.1142    -1.7313 C.ar    
  20 C20           -0.7249     1.2322    -1.8008 C.ar    
  21 C21           -2.0945    -2.1576    -2.6396 C.2     
  22 O22           -3.1735    -2.5773    -3.0111 O.2     
  23 N23           -1.1661    -3.0119    -2.1655 N.am    
  24 C24            0.1068    -2.5245    -1.5747 C.3     
  25 C25            0.0079    -2.5357    -0.1194 C.3     
  26 N26           -0.3984    -3.8877     0.3432 N.am    
  27 C27           -1.7806    -4.2090     0.2659 C.3     
  28 C28           -2.1952    -4.9978    -1.0191 C.3     
  29 C29           -1.3640    -4.4186    -2.2031 C.3     
  30 C30            0.5039    -4.7707     0.8148 C.2     
  31 C31            1.9742    -4.4434     0.7677 C.3     
  32 C32            2.3019    -3.4113     1.8486 C.3     
  33 O33            0.1327    -5.8287     1.2772 O.2     
  34 C34            2.7757    -5.6964     1.0101 C.ar    
  35 C35            3.6600    -6.1480     0.0484 C.ar    
  36 C36            4.3952    -7.2974     0.2707 C.ar    
  37 C37            4.2465    -7.9948     1.4549 C.ar    
  38 C38            3.3628    -7.5426     2.4170 C.ar    
  39 C39            2.6308    -6.3909     2.1965 C.ar    
  40 H40           -4.0750     6.3314    -4.8070 H       
  41 H41           -6.4590     6.3197    -4.2022 H       
  42 H42           -7.1807     5.3216    -2.0713 H       
  43 H43           -6.5285     4.1612     0.0437 H       
  44 H44           -4.7820     3.2208     1.4606 H       
  45 H45           -2.4269     3.2854     0.7622 H       
  46 H46           -0.6976     3.7604    -3.7391 H       
  47 H47           -2.4536     2.0030    -4.6142 H       
  48 H48           -2.9436    -0.4012    -4.5052 H       
  49 H49           -0.5955    -0.7081    -0.9254 H       
  50 H50           -0.1024     1.6948    -1.0492 H       
  51 H51            0.9242    -3.1739    -1.8878 H       
  52 H52            0.3000    -1.5080    -1.9173 H       
  53 H53            0.9758    -2.2804     0.3120 H       
  54 H54           -0.7350    -1.8047     0.1995 H       
  55 H55           -2.0451    -4.8068     1.1381 H       
  56 H56           -2.3528    -3.2820     0.3013 H       
  57 H57           -1.9733    -6.0573    -0.8916 H       
  58 H58           -3.2594    -4.8612    -1.2109 H       
  59 H59           -1.8759    -4.6702    -3.1320 H       
  60 H60           -0.3882    -4.9043    -2.2090 H       
  61 H61            2.2245    -4.0358    -0.2117 H       
  62 H62            2.1516    -3.8555     2.8326 H       
  63 H63            3.3403    -3.0960     1.7471 H       
  64 H64            1.6471    -2.5472     1.7362 H       
  65 H65            3.7763    -5.6031    -0.8768 H       
  66 H66            5.0856    -7.6506    -0.4810 H       
  67 H67            4.8203    -8.8931     1.6283 H       
  68 H68            3.2463    -8.0877     3.3421 H       
  69 H69            1.9432    -6.0356     2.9497 H       
@<TRIPOS>BOND
   1    1    2 ar
   2    1   10 ar
   3    2    3 ar
   4    2   40 1
   5    3    4 ar
   6    3   41 1
   7    4    5 ar
   8    4   42 1
   9    5    6 ar
  10    5   10 ar
  11    6    7 ar
  12    6   43 1
  13    7    8 ar
  14    7   44 1
  15    8    9 ar
  16    8   45 1
  17    9   10 ar
  18    9   11 1
  19   11   12 2
  20   11   13 2
  21   11   14 am
  22   14   15 1
  23   14   46 1
  24   15   16 ar
  25   15   20 ar
  26   16   17 ar
  27   16   47 1
  28   17   18 ar
  29   17   48 1
  30   18   19 ar
  31   18   21 1
  32   19   20 ar
  33   19   49 1
  34   20   50 1
  35   21   22 2
  36   21   23 am
  37   23   24 1
  38   23   29 1
  39   24   25 1
  40   24   51 1
  41   24   52 1
  42   25   26 1
  43   25   53 1
  44   25   54 1
  45   26   27 1
  46   26   30 am
  47   27   28 1
  48   27   55 1
  49   27   56 1
  50   28   29 1
  51   28   57 1
  52   28   58 1
  53   29   59 1
  54   29   60 1
  55   30   31 1
  56   30   33 2
  57   31   32 1
  58   31   34 1
  59   31   61 1
  60   32   62 1
  61   32   63 1
  62   32   64 1
  63   34   35 ar
  64   34   39 ar
  65   35   36 ar
  66   35   65 1
  67   36   37 ar
  68   36   66 1
  69   37   38 ar
  70   37   67 1
  71   38   39 ar
  72   38   68 1
  73   39   69 1

#	End of record

