#	Name: ASD02038754
#	Creating user name:	WinNT
#	Creation time:	15. 06. 2019 20:17

#	Modifying user name:	WinNT
#	Modification time:	15. 06. 2019 20:17

#	Program:	/corina/corina34_cracker 3.40 0067  02.08.2006

@<TRIPOS>MOLECULE
ASD02038754
  50   52    0    0    0
SMALL
NO_CHARGES


@<TRIPOS>ATOM
   1 C1            -1.2779    -0.8486     0.4651 C.2     
   2 C2            -0.0609    -0.0346     0.3014 C.2     
   3 N3             1.1366    -0.6350     0.1536 N.am    
   4 C4             1.2421    -2.0929     0.2509 C.3     
   5 C5             1.2143    -2.6920    -1.1317 C.ar    
   6 C6             2.3329     0.1704    -0.1044 C.3     
   7 O7            -0.1369     1.1793     0.2998 O.2     
   8 N8            -1.3381    -2.2045     0.4968 N.2     
   9 C9            -2.5782    -2.5672     0.6552 C.2     
  10 N10           -3.3575    -1.4570     0.7307 N.pl3   
  11 C11           -2.5488    -0.3772     0.6183 C.2     
  12 C12            2.3976    -3.0137    -1.7684 C.ar    
  13 C13            0.0048    -2.9243    -1.7595 C.ar    
  14 C14           -0.0241    -3.4739    -3.0282 C.ar    
  15 C15            1.1562    -3.7921    -3.6712 C.ar    
  16 C16            2.3713    -3.5651    -3.0409 C.ar    
  17 O17            3.5340    -3.8768    -3.6717 O.3     
  18 C18            2.1204     1.0144    -1.3649 C.3     
  19 C19            3.3429     1.9099    -1.5820 C.3     
  20 O20            3.5430     2.7288    -0.4281 O.3     
  21 C21            3.7936     1.9946     0.7720 C.3     
  22 C22            2.5892     1.1025     1.0838 C.3     
  23 C23            3.4311    -4.4354    -4.9830 C.3     
  24 F24            2.7774    -3.5299    -5.8256 F       
  25 F25            4.7124    -4.6946    -5.4813 F       
  26 F26            2.7028    -5.6285    -4.9259 F       
  27 C27           -4.8115    -1.4327     0.9083 C.3     
  28 C28           -5.1424    -1.3979     2.4017 C.3     
  29 F29           -4.5831    -0.2517     2.9766 F       
  30 F30           -6.5309    -1.3747     2.5713 F       
  31 F31           -4.6157    -2.5355     3.0227 F       
  32 H32            2.1781    -2.3575     0.7428 H       
  33 H33            0.4045    -2.4798     0.8314 H       
  34 H34            3.1911    -0.4866    -0.2459 H       
  35 H35           -2.9307    -3.5862     0.7163 H       
  36 H36           -2.8526     0.6590     0.6385 H       
  37 H37            3.3421    -2.8358    -1.2758 H       
  38 H38           -0.9192    -2.6765    -1.2582 H       
  39 H39           -0.9702    -3.6548    -3.5164 H       
  40 H40            1.1332    -4.2213    -4.6620 H       
  41 H41            1.9922     0.3580    -2.2255 H       
  42 H42            1.2320     1.6341    -1.2427 H       
  43 H43            4.2240     1.2891    -1.7444 H       
  44 H44            3.1790     2.5437    -2.4536 H       
  45 H45            4.6806     1.3749     0.6404 H       
  46 H46            3.9544     2.6894     1.5963 H       
  47 H47            1.7103     1.7240     1.2554 H       
  48 H48            2.7963     0.5090     1.9743 H       
  49 H49           -5.2219    -0.5464     0.4245 H       
  50 H50           -5.2473    -2.3258     0.4603 H       
@<TRIPOS>BOND
   1    1    2 1
   2    1    8 1
   3    1   11 2
   4    2    3 am
   5    2    7 2
   6    3    4 1
   7    3    6 1
   8    4    5 1
   9    4   32 1
  10    4   33 1
  11    5   12 ar
  12    5   13 ar
  13    6   18 1
  14    6   22 1
  15    6   34 1
  16    8    9 2
  17    9   10 1
  18    9   35 1
  19   10   11 1
  20   10   27 1
  21   11   36 1
  22   12   16 ar
  23   12   37 1
  24   13   14 ar
  25   13   38 1
  26   14   15 ar
  27   14   39 1
  28   15   16 ar
  29   15   40 1
  30   16   17 1
  31   17   23 1
  32   18   19 1
  33   18   41 1
  34   18   42 1
  35   19   20 1
  36   19   43 1
  37   19   44 1
  38   20   21 1
  39   21   22 1
  40   21   45 1
  41   21   46 1
  42   22   47 1
  43   22   48 1
  44   23   24 1
  45   23   25 1
  46   23   26 1
  47   27   28 1
  48   27   49 1
  49   27   50 1
  50   28   29 1
  51   28   30 1
  52   28   31 1

#	End of record

