#	Name: ASD03731319
#	Creating user name:	WinNT
#	Creation time:	15. 06. 2019 20:45

#	Modifying user name:	WinNT
#	Modification time:	15. 06. 2019 20:45

#	Program:	/corina/corina34_cracker 3.40 0067  02.08.2006

@<TRIPOS>MOLECULE
ASD03731319
  62   68    0    0    0
SMALL
NO_CHARGES


@<TRIPOS>ATOM
   1 C1            -0.0190     1.4721     0.0326 C.2     
   2 C2            -0.0013    -0.0060     0.0368 C.ar    
   3 C3             1.2141    -0.6924     0.0447 C.ar    
   4 C4             1.2236    -2.0719     0.0486 C.ar    
   5 C5             0.0319    -2.7750     0.0441 C.ar    
   6 C6            -1.1763    -2.1007     0.0358 C.ar    
   7 C7            -1.1999    -0.7214     0.0386 C.ar    
   8 O8             1.0264     2.0925     0.0361 O.2     
   9 N9            -1.1942     2.1319     0.0193 N.am    
  10 C10            0.0500    -4.2819     0.0478 C.3     
  11 O11           -2.1556    -1.4827     6.2921 O.3     
  12 C12           -2.4043    -1.5563     7.7083 C.3     
  13 O13           -2.9074    -2.8918     7.8986 O.3     
  14 C14           -2.3679    -3.6335     6.8868 C.ar    
  15 C15           -1.9067    -2.7665     5.8989 C.ar    
  16 C16           -2.2298    -5.0006     6.7268 C.ar    
  17 C17           -1.6332    -5.5198     5.5817 C.ar    
  18 C18           -1.1840    -4.6440     4.5980 C.ar    
  19 C19           -1.3146    -3.2802     4.7574 C.ar    
  20 O20           -1.3871    -6.8166     5.2384 O.3     
  21 C21           -0.6228    -5.4948     3.4902 C.3     
  22 C22           -1.1546    -6.8964     3.8189 C.3     
  23 N23            0.0487    -4.7668     1.4302 N.am    
  24 C24           -1.0702    -5.0298     2.1344 C.2     
  25 C25            0.8762    -5.4608     3.4477 C.ar    
  26 C26            1.8610    -5.7666     4.3603 C.ar    
  27 C27            3.1935    -5.6300     4.0137 C.ar    
  28 C28            3.5336    -5.1850     2.7492 C.ar    
  29 C29            2.5508    -4.8764     1.8320 C.ar    
  30 C30            1.2070    -5.0114     2.1720 C.ar    
  31 O31           -2.2142    -4.9140     1.7483 O.2     
  32 C32           -1.2149     3.5261     0.1326 C.ar    
  33 C33           -2.1866     4.2637    -0.5316 C.ar    
  34 C34           -2.2051     5.6397    -0.4177 C.ar    
  35 C35           -1.2565     6.2840     0.3574 C.ar    
  36 C36           -0.2874     5.5516     1.0200 C.ar    
  37 C37           -0.2676     4.1746     0.9138 C.ar    
  38 C38           -3.2195     3.5629    -1.3761 C.3     
  39 F39           -4.0823     4.5097    -1.9386 F       
  40 F40           -2.5815     2.8492    -2.3962 F       
  41 F41           -3.9535     2.6794    -0.5774 F       
  42 Cl42          -1.2822     8.0141     0.4980 Cl      
  43 H43            2.1450    -0.1448     0.0475 H       
  44 H44            2.1633    -2.6043     0.0547 H       
  45 H45           -2.1029    -2.6555     0.0316 H       
  46 H46           -2.1437    -0.1963     0.0373 H       
  47 H47           -2.0256     1.6400    -0.0688 H       
  48 H48           -0.8329    -4.6571    -0.4697 H       
  49 H49            0.9470    -4.6357    -0.4605 H       
  50 H50           -1.4798    -1.4120     8.2675 H       
  51 H51           -3.1512    -0.8198     8.0048 H       
  52 H52           -2.5873    -5.6695     7.4957 H       
  53 H53           -0.9546    -2.6113     3.9897 H       
  54 H54           -0.4079    -7.6570     3.5910 H       
  55 H55           -2.0843    -7.0928     3.2848 H       
  56 H56            1.5931    -6.1138     5.3472 H       
  57 H57            3.9661    -5.8707     4.7289 H       
  58 H58            4.5738    -5.0782     2.4787 H       
  59 H59            2.8243    -4.5290     0.8466 H       
  60 H60           -2.9602     6.2137    -0.9341 H       
  61 H61            0.4516     6.0568     1.6242 H       
  62 H62            0.4865     3.6031     1.4345 H       
@<TRIPOS>BOND
   1    1    2 1
   2    1    8 2
   3    1    9 am
   4    2    3 ar
   5    2    7 ar
   6    3    4 ar
   7    3   43 1
   8    4    5 ar
   9    4   44 1
  10    5    6 ar
  11    5   10 1
  12    6    7 ar
  13    6   45 1
  14    7   46 1
  15    9   32 1
  16    9   47 1
  17   10   23 1
  18   10   48 1
  19   10   49 1
  20   11   12 1
  21   11   15 1
  22   12   13 1
  23   12   50 1
  24   12   51 1
  25   13   14 1
  26   14   15 ar
  27   14   16 ar
  28   15   19 ar
  29   16   17 ar
  30   16   52 1
  31   17   18 ar
  32   17   20 1
  33   18   19 ar
  34   18   21 1
  35   19   53 1
  36   20   22 1
  37   21   22 1
  38   21   24 1
  39   21   25 1
  40   22   54 1
  41   22   55 1
  42   23   24 am
  43   23   30 1
  44   24   31 2
  45   25   26 ar
  46   25   30 ar
  47   26   27 ar
  48   26   56 1
  49   27   28 ar
  50   27   57 1
  51   28   29 ar
  52   28   58 1
  53   29   30 ar
  54   29   59 1
  55   32   33 ar
  56   32   37 ar
  57   33   34 ar
  58   33   38 1
  59   34   35 ar
  60   34   60 1
  61   35   36 ar
  62   35   42 1
  63   36   37 ar
  64   36   61 1
  65   37   62 1
  66   38   39 1
  67   38   40 1
  68   38   41 1

#	End of record

