#	Name: ASD03180040
#	Creating user name:	WinNT
#	Creation time:	15. 06. 2019 20:33

#	Modifying user name:	WinNT
#	Modification time:	15. 06. 2019 20:33

#	Program:	/corina/corina34_cracker 3.40 0067  02.08.2006

@<TRIPOS>MOLECULE
ASD03180040
  34   36    0    0    0
SMALL
NO_CHARGES


@<TRIPOS>ATOM
   1 Cl1           -2.3991    -3.3056    -1.0073 Cl      
   2 Cl2           -2.2923     1.7674     0.8856 Cl      
   3 S3            -0.9494     0.4271    -2.4940 S.3     
   4 O4             7.9598    -0.7320    -2.0098 O.3     
   5 O5             7.6908     0.3895    -4.1742 O.3     
   6 N6            -1.1180    -0.8206     0.0079 N.pl3   
   7 N7             0.9526    -0.4630    -1.1188 N.2     
   8 N8             7.1245    -0.1492    -2.9935 N.pl3   
   9 C9             2.9993    -0.0191    -2.4134 C.ar    
  10 C10            1.5311     0.0276    -2.2068 C.2     
  11 C11           -0.3394    -0.3675    -1.0456 C.2     
  12 C12            3.8226    -0.5926    -1.4456 C.ar    
  13 C13            3.5573     0.5054    -3.5783 C.ar    
  14 C14           -2.5130    -0.7597    -0.0766 C.ar    
  15 C15            5.7418    -0.1057    -2.7991 C.ar    
  16 C16            0.6956     0.5695    -3.1095 C.2     
  17 C17            5.1871    -0.6348    -1.6398 C.ar    
  18 C18            4.9224     0.4610    -3.7682 C.ar    
  19 C19           -3.2316    -1.8570    -0.5360 C.ar    
  20 C20           -3.1841     0.3961     0.3042 C.ar    
  21 C21           -4.6099    -1.7932    -0.6176 C.ar    
  22 C22           -4.5625     0.4524     0.2197 C.ar    
  23 C23           -5.2738    -0.6395    -0.2428 C.ar    
  24 H24            3.3921    -1.0032    -0.5442 H       
  25 H25            2.9210     0.9459    -4.3316 H       
  26 H26           -0.6955    -1.1799     0.8037 H       
  27 H27            0.9830     1.0152    -4.0504 H       
  28 H28            5.8253    -1.0790    -0.8903 H       
  29 H29            5.3551     0.8672    -4.6705 H       
  30 H30           -5.1690    -2.6454    -0.9748 H       
  31 H31           -5.0848     1.3503     0.5154 H       
  32 H32           -6.3509    -0.5927    -0.3077 H       
  33 H33            7.4830    -1.0720    -1.2403 H       
  34 H34            8.6538     0.3134    -4.2188 H       
@<TRIPOS>BOND
   1    1   19 1
   2    2   20 1
   3    3   11 1
   4    3   16 1
   5    4    8 1
   6    4   33 1
   7    5    8 1
   8    5   34 1
   9    6   11 1
  10    6   14 1
  11    6   26 1
  12    7   10 1
  13    7   11 2
  14    8   15 1
  15    9   10 1
  16    9   12 ar
  17    9   13 ar
  18   10   16 2
  19   12   17 ar
  20   12   24 1
  21   13   18 ar
  22   13   25 1
  23   14   19 ar
  24   14   20 ar
  25   15   17 ar
  26   15   18 ar
  27   16   27 1
  28   17   28 1
  29   18   29 1
  30   19   21 ar
  31   20   22 ar
  32   21   23 ar
  33   21   30 1
  34   22   23 ar
  35   22   31 1
  36   23   32 1

#	End of record

