#	Name: ASD01882530
#	Creating user name:	WinNT
#	Creation time:	15. 06. 2019 19:44

#	Modifying user name:	WinNT
#	Modification time:	15. 06. 2019 19:44

#	Program:	/corina/corina34_cracker 3.40 0067  02.08.2006

@<TRIPOS>MOLECULE
ASD01882530
  58   62    0    0    0
SMALL
NO_CHARGES


@<TRIPOS>ATOM
   1 C1            -0.1209     1.1276     0.6173 C.2     
   2 C2            -0.0522    -0.1749     0.0864 C.2     
   3 C3             1.1116    -0.6043    -0.4715 C.2     
   4 C4             2.2244     0.2534    -0.5103 C.2     
   5 C5             2.1440     1.4990     0.0028 C.2     
   6 N6             0.9832     1.9427     0.5647 N.pl3   
   7 N7            -0.6399     2.9896     1.5147 N.2     
   8 N8            -1.0821     1.8217     1.2044 N.2     
   9 C9             0.6092     3.1142     1.1470 C.2     
  10 C10           -1.2541    -1.0826     0.1361 C.3     
  11 F11           -1.1086    -1.9918     1.1895 F       
  12 F12           -2.4083    -0.3177     0.3365 F       
  13 F13           -1.3613    -1.7811    -1.0713 F       
  14 C14            1.2077    -1.9944    -1.0452 C.3     
  15 N15            0.9270    -1.9498    -2.4865 N.3     
  16 C16            1.2407    -3.2362    -3.1241 C.3     
  17 C17            0.8608    -3.1742    -4.6055 C.3     
  18 N18            1.5945    -2.0768    -5.2512 N.3     
  19 C19            1.2808    -0.7905    -4.6135 C.3     
  20 C20            1.6607    -0.8524    -3.1322 C.3     
  21 C21            1.3267    -2.0342    -6.6262 C.ar    
  22 C22            0.0349    -1.7946    -7.0771 C.ar    
  23 C23           -0.2261    -1.7533    -8.4354 C.ar    
  24 C24            0.7965    -1.9506    -9.3451 C.ar    
  25 C25            2.0842    -2.1899    -8.9025 C.ar    
  26 C26            2.3556    -2.2263    -7.5440 C.ar    
  27 O27            3.6235    -2.4553    -7.1082 O.3     
  28 C28            4.6285    -2.6435    -8.1065 C.3     
  29 F29           -0.9660    -1.6025    -6.1903 F       
  30 C30            1.4751     4.3336     1.3322 C.3     
  31 C31            1.3380     5.2465     0.1120 C.3     
  32 C32            2.0514     6.5993     0.1581 C.3     
  33 C33            2.5879     5.4816    -0.7384 C.3     
  34 H34            3.1491    -0.0864    -0.9530 H       
  35 H35            3.0054     2.1495    -0.0320 H       
  36 H36            2.2119    -2.3860    -0.8826 H       
  37 H37            0.4814    -2.6415    -0.5534 H       
  38 H38            2.3078    -3.4378    -3.0305 H       
  39 H39            0.6759    -4.0309    -2.6368 H       
  40 H40            1.1193    -4.1173    -5.0869 H       
  41 H41           -0.2111    -2.9996    -4.6990 H       
  42 H42            1.8456     0.0043    -5.1008 H       
  43 H43            0.2138    -0.5888    -4.7071 H       
  44 H44            1.4022     0.0907    -2.6507 H       
  45 H45            2.7326    -1.0270    -3.0386 H       
  46 H46           -1.2305    -1.5670    -8.7858 H       
  47 H47            0.5887    -1.9179   -10.4044 H       
  48 H48            2.8802    -2.3438    -9.6160 H       
  49 H49            4.3710    -3.5042    -8.7237 H       
  50 H50            4.6902    -1.7531    -8.7323 H       
  51 H51            5.5910    -2.8165    -7.6250 H       
  52 H52            1.1588     4.8716     2.2258 H       
  53 H53            2.5154     4.0272     1.4416 H       
  54 H54            0.3790     5.2006    -0.4041 H       
  55 H55            1.5619     7.4432    -0.3280 H       
  56 H56            2.6184     6.8388     1.0577 H       
  57 H57            3.5080     4.9859    -0.4287 H       
  58 H58            2.4515     5.5902    -1.8144 H       
@<TRIPOS>BOND
   1    1    2 1
   2    1    6 1
   3    1    8 2
   4    2    3 2
   5    2   10 1
   6    3    4 1
   7    3   14 1
   8    4    5 2
   9    4   34 1
  10    5    6 1
  11    5   35 1
  12    6    9 1
  13    7    8 1
  14    7    9 2
  15    9   30 1
  16   10   11 1
  17   10   12 1
  18   10   13 1
  19   14   15 1
  20   14   36 1
  21   14   37 1
  22   15   16 1
  23   15   20 1
  24   16   17 1
  25   16   38 1
  26   16   39 1
  27   17   18 1
  28   17   40 1
  29   17   41 1
  30   18   19 1
  31   18   21 1
  32   19   20 1
  33   19   42 1
  34   19   43 1
  35   20   44 1
  36   20   45 1
  37   21   22 ar
  38   21   26 ar
  39   22   23 ar
  40   22   29 1
  41   23   24 ar
  42   23   46 1
  43   24   25 ar
  44   24   47 1
  45   25   26 ar
  46   25   48 1
  47   26   27 1
  48   27   28 1
  49   28   49 1
  50   28   50 1
  51   28   51 1
  52   30   31 1
  53   30   52 1
  54   30   53 1
  55   31   32 1
  56   31   33 1
  57   31   54 1
  58   32   33 1
  59   32   55 1
  60   32   56 1
  61   33   57 1
  62   33   58 1

#	End of record

