#	Name: ASD02198108
#	Creating user name:	WinNT
#	Creation time:	15. 06. 2019 20:18

#	Modifying user name:	WinNT
#	Modification time:	15. 06. 2019 20:18

#	Program:	/corina/corina34_cracker 3.40 0067  02.08.2006

@<TRIPOS>MOLECULE
ASD02198108
  58   61    0    0    0
SMALL
NO_CHARGES


@<TRIPOS>ATOM
   1 C1            -0.1173     1.4027    -0.5039 C.2     
   2 C2             0.0051     0.0307    -0.4548 C.2     
   3 C3            -1.1047    -0.8442    -0.2235 C.1     
   4 S4             1.3931     2.1376    -0.7961 S.3     
   5 C5             2.2112     0.5845    -0.8550 C.2     
   6 C6             1.3064    -0.4282    -0.6509 C.2     
   7 C7             3.5918     0.4043    -1.0787 C.2     
   8 C8             4.4433     1.5634    -1.4093 C.ar    
   9 O9             4.0822    -0.7097    -0.9990 O.2     
  10 N10            1.6525    -1.7713    -0.6405 N.pl3   
  11 N11           -1.3013     2.0876    -0.3444 N.pl3   
  12 N12           -1.9851    -1.5383    -0.0401 N.1     
  13 C13            5.2881     2.1119    -0.4410 C.ar    
  14 C14           -1.2986     3.4782    -0.2865 C.ar    
  15 C15            6.0809     3.1932    -0.7529 C.ar    
  16 C16            6.0445     3.7429    -2.0300 C.ar    
  17 C17            5.2091     3.2058    -2.9988 C.ar    
  18 C18            4.4118     2.1152    -2.6985 C.ar    
  19 C19           -2.3501     4.1988    -0.8461 C.ar    
  20 O20            3.5941     1.5884    -3.6447 O.3     
  21 C21            3.6062     2.2099    -4.9315 C.3     
  22 C22           -0.2472     4.1454     0.3358 C.ar    
  23 C23           -0.2418     5.5204     0.3951 C.ar    
  24 C24           -1.2936     6.2470    -0.1705 C.ar    
  25 C25           -2.3503     5.5739    -0.7905 C.ar    
  26 O26            6.8290     4.8095    -2.3296 O.3     
  27 C27            7.6651     5.3134    -1.2860 C.3     
  28 C28           -1.2911     7.7212    -0.1083 C.2     
  29 O29           -0.3736     8.3052     0.4353 O.2     
  30 N30           -2.3059     8.4203    -0.6541 N.am    
  31 C31           -2.3035     9.8840    -0.5924 C.3     
  32 C32           -3.1436    10.4724    -1.7477 C.3     
  33 C33           -3.9882    11.5446    -1.0224 C.3     
  34 O34           -4.0893    11.0612     0.3497 O.3     
  35 C35           -2.9925    10.3592     0.6684 C.2     
  36 O36           -2.6115    10.1386     1.7935 O.2     
  37 H37            2.5749    -2.0355    -0.7824 H       
  38 H38            0.9720    -2.4463    -0.4914 H       
  39 H39           -2.1372     1.6008    -0.2723 H       
  40 H40            5.3188     1.6879     0.5518 H       
  41 H41            6.7331     3.6163    -0.0033 H       
  42 H42            5.1843     3.6362    -3.9891 H       
  43 H43           -3.1664     3.6781    -1.3246 H       
  44 H44            3.3069     3.2534    -4.8338 H       
  45 H45            4.6109     2.1578    -5.3507 H       
  46 H46            2.9098     1.6924    -5.5914 H       
  47 H47            0.5649     3.5835     0.7729 H       
  48 H48            0.5739     6.0375     0.8784 H       
  49 H49           -3.1643     6.1325    -1.2284 H       
  50 H50            7.0467     5.6313    -0.4466 H       
  51 H51            8.3484     4.5302    -0.9577 H       
  52 H52            8.2379     6.1630    -1.6576 H       
  53 H53           -3.0378     7.9544    -1.0878 H       
  54 H54           -1.2824    10.2631    -0.6346 H       
  55 H55           -2.5018    10.9282    -2.5016 H       
  56 H56           -3.7830     9.7088    -2.1908 H       
  57 H57           -3.4827    12.5099    -1.0496 H       
  58 H58           -4.9777    11.6192    -1.4736 H       
@<TRIPOS>BOND
   1    1    2 2
   2    1    4 1
   3    1   11 1
   4    2    3 1
   5    2    6 1
   6    3   12 3
   7    4    5 1
   8    5    6 2
   9    5    7 1
  10    6   10 1
  11    7    8 1
  12    7    9 2
  13    8   13 ar
  14    8   18 ar
  15   10   37 1
  16   10   38 1
  17   11   14 1
  18   11   39 1
  19   13   15 ar
  20   13   40 1
  21   14   22 ar
  22   14   19 ar
  23   15   16 ar
  24   15   41 1
  25   16   17 ar
  26   16   26 1
  27   17   18 ar
  28   17   42 1
  29   18   20 1
  30   19   25 ar
  31   19   43 1
  32   20   21 1
  33   21   44 1
  34   21   45 1
  35   21   46 1
  36   22   23 ar
  37   22   47 1
  38   23   24 ar
  39   23   48 1
  40   24   25 ar
  41   24   28 1
  42   25   49 1
  43   26   27 1
  44   27   50 1
  45   27   51 1
  46   27   52 1
  47   28   29 2
  48   28   30 am
  49   30   31 1
  50   30   53 1
  51   31   32 1
  52   31   35 1
  53   31   54 1
  54   32   33 1
  55   32   55 1
  56   32   56 1
  57   33   34 1
  58   33   57 1
  59   33   58 1
  60   34   35 1
  61   35   36 2

#	End of record

