#	Name: ASD07480018
#	Creating user name:	WinNT
#	Creation time:	15. 06. 2019 21:11

#	Modifying user name:	WinNT
#	Modification time:	15. 06. 2019 21:11

#	Program:	/corina/corina34_cracker 3.40 0067  02.08.2006

@<TRIPOS>MOLECULE
ASD07480018
  48   50    0    0    0
SMALL
NO_CHARGES


@<TRIPOS>ATOM
   1 C1            -0.8950     2.9392    -0.1201 C.ar    
   2 C2            -0.5705     1.6062    -0.2996 C.ar    
   3 C3            -1.5639     0.6493    -0.3291 C.ar    
   4 C4            -2.8985     1.0284    -0.1775 C.ar    
   5 C5            -3.2190     2.3747     0.0032 C.ar    
   6 C6            -2.2156     3.3210     0.0365 C.ar    
   7 C7             0.1953     3.9790    -0.0888 C.3     
   8 C8             0.9587     3.9576    -1.4146 C.3     
   9 C9            -0.4247     5.3620     0.1203 C.3     
  10 C10            1.1590     3.6732     1.0595 C.3     
  11 C11           -3.9681     0.0084    -0.2087 C.2     
  12 S12           -5.6980     0.3105    -0.0340 S.3     
  13 N13           -3.8018    -1.2736    -0.3757 N.2     
  14 N14           -4.8306    -2.0029    -0.3763 N.2     
  15 C15           -5.9854    -1.4216    -0.2116 C.2     
  16 N16           -7.2218    -2.0525    -0.1830 N.am    
  17 C17           -7.3066    -3.5057    -0.3478 C.3     
  18 C18           -8.3440    -1.3280    -0.0035 C.2     
  19 C19           -7.0128    -4.1886     0.9895 C.3     
  20 C20           -9.6675    -1.9777    -0.1071 C.ar    
  21 O21           -8.2677    -0.1402     0.2435 O.2     
  22 C22          -10.7011    -1.3721    -0.8227 C.ar    
  23 N23          -11.8804    -1.9510    -0.9150 N.ar    
  24 C24          -12.1329    -3.1129    -0.3434 C.ar    
  25 C25          -11.1613    -3.7775     0.3836 C.ar    
  26 C26           -9.9036    -3.2143     0.5064 C.ar    
  27 H27            0.4626     1.3142    -0.4171 H       
  28 H28           -1.3093    -0.3908    -0.4697 H       
  29 H29           -4.2498     2.6746     0.1207 H       
  30 H30           -2.4622     4.3631     0.1763 H       
  31 H31            0.2722     4.1754    -2.2327 H       
  32 H32            1.7473     4.7097    -1.3920 H       
  33 H33            1.4004     2.9723    -1.5636 H       
  34 H34           -0.9686     5.3773     1.0648 H       
  35 H35            0.3639     6.1141     0.1429 H       
  36 H36           -1.1113     5.5799    -0.6978 H       
  37 H37            1.6007     2.6879     0.9105 H       
  38 H38            1.9476     4.4253     1.0821 H       
  39 H39            0.6152     3.6885     2.0040 H       
  40 H40           -8.3086    -3.7757    -0.6812 H       
  41 H41           -6.5770    -3.8304    -1.0896 H       
  42 H42           -5.9590    -4.0628     1.2379 H       
  43 H43           -7.6264    -3.7385     1.7699 H       
  44 H44           -7.2437    -5.2512     0.9133 H       
  45 H45          -10.5327    -0.4204    -1.3047 H       
  46 H46          -13.1143    -3.5523    -0.4444 H       
  47 H47          -11.3811    -4.7280     0.8469 H       
  48 H48           -9.1265    -3.7113     1.0680 H       
@<TRIPOS>BOND
   1    1    2 ar
   2    1    7 1
   3    1    6 ar
   4    2    3 ar
   5    2   27 1
   6    3    4 ar
   7    3   28 1
   8    4    5 ar
   9    4   11 1
  10    5    6 ar
  11    5   29 1
  12    6   30 1
  13    7    8 1
  14    7    9 1
  15    7   10 1
  16    8   31 1
  17    8   32 1
  18    8   33 1
  19    9   34 1
  20    9   35 1
  21    9   36 1
  22   10   37 1
  23   10   38 1
  24   10   39 1
  25   11   12 1
  26   11   13 2
  27   12   15 1
  28   13   14 1
  29   14   15 2
  30   15   16 1
  31   16   17 1
  32   16   18 am
  33   17   19 1
  34   17   40 1
  35   17   41 1
  36   18   20 1
  37   18   21 2
  38   19   42 1
  39   19   43 1
  40   19   44 1
  41   20   22 ar
  42   20   26 ar
  43   22   23 ar
  44   22   45 1
  45   23   24 ar
  46   24   25 ar
  47   24   46 1
  48   25   26 ar
  49   25   47 1
  50   26   48 1

#	End of record

