#	Name: ASD01150089
#	Creating user name:	WinNT
#	Creation time:	15. 06. 2019 19:03

#	Modifying user name:	WinNT
#	Modification time:	15. 06. 2019 19:03

#	Program:	/corina/corina34_cracker 3.40 0067  02.08.2006

@<TRIPOS>MOLECULE
ASD01150089
  31   32    0    0    0
SMALL
NO_CHARGES


@<TRIPOS>ATOM
   1 N1            -0.0167     1.3827     0.0096 N.pl3   
   2 C2             0.0021    -0.0041     0.0020 C.2     
   3 C3            -1.3270    -0.4122     0.0134 C.2     
   4 N4            -2.0822     0.6880     0.0270 N.2     
   5 C5            -1.3157     1.7570     0.0300 C.2     
   6 C6             1.0189    -0.9766    -0.0131 C.2     
   7 N7             0.6824    -2.2831    -0.0163 N.am    
   8 C8            -0.6060    -2.6662    -0.0053 C.2     
   9 N9            -1.6093    -1.7685     0.0090 N.am    
  10 C10            1.1478     2.2715     0.0033 C.3     
  11 O11           -1.7589     3.0340     0.0428 O.3     
  12 C12           -3.1744     3.2293     0.0534 C.3     
  13 O13           -0.8719    -3.8528    -0.0090 O.2     
  14 O14            2.1907    -0.6424    -0.0237 O.2     
  15 C15           -3.0009    -2.2263     0.0207 C.3     
  16 C16           -3.4709    -2.3925     1.4672 C.3     
  17 C17           -4.9242    -2.8707     1.4795 C.3     
  18 F18           -5.0168    -4.0984     0.8152 F       
  19 F19           -5.3540    -3.0226     2.8022 F       
  20 F20           -5.7307    -1.9283     0.8325 F       
  21 H21            1.3808    -2.9562    -0.0271 H       
  22 H22            1.4268     2.4974    -1.0259 H       
  23 H23            0.9017     3.1966     0.5245 H       
  24 H24            1.9815     1.7817     0.5066 H       
  25 H25           -3.3938     4.2970     0.0631 H       
  26 H26           -3.6103     2.7770    -0.8374 H       
  27 H27           -3.5990     2.7630     0.9424 H       
  28 H28           -3.6292    -1.4921    -0.4834 H       
  29 H29           -3.0730    -3.1829    -0.4969 H       
  30 H30           -2.8425    -3.1267     1.9714 H       
  31 H31           -3.3987    -1.4360     1.9849 H       
@<TRIPOS>BOND
   1    1    2 1
   2    1   10 1
   3    1    5 1
   4    2    3 2
   5    2    6 1
   6    3    4 1
   7    3    9 1
   8    4    5 2
   9    5   11 1
  10    6    7 am
  11    6   14 2
  12    7    8 am
  13    7   21 1
  14    8    9 am
  15    8   13 2
  16    9   15 1
  17   10   22 1
  18   10   23 1
  19   10   24 1
  20   11   12 1
  21   12   25 1
  22   12   26 1
  23   12   27 1
  24   15   16 1
  25   15   28 1
  26   15   29 1
  27   16   17 1
  28   16   30 1
  29   16   31 1
  30   17   18 1
  31   17   19 1
  32   17   20 1

#	End of record

