#	Name: ASD02198881
#	Creating user name:	WinNT
#	Creation time:	15. 06. 2019 20:20

#	Modifying user name:	WinNT
#	Modification time:	15. 06. 2019 20:20

#	Program:	/corina/corina34_cracker 3.40 0067  02.08.2006

@<TRIPOS>MOLECULE
ASD02198881
  56   60    0    0    0
SMALL
NO_CHARGES


@<TRIPOS>ATOM
   1 C1             0.3533     0.3340    -0.0260 C.2     
   2 C2             0.3399    -0.9019     0.5338 C.2     
   3 N3             1.4872    -1.4925     0.9373 N.pl3   
   4 N4             2.6396    -0.9430     0.8236 N.2     
   5 C5             2.7947     0.2535     0.2979 C.2     
   6 C6             1.6044     0.9797    -0.1723 C.2     
   7 C7             1.4127    -2.7675     1.5082 C.ar    
   8 C8             1.9577    -2.9999     2.7704 C.ar    
   9 C9             1.8819    -4.2631     3.3328 C.ar    
  10 C10            1.2640    -5.2945     2.6393 C.ar    
  11 C11            0.7216    -5.0607     1.3817 C.ar    
  12 C12            0.7909    -3.8017     0.8208 C.ar    
  13 C13            4.1381     0.8564     0.1830 C.2     
  14 N14            4.7243     1.3215    -0.9606 N.pl3   
  15 N15            5.9928     1.8088    -0.6220 N.2     
  16 C16            6.1750     1.6503     0.6647 C.2     
  17 C17            5.0340     1.0613     1.2094 C.2     
  18 C18            4.1578     1.3125    -2.2416 C.ar    
  19 C19            4.2753     2.4267    -3.0621 C.ar    
  20 C20            3.7160     2.4145    -4.3249 C.ar    
  21 C21            3.0397     1.2944    -4.7724 C.ar    
  22 C22            2.9207     0.1835    -3.9575 C.ar    
  23 C23            3.4826     0.1873    -2.6959 C.ar    
  24 O24            1.6923     2.0930    -0.6685 O.2     
  25 N25            1.1875    -6.5732     3.2081 N.pl3   
  26 N26            0.9604    -6.8631     4.5596 N.2     
  27 C27            0.9564    -8.1634     4.7077 C.2     
  28 C28            1.1804    -8.7516     3.4590 C.2     
  29 C29            1.3146    -7.7537     2.5454 C.2     
  30 O30            1.5433    -7.9076     1.2162 O.3     
  31 C31            1.5700    -9.2449     0.7131 C.3     
  32 F32            2.5552    -9.9763     1.3851 F       
  33 F33            0.3229    -9.8450     0.9173 F       
  34 O34            2.5627    -1.9886     3.4473 O.3     
  35 C35            3.0985    -2.2993     4.7352 C.3     
  36 C36            7.4113     2.0437     1.4315 C.3     
  37 H37           -0.5604     0.8078    -0.3534 H       
  38 H38           -0.5993    -1.4204     0.6590 H       
  39 H39            2.3036    -4.4457     4.3101 H       
  40 H40            0.2412    -5.8647     0.8439 H       
  41 H41            0.3686    -3.6225    -0.1569 H       
  42 H42            4.8826     0.8059     2.2478 H       
  43 H43            4.8030     3.3019    -2.7131 H       
  44 H44            3.8067     3.2808    -4.9634 H       
  45 H45            2.6033     1.2873    -5.7603 H       
  46 H46            2.3916    -0.6897    -4.3097 H       
  47 H47            3.3896    -0.6807    -2.0600 H       
  48 H48            0.8057    -8.6925     5.6371 H       
  49 H49            1.2333    -9.8109     3.2557 H       
  50 H50            1.7945    -9.2274    -0.3534 H       
  51 H51            3.8542    -3.0785     4.6359 H       
  52 H52            3.5518    -1.4062     5.1652 H       
  53 H53            2.2981    -2.6502     5.3866 H       
  54 H54            7.3068     3.0684     1.7883 H       
  55 H55            7.5398     1.3742     2.2819 H       
  56 H56            8.2814     1.9732     0.7788 H       
@<TRIPOS>BOND
   1    1    2 2
   2    1    6 1
   3    1   37 1
   4    2    3 1
   5    2   38 1
   6    3    4 1
   7    3    7 1
   8    4    5 2
   9    5    6 1
  10    5   13 1
  11    6   24 2
  12    7    8 ar
  13    7   12 ar
  14    8    9 ar
  15    8   34 1
  16    9   10 ar
  17    9   39 1
  18   10   11 ar
  19   10   25 1
  20   11   12 ar
  21   11   40 1
  22   12   41 1
  23   13   14 1
  24   13   17 2
  25   14   15 1
  26   14   18 1
  27   15   16 2
  28   16   17 1
  29   16   36 1
  30   17   42 1
  31   18   19 ar
  32   18   23 ar
  33   19   20 ar
  34   19   43 1
  35   20   21 ar
  36   20   44 1
  37   21   22 ar
  38   21   45 1
  39   22   23 ar
  40   22   46 1
  41   23   47 1
  42   25   26 1
  43   25   29 1
  44   26   27 2
  45   27   28 1
  46   27   48 1
  47   28   29 2
  48   28   49 1
  49   29   30 1
  50   30   31 1
  51   31   32 1
  52   31   33 1
  53   31   50 1
  54   34   35 1
  55   35   51 1
  56   35   52 1
  57   35   53 1
  58   36   54 1
  59   36   55 1
  60   36   56 1

#	End of record

