#	Name: ASD04881051
#	Creating user name:	WinNT
#	Creation time:	15. 06. 2019 20:53

#	Modifying user name:	WinNT
#	Modification time:	15. 06. 2019 20:53

#	Program:	/corina/corina34_cracker 3.40 0067  02.08.2006

@<TRIPOS>MOLECULE
ASD04881051
  83   89    0    0    0
SMALL
NO_CHARGES


@<TRIPOS>ATOM
   1 N1            -0.3332     1.5721     1.2908 N.2     
   2 C2             0.8643     1.8847     0.7253 C.2     
   3 C3             1.3674     3.2389     0.4323 C.2     
   4 O4             2.4619     3.3837    -0.0781 O.2     
   5 C5             1.5102     0.7118     0.4816 C.2     
   6 O6             0.7009    -0.2748     0.8992 O.3     
   7 C7            -0.4174     0.2791     1.3887 C.2     
   8 N8             0.6147     4.3165     0.7300 N.am    
   9 C9             1.1354     5.6052     0.5532 C.ar    
  10 C10            0.2920     6.6552     0.1784 C.ar    
  11 C11            0.8070     7.9341     0.0032 C.ar    
  12 C12            2.1498     8.1719     0.1980 C.ar    
  13 C13            2.9984     7.1270     0.5727 C.ar    
  14 C14            2.4819     5.8406     0.7547 C.ar    
  15 C15            4.4366     7.3818     0.7808 C.2     
  16 O16            5.1743     6.4718     1.1069 O.2     
  17 N17            4.9327     8.6231     0.6096 N.am    
  18 C18            6.3608     8.8762     0.8163 C.3     
  19 N19           -1.0660     6.4193    -0.0200 N.3     
  20 C20           -1.2848     5.5497    -1.1842 C.3     
  21 C21           -2.7796     5.2506    -1.3204 C.3     
  22 N22           -3.5181     6.5130    -1.4635 N.3     
  23 C23           -3.2993     7.3827    -0.2993 C.3     
  24 C24           -1.8045     7.6818    -0.1630 C.3     
  25 C25           -4.8802     6.2764    -1.6625 C.ar    
  26 C26           -5.3172     5.6659    -2.8315 C.ar    
  27 C27           -6.6644     5.4330    -3.0249 C.ar    
  28 C28           -7.5785     5.8071    -2.0566 C.ar    
  29 C29           -7.1469     6.4148    -0.8921 C.ar    
  30 C30           -5.8002     6.6456    -0.6898 C.ar    
  31 C31           -4.3221     5.2589    -3.8875 C.3     
  32 C32           -1.5873    -0.4781     1.9623 C.3     
  33 C33           -2.3070    -1.4678     1.0439 C.3     
  34 C34           -1.4176    -1.9834     2.1771 C.3     
  35 C35            6.5547    10.2246     1.5337 C.3     
  36 C36            7.4835    11.0323     0.5794 C.3     
  37 C37            8.1024     9.9167    -0.2966 C.3     
  38 O38            7.0296     8.9646    -0.4524 O.3     
  39 C39            8.5268    10.4749    -1.6565 C.3     
  40 O40            8.5051    11.5784     1.4284 O.3     
  41 O41            7.3904    10.0131     2.6951 O.3     
  42 C42            8.1704    11.2236     2.7803 C.3     
  43 C43            9.4445    10.9729     3.5896 C.3     
  44 C44            7.3451    12.3373     3.4279 C.3     
  45 H45            2.4874     0.5965     0.0365 H       
  46 H46           -0.2875     4.1999     1.0667 H       
  47 H47            0.1530     8.7433    -0.2867 H       
  48 H48            2.5471     9.1668     0.0607 H       
  49 H49            3.1347     5.0318     1.0483 H       
  50 H50            4.3442     9.3490     0.3495 H       
  51 H51            6.7986     8.0742     1.4106 H       
  52 H52           -0.9308     6.0516    -2.0847 H       
  53 H53           -0.7381     4.6165    -1.0490 H       
  54 H54           -2.9475     4.6294    -2.2002 H       
  55 H55           -3.1276     4.7244    -0.4316 H       
  56 H56           -3.8460     8.3159    -0.4345 H       
  57 H57           -3.6532     6.8807     0.6012 H       
  58 H58           -1.6366     8.3030     0.7167 H       
  59 H59           -1.4564     8.2079    -1.0519 H       
  60 H60           -7.0049     4.9585    -3.9334 H       
  61 H61           -8.6317     5.6244    -2.2107 H       
  62 H62           -7.8633     6.7057    -0.1380 H       
  63 H63           -5.4634     7.1163     0.2220 H       
  64 H64           -4.0429     4.2155    -3.7408 H       
  65 H65           -4.7693     5.3800    -4.8742 H       
  66 H66           -3.4343     5.8867    -3.8115 H       
  67 H67           -2.1923     0.0687     2.6855 H       
  68 H68           -3.3854    -1.5724     1.1631 H       
  69 H69           -1.9343    -1.5712     0.0248 H       
  70 H70           -0.4598    -2.4261     1.9035 H       
  71 H71           -1.9109    -2.4272     3.0418 H       
  72 H72            5.6152    10.7315     1.7541 H       
  73 H73            6.9518    11.7857    -0.0018 H       
  74 H74            8.9506     9.4576     0.2112 H       
  75 H75            9.2668    11.2619    -1.5113 H       
  76 H76            8.9596     9.6757    -2.2583 H       
  77 H77            7.6563    10.8847    -2.1687 H       
  78 H78           10.0536    11.8769     3.5976 H       
  79 H79            9.1786    10.7049     4.6121 H       
  80 H80           10.0090    10.1585     3.1355 H       
  81 H81            6.4269    12.4863     2.8597 H       
  82 H82            7.0974    12.0574     4.4518 H       
  83 H83            7.9230    13.2614     3.4335 H       
@<TRIPOS>BOND
   1    1    7 2
   2    1    2 1
   3    2    3 1
   4    2    5 2
   5    3    4 2
   6    3    8 am
   7    5    6 1
   8    5   45 1
   9    6    7 1
  10    7   32 1
  11    8    9 1
  12    8   46 1
  13    9   10 ar
  14    9   14 ar
  15   10   11 ar
  16   10   19 1
  17   11   12 ar
  18   11   47 1
  19   12   13 ar
  20   12   48 1
  21   13   14 ar
  22   13   15 1
  23   14   49 1
  24   15   16 2
  25   15   17 am
  26   17   18 1
  27   17   50 1
  28   18   35 1
  29   18   38 1
  30   18   51 1
  31   19   20 1
  32   19   24 1
  33   20   21 1
  34   20   52 1
  35   20   53 1
  36   21   22 1
  37   21   54 1
  38   21   55 1
  39   22   23 1
  40   22   25 1
  41   23   24 1
  42   23   56 1
  43   23   57 1
  44   24   58 1
  45   24   59 1
  46   25   26 ar
  47   25   30 ar
  48   26   27 ar
  49   26   31 1
  50   27   28 ar
  51   27   60 1
  52   28   29 ar
  53   28   61 1
  54   29   30 ar
  55   29   62 1
  56   30   63 1
  57   31   64 1
  58   31   65 1
  59   31   66 1
  60   32   33 1
  61   32   34 1
  62   32   67 1
  63   33   34 1
  64   33   68 1
  65   33   69 1
  66   34   70 1
  67   34   71 1
  68   35   36 1
  69   35   41 1
  70   35   72 1
  71   36   37 1
  72   36   40 1
  73   36   73 1
  74   37   38 1
  75   37   39 1
  76   37   74 1
  77   39   75 1
  78   39   76 1
  79   39   77 1
  80   40   42 1
  81   41   42 1
  82   42   43 1
  83   42   44 1
  84   43   78 1
  85   43   79 1
  86   43   80 1
  87   44   81 1
  88   44   82 1
  89   44   83 1

#	End of record

