#	Name: ASD03240504
#	Creating user name:	WinNT
#	Creation time:	15. 06. 2019 20:35

#	Modifying user name:	WinNT
#	Modification time:	15. 06. 2019 20:35

#	Program:	/corina/corina34_cracker 3.40 0067  02.08.2006

@<TRIPOS>MOLECULE
ASD03240504
  47   50    0    0    0
SMALL
NO_CHARGES


@<TRIPOS>ATOM
   1 C1             0.0472     1.3207     0.2932 C.ar    
   2 C2             0.0151    -0.0269    -0.0169 C.ar    
   3 C3             1.2437     2.0084     0.2699 C.ar    
   4 C4             2.4202     1.3430    -0.0668 C.ar    
   5 C5             2.3822    -0.0142    -0.3783 C.ar    
   6 C6             1.1804    -0.6926    -0.3514 C.ar    
   7 C7             3.7101     2.0778    -0.0940 C.2     
   8 C8             4.9306     1.5529    -0.4046 C.2     
   9 N9             5.8372     2.5466    -0.3129 N.pl3   
  10 N10            5.1672     3.7170     0.0633 N.2     
  11 C11            3.8954     3.4448     0.1901 C.2     
  12 C12           -1.2942    -0.7726     0.0103 C.3     
  13 C13           -1.4672    -1.5472    -1.2977 C.3     
  14 C14           -1.2996    -1.7360     1.1691 C.ar    
  15 C15           -2.2104    -1.5757     2.1967 C.ar    
  16 C16           -2.2159    -2.4590     3.2597 C.ar    
  17 C17           -1.3095    -3.5037     3.2954 C.ar    
  18 C18           -0.3982    -3.6636     2.2667 C.ar    
  19 C19           -0.3975    -2.7830     1.2014 C.ar    
  20 N20           -2.7942    -2.1769    -1.3220 N.3     
  21 C21           -3.0919    -2.7306    -2.6557 C.3     
  22 C22           -3.4000    -4.2312    -2.4694 C.3     
  23 C23           -3.8157    -4.3200    -0.9774 C.3     
  24 C24           -2.8808    -3.2688    -0.3290 C.3     
  25 Cl25          -1.3153    -4.6132     4.6305 Cl      
  26 H26           -0.8662     1.8367     0.5497 H       
  27 H27            1.2676     3.0607     0.5118 H       
  28 H28            3.2916    -0.5349    -0.6400 H       
  29 H29            1.1499    -1.7449    -0.5924 H       
  30 H30            5.1336     0.5272    -0.6751 H       
  31 H31            6.7895     2.4647    -0.4786 H       
  32 H32            3.1221     4.1445     0.4710 H       
  33 H33           -2.1140    -0.0633     0.1237 H       
  34 H34           -1.3746    -0.8623    -2.1406 H       
  35 H35           -0.6985    -2.3167    -1.3687 H       
  36 H36           -2.9176    -0.7600     2.1689 H       
  37 H37           -2.9272    -2.3335     4.0626 H       
  38 H38            0.3095    -4.4789     2.2940 H       
  39 H39            0.3139    -2.9077     0.3984 H       
  40 H40           -3.9579    -2.2245    -3.0825 H       
  41 H41           -2.2284    -2.6077    -3.3095 H       
  42 H42           -4.2207    -4.5394    -3.1172 H       
  43 H43           -2.5113    -4.8334    -2.6584 H       
  44 H44           -4.8623    -4.0452    -0.8467 H       
  45 H45           -3.6218    -5.3150    -0.5767 H       
  46 H46           -1.8948    -3.6973    -0.1493 H       
  47 H47           -3.3113    -2.9013     0.6025 H       
@<TRIPOS>BOND
   1    1    2 ar
   2    1    3 ar
   3    1   26 1
   4    2   12 1
   5    2    6 ar
   6    3    4 ar
   7    3   27 1
   8    4    5 ar
   9    4    7 1
  10    5    6 ar
  11    5   28 1
  12    6   29 1
  13    7    8 2
  14    7   11 1
  15    8    9 1
  16    8   30 1
  17    9   10 1
  18    9   31 1
  19   10   11 2
  20   11   32 1
  21   12   13 1
  22   12   14 1
  23   12   33 1
  24   13   20 1
  25   13   34 1
  26   13   35 1
  27   14   15 ar
  28   14   19 ar
  29   15   16 ar
  30   15   36 1
  31   16   17 ar
  32   16   37 1
  33   17   18 ar
  34   17   25 1
  35   18   19 ar
  36   18   38 1
  37   19   39 1
  38   20   21 1
  39   20   24 1
  40   21   22 1
  41   21   40 1
  42   21   41 1
  43   22   23 1
  44   22   42 1
  45   22   43 1
  46   23   24 1
  47   23   44 1
  48   23   45 1
  49   24   46 1
  50   24   47 1

#	End of record

