#	Name: ASD03430589
#	Creating user name:	WinNT
#	Creation time:	15. 06. 2019 20:41

#	Modifying user name:	WinNT
#	Modification time:	15. 06. 2019 20:41

#	Program:	/corina/corina34_cracker 3.40 0067  02.08.2006

@<TRIPOS>MOLECULE
ASD03430589
  39   42    0    0    0
SMALL
NO_CHARGES


@<TRIPOS>ATOM
   1 N1            -0.4620     1.4120     1.0207 N.am    
   2 C2            -0.9707     0.4611     1.8233 C.2     
   3 C3             0.1455    -0.0436     2.6889 C.2     
   4 C4             1.3267     0.7355     2.2737 C.ar    
   5 C5             2.6579     0.7411     2.6902 C.ar    
   6 C6             3.5562     1.6065     2.0979 C.ar    
   7 C7             3.1347     2.4647     1.0949 C.ar    
   8 C8             1.8176     2.4669     0.6757 C.ar    
   9 C9             0.8977     1.6041     1.2572 C.ar    
  10 O10           -2.1224     0.0809     1.8440 O.2     
  11 O11            0.0888    -0.9036     3.5432 O.2     
  12 C12           -1.2377     2.1487     0.0198 C.3     
  13 C13           -1.7457     1.1908    -1.0268 C.ar    
  14 C14           -2.7841     1.5639    -1.8595 C.ar    
  15 C15           -3.2501     0.6852    -2.8195 C.ar    
  16 C16           -2.6773    -0.5664    -2.9472 C.ar    
  17 C17           -1.6383    -0.9392    -2.1151 C.ar    
  18 C18           -1.1694    -0.0589    -1.1579 C.ar    
  19 C19           -2.4053     2.8272     0.6888 C.ar    
  20 C20           -2.3621     4.1851     0.9438 C.ar    
  21 C21           -3.4331     4.8075     1.5575 C.ar    
  22 C22           -4.5474     4.0720     1.9157 C.ar    
  23 C23           -4.5909     2.7142     1.6598 C.ar    
  24 C24           -3.5217     2.0927     1.0422 C.ar    
  25 Br25           5.3628     1.6208     2.6563 Br      
  26 H26            2.9844     0.0720     3.4725 H       
  27 H27            3.8426     3.1392     0.6362 H       
  28 H28            1.5028     3.1417    -0.1066 H       
  29 H29           -0.6029     2.8989    -0.4517 H       
  30 H30           -3.2316     2.5418    -1.7598 H       
  31 H31           -4.0618     0.9764    -3.4696 H       
  32 H32           -3.0419    -1.2532    -3.6967 H       
  33 H33           -1.1911    -1.9172    -2.2146 H       
  34 H34           -0.3552    -0.3487    -0.5103 H       
  35 H35           -1.4915     4.7597     0.6640 H       
  36 H36           -3.3991     5.8683     1.7574 H       
  37 H37           -5.3838     4.5581     2.3958 H       
  38 H38           -5.4613     2.1396     1.9400 H       
  39 H39           -3.5572     1.0326     0.8390 H       
@<TRIPOS>BOND
   1    1    2 am
   2    1    9 1
   3    1   12 1
   4    2    3 1
   5    2   10 2
   6    3    4 1
   7    3   11 2
   8    4    5 ar
   9    4    9 ar
  10    5    6 ar
  11    5   26 1
  12    6    7 ar
  13    6   25 1
  14    7    8 ar
  15    7   27 1
  16    8    9 ar
  17    8   28 1
  18   12   13 1
  19   12   19 1
  20   12   29 1
  21   13   14 ar
  22   13   18 ar
  23   14   15 ar
  24   14   30 1
  25   15   16 ar
  26   15   31 1
  27   16   17 ar
  28   16   32 1
  29   17   18 ar
  30   17   33 1
  31   18   34 1
  32   19   20 ar
  33   19   24 ar
  34   20   21 ar
  35   20   35 1
  36   21   22 ar
  37   21   36 1
  38   22   23 ar
  39   22   37 1
  40   23   24 ar
  41   23   38 1
  42   24   39 1

#	End of record

