#	Name: ASD01915637
#	Creating user name:	WinNT
#	Creation time:	15. 06. 2019 20:05

#	Modifying user name:	WinNT
#	Modification time:	15. 06. 2019 20:05

#	Program:	/corina/corina34_cracker 3.40 0067  02.08.2006

@<TRIPOS>MOLECULE
ASD01915637
  46   49    0    0    0
SMALL
NO_CHARGES


@<TRIPOS>ATOM
   1 C1            -0.0123     1.3643     0.0114 C.2     
   2 N2             0.0101    -0.0125     0.0181 N.pl3   
   3 C3            -1.2332    -0.7927    -0.0029 C.3     
   4 C4            -2.3382    -0.0008     0.6943 C.3     
   5 N5            -2.4018     1.3865     0.2478 N.am    
   6 C6            -1.2790     2.1112     0.0241 C.2     
   7 C7             1.2878     1.7853     0.0064 C.2     
   8 C8             2.0500     0.6094     0.0222 C.2     
   9 N9             1.2223    -0.4094     0.0335 N.2     
  10 C10            3.5549     0.5286     0.0253 C.3     
  11 O11            4.1027     1.8484     0.0094 O.3     
  12 C12            5.4576     1.9540     0.0099 C.ar    
  13 O13           -1.3167     3.3135    -0.1563 O.2     
  14 C14            6.0570     3.2050    -0.0050 C.ar    
  15 C15            6.2436     0.8110     0.0311 C.ar    
  16 C16            7.6207     0.9210     0.0316 C.ar    
  17 C17            8.2157     2.1689     0.0109 C.ar    
  18 C18            7.4345     3.3097    -0.0045 C.ar    
  19 C19           -3.6468     1.9805     0.0466 C.ar    
  20 N20           -4.1816     1.9872    -1.1638 N.ar    
  21 C21           -4.3171     2.5550     1.1209 C.ar    
  22 C22           -5.5522     3.1410     0.9086 C.ar    
  23 C23           -6.0775     3.1322    -0.3785 C.ar    
  24 C24           -5.3575     2.5379    -1.3985 C.ar    
  25 C25           -5.9201     2.5241    -2.7965 C.3     
  26 F26           -7.2806     3.6936    -0.6290 F       
  27 C27           -3.6827    -0.6736     0.4107 C.3     
  28 H28           -1.5222    -0.9889    -1.0354 H       
  29 H29           -1.0786    -1.7376     0.5181 H       
  30 H30           -2.1584    -0.0170     1.7693 H       
  31 H31            1.6493     2.8029    -0.0075 H       
  32 H32            3.8889     0.0073     0.9224 H       
  33 H33            3.8913    -0.0151    -0.8574 H       
  34 H34            5.4473     4.0964    -0.0174 H       
  35 H35            5.7793    -0.1640     0.0477 H       
  36 H36            8.2330     0.0315     0.0484 H       
  37 H37            9.2924     2.2529     0.0113 H       
  38 H38            7.9016     4.2833    -0.0210 H       
  39 H39           -3.8794     2.5437     2.1082 H       
  40 H40           -6.0959     3.5946     1.7241 H       
  41 H41           -5.5924     3.4171    -3.3288 H       
  42 H42           -5.5657     1.6373    -3.3220 H       
  43 H43           -7.0089     2.5079    -2.7498 H       
  44 H44           -3.6310    -1.7240     0.6974 H       
  45 H45           -4.4653    -0.1783     0.9854 H       
  46 H46           -3.9097    -0.5980    -0.6527 H       
@<TRIPOS>BOND
   1    1    2 1
   2    1    7 2
   3    1    6 1
   4    2    3 1
   5    2    9 1
   6    3    4 1
   7    3   28 1
   8    3   29 1
   9    4    5 1
  10    4   27 1
  11    4   30 1
  12    5    6 am
  13    5   19 1
  14    6   13 2
  15    7    8 1
  16    7   31 1
  17    8    9 2
  18    8   10 1
  19   10   11 1
  20   10   32 1
  21   10   33 1
  22   11   12 1
  23   12   14 ar
  24   12   15 ar
  25   14   18 ar
  26   14   34 1
  27   15   16 ar
  28   15   35 1
  29   16   17 ar
  30   16   36 1
  31   17   18 ar
  32   17   37 1
  33   18   38 1
  34   19   20 ar
  35   19   21 ar
  36   20   24 ar
  37   21   22 ar
  38   21   39 1
  39   22   23 ar
  40   22   40 1
  41   23   24 ar
  42   23   26 1
  43   24   25 1
  44   25   41 1
  45   25   42 1
  46   25   43 1
  47   27   44 1
  48   27   45 1
  49   27   46 1

#	End of record

