#	Name: ASD03731343
#	Creating user name:	WinNT
#	Creation time:	15. 06. 2019 20:45

#	Modifying user name:	WinNT
#	Modification time:	15. 06. 2019 20:45

#	Program:	/corina/corina34_cracker 3.40 0067  02.08.2006

@<TRIPOS>MOLECULE
ASD03731343
  55   61    0    0    0
SMALL
NO_CHARGES


@<TRIPOS>ATOM
   1 C1            -0.0180     1.4737     0.0101 C.2     
   2 C2             0.0021    -0.0041     0.0020 C.ar    
   3 C3             1.2186    -0.6886    -0.0133 C.ar    
   4 C4             1.2302    -2.0681    -0.0208 C.ar    
   5 C5             0.0396    -2.7730    -0.0138 C.ar    
   6 C6            -1.1696    -2.1007     0.0009 C.ar    
   7 C7            -1.1954    -0.7215     0.0154 C.ar    
   8 O8             1.0264     2.0958     0.0035 O.2     
   9 N9            -1.1942     2.1317     0.0193 N.am    
  10 S10           -2.6276     4.4806     0.0389 S.3     
  11 C11           -1.2130     3.5205     0.0269 C.2     
  12 N12           -0.1605     4.2775     0.0265 N.2     
  13 C13           -0.3626     5.5817     0.0349 C.2     
  14 C14           -1.6469     5.9442     0.0428 C.2     
  15 C15            0.0601    -4.2799    -0.0226 C.3     
  16 O16           -2.0589    -1.5352     6.2757 O.3     
  17 C17           -2.2868    -1.6208     7.6947 C.3     
  18 O18           -2.7851    -2.9586     7.8813 O.3     
  19 C19           -2.2592    -3.6912     6.8559 C.ar    
  20 C20           -1.8138    -2.8154     5.8684 C.ar    
  21 C21           -2.1214    -5.0567     6.6827 C.ar    
  22 C22           -1.5408    -5.5656     5.5249 C.ar    
  23 C23           -1.1072    -4.6811     4.5419 C.ar    
  24 C24           -1.2376    -3.3188     4.7143 C.ar    
  25 O25           -1.2977    -6.8592     5.1674 O.3     
  26 C26           -0.5608    -5.5219     3.4192 C.3     
  27 C27           -1.0857    -6.9270     3.7441 C.3     
  28 N28            0.0796    -4.7761     1.3557 N.am    
  29 C29           -1.0286    -5.0466     2.0738 C.2     
  30 C30            0.9373    -5.4851     3.3552 C.ar    
  31 C31            1.9358    -5.7967     4.2508 C.ar    
  32 C32            3.2628    -5.6551     3.8861 C.ar    
  33 C33            3.5839    -5.1993     2.6204 C.ar    
  34 C34            2.5874    -4.8848     1.7201 C.ar    
  35 C35            1.2488    -5.0247     2.0785 C.ar    
  36 O36           -2.1782    -4.9296     1.7053 O.2     
  37 H37            2.1486    -0.1395    -0.0195 H       
  38 H38            2.1706    -2.5989    -0.0327 H       
  39 H39           -2.0953    -2.6570     0.0057 H       
  40 H40           -2.1398    -0.1980     0.0321 H       
  41 H41           -2.0276     1.6353     0.0206 H       
  42 H42            0.4459     6.2977     0.0359 H       
  43 H43           -2.0200     6.9577     0.0503 H       
  44 H44           -0.8297    -4.6523    -0.5303 H       
  45 H45            0.9500    -4.6281    -0.5468 H       
  46 H46           -1.3545    -1.4796     8.2415 H       
  47 H47           -3.0305    -0.8880     8.0080 H       
  48 H48           -2.4667    -5.7324     7.4512 H       
  49 H49           -0.8897    -2.6431     3.9469 H       
  50 H50           -0.3412    -7.6845     3.4992 H       
  51 H51           -2.0227    -7.1205     3.2219 H       
  52 H52            1.6827    -6.1523     5.2387 H       
  53 H53            4.0462    -5.9003     4.5880 H       
  54 H54            4.6198    -5.0886     2.3358 H       
  55 H55            2.8460    -4.5290     0.7338 H       
@<TRIPOS>BOND
   1    1    2 1
   2    1    8 2
   3    1    9 am
   4    2    3 ar
   5    2    7 ar
   6    3    4 ar
   7    3   37 1
   8    4    5 ar
   9    4   38 1
  10    5    6 ar
  11    5   15 1
  12    6    7 ar
  13    6   39 1
  14    7   40 1
  15    9   11 1
  16    9   41 1
  17   10   11 1
  18   10   14 1
  19   11   12 2
  20   12   13 1
  21   13   14 2
  22   13   42 1
  23   14   43 1
  24   15   28 1
  25   15   44 1
  26   15   45 1
  27   16   17 1
  28   16   20 1
  29   17   18 1
  30   17   46 1
  31   17   47 1
  32   18   19 1
  33   19   20 ar
  34   19   21 ar
  35   20   24 ar
  36   21   22 ar
  37   21   48 1
  38   22   23 ar
  39   22   25 1
  40   23   24 ar
  41   23   26 1
  42   24   49 1
  43   25   27 1
  44   26   27 1
  45   26   29 1
  46   26   30 1
  47   27   50 1
  48   27   51 1
  49   28   29 am
  50   28   35 1
  51   29   36 2
  52   30   31 ar
  53   30   35 ar
  54   31   32 ar
  55   31   52 1
  56   32   33 ar
  57   32   53 1
  58   33   34 ar
  59   33   54 1
  60   34   35 ar
  61   34   55 1

#	End of record

