#	Name: ASD01820191
#	Creating user name:	WinNT
#	Creation time:	15. 06. 2019 19:36

#	Modifying user name:	WinNT
#	Modification time:	15. 06. 2019 19:36

#	Program:	/corina/corina34_cracker 3.40 0067  02.08.2006

@<TRIPOS>MOLECULE
ASD01820191
  93   97    0    0    0
SMALL
NO_CHARGES


@<TRIPOS>ATOM
   1 N1            -0.0162     1.3424     0.0094 N.am    
   2 C2             0.0021    -0.0041     0.0020 C.2     
   3 C3             1.2581     2.0651     0.0011 C.3     
   4 C4             1.6879     2.3244    -1.4442 C.3     
   5 C5             3.0188     3.0792    -1.4528 C.3     
   6 N6             3.4315     3.3282    -2.8405 N.4     
   7 C7             4.7092     4.0529    -2.8488 C.3     
   8 C8             5.1391     4.3123    -4.2941 C.3     
   9 C9             6.4699     5.0671    -4.3027 C.3     
  10 C10            6.8997     5.3264    -5.7480 C.3     
  11 C11            8.2306     6.0812    -5.7567 C.3     
  12 C12            8.6604     6.3406    -7.2020 C.3     
  13 N13            9.9382     7.0653    -7.2103 N.4     
  14 C14           10.3509     7.3143    -8.5980 C.3     
  15 C15           11.6817     8.0691    -8.6066 C.3     
  16 N16           13.3858     9.0511   -10.0602 N.am    
  17 O17            1.0653    -0.5943    -0.0109 O.2     
  18 C18           12.1116     8.3284   -10.0519 C.3     
  19 C19           14.5950     8.4618   -10.0754 C.2     
  20 C20           15.6323     9.5149   -10.0795 C.ar    
  21 C21           14.9368    10.7412   -10.0656 C.ar    
  22 C22           13.5007    10.3915   -10.0594 C.2     
  23 C23           17.0175     9.5086   -10.0934 C.ar    
  24 C24           17.7103    10.7096   -10.0936 C.ar    
  25 C25           17.0287    11.9116   -10.0796 C.ar    
  26 C26           15.6424    11.9333   -10.0663 C.ar    
  27 O27           14.8001     7.2648   -10.0839 O.2     
  28 O28           12.5787    11.1819   -10.0482 O.2     
  29 C29            9.7791     8.3464    -6.5094 C.3     
  30 C30           10.9624     6.2598    -6.5319 C.3     
  31 C31            3.5906     2.0471    -3.5414 C.3     
  32 C32            2.4073     4.1337    -3.5189 C.3     
  33 C33           -1.2563    -0.7645     0.0099 C.ar    
  34 C34           -2.4782    -0.0540     0.0254 C.ar    
  35 C35           -2.4608     1.3594     0.0328 C.ar    
  36 C36           -1.1623     2.0492     0.0186 C.2     
  37 O37           -1.1232     3.2646     0.0247 O.2     
  38 C38           -1.2838    -2.1511     0.0033 C.ar    
  39 C39           -2.4994    -2.8254     0.0112 C.ar    
  40 C40           -3.6890    -2.1556     0.0261 C.ar    
  41 C41           -3.7049    -0.7497     0.0329 C.ar    
  42 C42           -4.9032    -0.0145     0.0483 C.ar    
  43 C43           -4.8675     1.3503     0.0541 C.ar    
  44 C44           -3.6648     2.0475     0.0479 C.ar    
  45 C45           17.7974    13.2077   -10.0791 C.3     
  46 H46            1.1400     3.0157     0.5212 H       
  47 H47            2.0180     1.4674     0.5045 H       
  48 H48            1.8060     1.3738    -1.9643 H       
  49 H49            0.9280     2.9221    -1.9476 H       
  50 H50            2.9007     4.0298    -0.9327 H       
  51 H51            3.7787     2.4816    -0.9494 H       
  52 H52            4.5912     5.0036    -2.3287 H       
  53 H53            5.4692     3.4553    -2.3454 H       
  54 H54            5.2571     3.3617    -4.8142 H       
  55 H55            4.3791     4.9099    -4.7975 H       
  56 H56            6.3519     6.0177    -3.7826 H       
  57 H57            7.2299     4.4694    -3.7993 H       
  58 H58            7.0178     4.3758    -6.2681 H       
  59 H59            6.1398     5.9241    -6.2514 H       
  60 H60            8.1125     7.0318    -5.2366 H       
  61 H61            8.9905     5.4836    -5.2533 H       
  62 H62            8.7785     5.3900    -7.7221 H       
  63 H63            7.9005     6.9382    -7.7054 H       
  64 H64           10.4689     6.3637    -9.1181 H       
  65 H65            9.5909     7.9119    -9.1014 H       
  66 H66           11.5637     9.0197    -8.0865 H       
  67 H67           12.4417     7.4714    -8.1032 H       
  68 H68           12.2296     7.3778   -10.5720 H       
  69 H69           11.3516     8.9261   -10.5553 H       
  70 H70           17.5554     8.5722   -10.1037 H       
  71 H71           18.7903    10.7057   -10.1045 H       
  72 H72           15.1149    12.8757   -10.0552 H       
  73 H73            9.4729     8.1617    -5.4797 H       
  74 H74           10.7272     8.8841    -6.5155 H       
  75 H75            9.0191     8.9441    -7.0128 H       
  76 H76           11.0804     5.3092    -7.0520 H       
  77 H77           11.9105     6.7975    -6.5380 H       
  78 H78           10.6561     6.0751    -5.5022 H       
  79 H79            2.6425     1.5094    -3.5353 H       
  80 H80            3.8968     2.2319    -4.5711 H       
  81 H81            4.3505     1.4494    -3.0380 H       
  82 H82            2.2892     5.0843    -2.9988 H       
  83 H83            2.7135     4.3184    -4.5486 H       
  84 H84            1.4592     3.5960    -3.5127 H       
  85 H85           -0.3587    -2.7083    -0.0085 H       
  86 H86           -2.5030    -3.9054     0.0051 H       
  87 H87           -4.6182    -2.7058     0.0320 H       
  88 H88           -5.8524    -0.5296     0.0551 H       
  89 H89           -5.7961     1.9016     0.0652 H       
  90 H90           -3.6682     3.1275     0.0531 H       
  91 H91           17.9728    13.5266   -11.1066 H       
  92 H92           17.2223    13.9710    -9.5549 H       
  93 H93           18.7532    13.0631    -9.5754 H       
@<TRIPOS>BOND
   1    1    2 am
   2    1    3 1
   3    1   36 am
   4    2   17 2
   5    2   33 1
   6    3    4 1
   7    3   46 1
   8    3   47 1
   9    4    5 1
  10    4   48 1
  11    4   49 1
  12    5    6 1
  13    5   50 1
  14    5   51 1
  15    6    7 1
  16    6   31 1
  17    6   32 1
  18    7    8 1
  19    7   52 1
  20    7   53 1
  21    8    9 1
  22    8   54 1
  23    8   55 1
  24    9   10 1
  25    9   56 1
  26    9   57 1
  27   10   11 1
  28   10   58 1
  29   10   59 1
  30   11   12 1
  31   11   60 1
  32   11   61 1
  33   12   13 1
  34   12   62 1
  35   12   63 1
  36   13   14 1
  37   13   29 1
  38   13   30 1
  39   14   15 1
  40   14   64 1
  41   14   65 1
  42   15   18 1
  43   15   66 1
  44   15   67 1
  45   16   19 am
  46   16   18 1
  47   16   22 am
  48   18   68 1
  49   18   69 1
  50   19   20 1
  51   19   27 2
  52   20   21 ar
  53   20   23 ar
  54   21   22 1
  55   21   26 ar
  56   22   28 2
  57   23   24 ar
  58   23   70 1
  59   24   25 ar
  60   24   71 1
  61   25   26 ar
  62   25   45 1
  63   26   72 1
  64   29   73 1
  65   29   74 1
  66   29   75 1
  67   30   76 1
  68   30   77 1
  69   30   78 1
  70   31   79 1
  71   31   80 1
  72   31   81 1
  73   32   82 1
  74   32   83 1
  75   32   84 1
  76   33   34 ar
  77   33   38 ar
  78   34   35 ar
  79   34   41 ar
  80   35   36 1
  81   35   44 ar
  82   36   37 2
  83   38   39 ar
  84   38   85 1
  85   39   40 ar
  86   39   86 1
  87   40   41 ar
  88   40   87 1
  89   41   42 ar
  90   42   43 ar
  91   42   88 1
  92   43   44 ar
  93   43   89 1
  94   44   90 1
  95   45   91 1
  96   45   92 1
  97   45   93 1

#	End of record

