#	Name: ASD03092632
#	Creating user name:	WinNT
#	Creation time:	15. 06. 2019 20:32

#	Modifying user name:	WinNT
#	Modification time:	15. 06. 2019 20:32

#	Program:	/corina/corina34_cracker 3.40 0067  02.08.2006

@<TRIPOS>MOLECULE
ASD03092632
  52   55    0    0    0
SMALL
NO_CHARGES


@<TRIPOS>ATOM
   1 C1             1.0918     1.6358    -0.8826 C.ar    
   2 C2             1.0112     0.2396    -1.0602 C.ar    
   3 C3             1.7586    -0.6023    -0.2072 C.ar    
   4 C4             2.5441    -0.0012     0.7747 C.ar    
   5 C5             2.5635     1.3812     0.8776 C.ar    
   6 N6             1.8583     2.1435     0.0710 N.ar    
   7 N7            -0.3018     1.1558    -2.5771 N.2     
   8 N8             0.2708     2.1935    -1.8320 N.pl3   
   9 C9             0.1292     0.0076    -2.1372 C.2     
  10 C10            1.7090    -2.0727    -0.3509 C.2     
  11 O11            0.6673    -2.6185    -0.6585 O.2     
  12 N12            2.8187    -2.8082    -0.1409 N.am    
  13 C13            3.6131    -4.9139    -1.0309 C.ar    
  14 C14            2.7543    -4.2039    -0.2013 C.ar    
  15 C15            1.8287    -4.9027     0.5697 C.ar    
  16 C16            1.8037    -6.2846     0.4758 C.ar    
  17 C17            2.6908    -6.9199    -0.3729 C.ar    
  18 N18            3.5556    -6.2292    -1.0900 N.ar    
  19 C19            0.8780    -4.1735     1.4838 C.3     
  20 C20            4.6163    -4.1723    -1.8762 C.3     
  21 C21            0.0450     3.5626    -2.0214 C.ar    
  22 C22           -0.1504     4.0652    -3.3011 C.ar    
  23 C23           -0.4020     6.2674    -2.3953 C.ar    
  24 C24            0.0103     4.4197    -0.9292 C.ar    
  25 C25           -0.3733     5.4158    -3.4844 C.ar    
  26 C26           -0.2131     5.7693    -1.1192 C.ar    
  27 C27           -0.6455     7.7406    -2.5990 C.3     
  28 C28            3.4140     2.0265     1.9413 C.3     
  29 C29           -0.2569    -1.3435    -2.6819 C.3     
  30 H30            3.1317    -0.6065     1.4491 H       
  31 H31            3.6620    -2.3695     0.0522 H       
  32 H32            1.0994    -6.8591     1.0592 H       
  33 H33            2.6757    -7.9971    -0.4495 H       
  34 H34           -0.0810    -4.0440     0.9822 H       
  35 H35            0.7355    -4.7524     2.3963 H       
  36 H36            1.2920    -3.1967     1.7342 H       
  37 H37            5.5711    -4.1280    -1.3521 H       
  38 H38            4.7466    -4.6921    -2.8254 H       
  39 H39            4.2569    -3.1602    -2.0626 H       
  40 H40           -0.1277     3.4007    -4.1522 H       
  41 H41            0.1574     4.0312     0.0677 H       
  42 H42           -0.5249     5.8073    -4.4795 H       
  43 H43           -0.2357     6.4370    -0.2706 H       
  44 H44           -1.7159     7.9416    -2.5542 H       
  45 H45           -0.1369     8.3045    -1.8170 H       
  46 H46           -0.2598     8.0414    -3.5731 H       
  47 H47            4.4099     2.2198     1.5425 H       
  48 H48            2.9576     2.9668     2.2504 H       
  49 H49            3.4897     1.3596     2.8001 H       
  50 H50           -1.0728    -1.7551    -2.0877 H       
  51 H51           -0.5788    -1.2391    -3.7180 H       
  52 H52            0.6015    -2.0134    -2.6338 H       
@<TRIPOS>BOND
   1    1    2 ar
   2    1    6 ar
   3    1    8 1
   4    2    3 ar
   5    2    9 1
   6    3    4 ar
   7    3   10 1
   8    4    5 ar
   9    4   30 1
  10    5    6 ar
  11    5   28 1
  12    7    8 1
  13    7    9 2
  14    8   21 1
  15    9   29 1
  16   10   11 2
  17   10   12 am
  18   12   14 1
  19   12   31 1
  20   13   14 ar
  21   13   18 ar
  22   13   20 1
  23   14   15 ar
  24   15   16 ar
  25   15   19 1
  26   16   17 ar
  27   16   32 1
  28   17   18 ar
  29   17   33 1
  30   19   34 1
  31   19   35 1
  32   19   36 1
  33   20   37 1
  34   20   38 1
  35   20   39 1
  36   21   22 ar
  37   21   24 ar
  38   22   25 ar
  39   22   40 1
  40   23   25 ar
  41   23   26 ar
  42   23   27 1
  43   24   26 ar
  44   24   41 1
  45   25   42 1
  46   26   43 1
  47   27   44 1
  48   27   45 1
  49   27   46 1
  50   28   47 1
  51   28   48 1
  52   28   49 1
  53   29   50 1
  54   29   51 1
  55   29   52 1

#	End of record

