#	Name: ASD01900428
#	Creating user name:	WinNT
#	Creation time:	15. 06. 2019 19:51

#	Modifying user name:	WinNT
#	Modification time:	15. 06. 2019 19:51

#	Program:	/corina/corina34_cracker 3.40 0067  02.08.2006

@<TRIPOS>MOLECULE
ASD01900428
  38   40    0    0    0
SMALL
NO_CHARGES


@<TRIPOS>ATOM
   1 C1             0.0217     1.5254     0.5451 C.ar    
   2 C2             0.0790     0.2325     1.0995 C.ar    
   3 C3             1.3207    -0.3824     1.2563 C.ar    
   4 C4             2.4475     0.3096     0.8578 C.ar    
   5 C5             2.3166     1.5827     0.3185 C.ar    
   6 N6             1.1392     2.1479     0.1776 N.ar    
   7 N7            -2.0767     0.8899     1.0055 N.2     
   8 N8            -1.2091    -0.1429     1.3757 N.pl3   
   9 C9            -1.3960     1.8927     0.5174 C.2     
  10 N10           -1.9266     3.0976     0.0457 N.pl3   
  11 C11           -3.3108     3.2702    -0.0270 C.ar    
  12 C12           -3.8617     4.5399     0.0972 C.ar    
  13 C13           -5.2304     4.7069     0.0249 C.ar    
  14 C14           -6.0529     3.6121    -0.1703 C.ar    
  15 C15           -5.5081     2.3473    -0.2942 C.ar    
  16 C16           -4.1395     2.1737    -0.2291 C.ar    
  17 C17           -5.8288     6.0834     0.1594 C.3     
  18 C18           -5.2866     6.9859    -0.9508 C.3     
  19 C19           -7.3516     5.9911     0.0435 C.3     
  20 C20           -5.4556     6.6708     1.5219 C.3     
  21 H21            1.3993    -1.3733     1.6785 H       
  22 H22            3.4251    -0.1366     0.9653 H       
  23 H23            3.2012     2.1194     0.0089 H       
  24 H24           -1.4769    -0.9898     1.7655 H       
  25 H25           -1.3334     3.8134    -0.2310 H       
  26 H26           -3.2201     5.3950     0.2503 H       
  27 H27           -7.1232     3.7455    -0.2258 H       
  28 H28           -6.1533     1.4947    -0.4466 H       
  29 H29           -3.7143     1.1862    -0.3308 H       
  30 H30           -5.5525     6.5674    -1.9216 H       
  31 H31           -5.7195     7.9815    -0.8536 H       
  32 H32           -4.2018     7.0516    -0.8683 H       
  33 H33           -7.7378     5.3481     0.8345 H       
  34 H34           -7.7844     6.9867     0.1408 H       
  35 H35           -7.6174     5.5726    -0.9272 H       
  36 H36           -4.3708     6.7366     1.6045 H       
  37 H37           -5.8885     7.6665     1.6192 H       
  38 H38           -5.8419     6.0279     2.3129 H       
@<TRIPOS>BOND
   1    1    2 ar
   2    1    6 ar
   3    1    9 1
   4    2    3 ar
   5    2    8 1
   6    3    4 ar
   7    3   21 1
   8    4    5 ar
   9    4   22 1
  10    5    6 ar
  11    5   23 1
  12    7    8 1
  13    7    9 2
  14    8   24 1
  15    9   10 1
  16   10   11 1
  17   10   25 1
  18   11   12 ar
  19   11   16 ar
  20   12   13 ar
  21   12   26 1
  22   13   14 ar
  23   13   17 1
  24   14   15 ar
  25   14   27 1
  26   15   16 ar
  27   15   28 1
  28   16   29 1
  29   17   18 1
  30   17   20 1
  31   17   19 1
  32   18   30 1
  33   18   31 1
  34   18   32 1
  35   19   33 1
  36   19   34 1
  37   19   35 1
  38   20   36 1
  39   20   37 1
  40   20   38 1

#	End of record

