#	Name: ASD07300633
#	Creating user name:	WinNT
#	Creation time:	15. 06. 2019 21:10

#	Modifying user name:	WinNT
#	Modification time:	15. 06. 2019 21:10

#	Program:	/corina/corina34_cracker 3.40 0067  02.08.2006

@<TRIPOS>MOLECULE
ASD07300633
  23   24    0    0    0
SMALL
NO_CHARGES


@<TRIPOS>ATOM
   1 C1            -0.0171     1.4104     0.0098 C.2     
   2 C2             0.0021    -0.0041     0.0020 C.2     
   3 N3             1.1801     2.0867     0.0020 N.pl3   
   4 N4             1.1497    -0.6377    -0.0123 N.2     
   5 C5             2.3103     0.0243    -0.0199 C.2     
   6 C6             2.3485     1.3722    -0.0130 C.2     
   7 N7            -0.9970     2.2933     0.0291 N.2     
   8 C8            -0.4709     3.5306     0.0278 C.2     
   9 C9             0.9027     3.4076     0.0117 C.2     
  10 C10           -1.2288     4.7960     0.0459 C.2     
  11 O11           -0.6383     5.8579     0.0422 O.2     
  12 O12           -2.5759     4.7743     0.0665 O.3     
  13 Cl13          -1.4869    -0.8965     0.0120 Cl      
  14 C14           -3.2557     6.0572     0.0834 C.3     
  15 C15           -4.7689     5.8323     0.1055 C.3     
  16 H16            3.2363    -0.5313    -0.0317 H       
  17 H17            3.2979     1.8869    -0.0196 H       
  18 H18            1.6202     4.2148     0.0096 H       
  19 H19           -2.9581     6.6144     0.9718 H       
  20 H20           -2.9855     6.6234    -0.8080 H       
  21 H21           -5.0664     5.2752    -0.7828 H       
  22 H22           -5.0391     5.2662     0.9969 H       
  23 H23           -5.2792     6.7954     0.1182 H       
@<TRIPOS>BOND
   1    1    2 1
   2    1    3 1
   3    1    7 2
   4    2    4 2
   5    2   13 1
   6    3    6 1
   7    3    9 1
   8    4    5 1
   9    5    6 2
  10    5   16 1
  11    6   17 1
  12    7    8 1
  13    8    9 2
  14    8   10 1
  15    9   18 1
  16   10   11 2
  17   10   12 1
  18   12   14 1
  19   14   15 1
  20   14   19 1
  21   14   20 1
  22   15   21 1
  23   15   22 1
  24   15   23 1

#	End of record

