#	Name: ASD08170523
#	Creating user name:	WinNT
#	Creation time:	15. 06. 2019 21:17

#	Modifying user name:	WinNT
#	Modification time:	15. 06. 2019 21:17

#	Program:	/corina/corina34_cracker 3.40 0067  02.08.2006

@<TRIPOS>MOLECULE
ASD08170523
  78   81    0    0    0
SMALL
NO_CHARGES


@<TRIPOS>ATOM
   1 N1            -0.0159     1.3150     0.0224 N.ar    
   2 C2             0.0017    -0.0034     0.0124 C.ar    
   3 C3            -1.2931    -0.7743     0.0243 C.3     
   4 C4            -4.2984    -0.6746     2.4294 C.3     
   5 C5            -5.5932    -1.4455     2.4412 C.2     
   6 N6            -5.8033    -2.5767     3.0361 N.2     
   7 N7            -6.9625    -3.0651     2.9277 N.2     
   8 C8            -7.8359    -2.3975     2.2358 C.2     
   9 S9            -7.0970    -0.9657     1.6538 S.3     
  10 N10           -9.1540    -2.7791     2.0098 N.am    
  11 C11           -3.4530    -1.1158     1.2328 C.3     
  12 C12           -2.1384    -0.3331     1.2208 C.3     
  13 C13            1.2122    -0.6808    -0.0095 C.ar    
  14 C14            2.3785     0.0690    -0.0202 C.ar    
  15 C15            2.2616     1.4575    -0.0083 C.ar    
  16 N16            1.0600     2.0148     0.0126 N.ar    
  17 N17            3.4043     2.2567    -0.0179 N.am    
  18 C18           -9.6205    -3.9317     2.5297 C.2     
  19 O19           -8.8908    -4.6361     3.1947 O.2     
  20 C20          -11.0488    -4.3451     2.2847 C.3     
  21 C21            3.2889     3.5963    -0.1113 C.2     
  22 C22            4.5141     4.4673    -0.0047 C.3     
  23 O23            2.1992     4.1007    -0.2812 O.2     
  24 C24            4.1152     5.9141    -0.1410 C.ar    
  25 C25            4.0794     6.5066    -1.3894 C.ar    
  26 C26            3.7797     6.6473     0.9819 C.ar    
  27 C27          -11.3154    -5.6609     2.9693 C.ar    
  28 C28          -11.7760    -5.6812     4.2722 C.ar    
  29 C29          -12.0205    -6.8884     4.9003 C.ar    
  30 C30          -11.8047    -8.0749     4.2251 C.ar    
  31 C31          -11.3447    -8.0546     2.9214 C.ar    
  32 C32          -11.1045    -6.8477     2.2921 C.ar    
  33 C33          -11.1090    -9.3483     2.1854 C.3     
  34 N34          -12.3350    -9.7437     1.4877 N.am    
  35 C35          -12.3600   -10.8769     0.7586 C.2     
  36 C36          -13.6212   -11.2836     0.0410 C.3     
  37 O37          -11.3674   -11.5694     0.6801 O.2     
  38 C38            3.4139     7.9744     0.8570 C.ar    
  39 C39            3.3840     8.5686    -0.3908 C.ar    
  40 C40            3.7135     7.8338    -1.5144 C.ar    
  41 C41          -14.5282   -12.0553     1.0015 C.3     
  42 O42          -14.3024   -10.1165    -0.4234 O.3     
  43 C43          -13.2651   -12.1744    -1.1509 C.3     
  44 F44          -12.5981   -13.3171    -0.6963 F       
  45 F45          -14.4359   -12.5520    -1.8171 F       
  46 F46          -12.4357   -11.4688    -2.0291 F       
  47 H47           -1.8401    -0.5802    -0.8983 H       
  48 H48           -1.0805    -1.8405     0.1031 H       
  49 H49           -4.5110     0.3916     2.3505 H       
  50 H50           -3.7514    -0.8687     3.3520 H       
  51 H51           -9.7376    -2.2157     1.4779 H       
  52 H52           -3.2404    -2.1820     1.3116 H       
  53 H53           -4.0000    -0.9216     0.3102 H       
  54 H54           -1.5915    -0.5273     2.1434 H       
  55 H55           -2.3511     0.7331     1.1420 H       
  56 H56            1.2451    -1.7603    -0.0176 H       
  57 H57            3.3472    -0.4082    -0.0369 H       
  58 H58            4.2821     1.8485     0.0427 H       
  59 H59          -11.7206    -3.5852     2.6839 H       
  60 H60          -11.2174    -4.4524     1.2132 H       
  61 H61            4.9880     4.3107     0.9643 H       
  62 H62            5.2148     4.2073    -0.7981 H       
  63 H63            4.3376     5.9327    -2.2671 H       
  64 H64            3.8031     6.1830     1.9568 H       
  65 H65          -11.9447    -4.7541     4.7998 H       
  66 H66          -12.3798    -6.9042     5.9187 H       
  67 H67          -11.9950    -9.0179     4.7159 H       
  68 H68          -10.7452    -6.8319     1.2737 H       
  69 H69          -10.3061    -9.2129     1.4607 H       
  70 H70          -10.8291   -10.1253     2.8968 H       
  71 H71          -13.1289    -9.1898     1.5505 H       
  72 H72            3.1511     8.5470     1.7342 H       
  73 H73            3.0978     9.6054    -0.4885 H       
  74 H74            3.6901     8.2980    -2.4892 H       
  75 H75          -14.7819   -11.4207     1.8506 H       
  76 H76          -15.4404   -12.3495     0.4824 H       
  77 H77          -14.0086   -12.9456     1.3557 H       
  78 H78          -13.7855    -9.5777    -1.0379 H       
@<TRIPOS>BOND
   1    1    2 ar
   2    1   16 ar
   3    2    3 1
   4    2   13 ar
   5    3   12 1
   6    3   47 1
   7    3   48 1
   8    4    5 1
   9    4   11 1
  10    4   49 1
  11    4   50 1
  12    5    6 2
  13    5    9 1
  14    6    7 1
  15    7    8 2
  16    8    9 1
  17    8   10 1
  18   10   18 am
  19   10   51 1
  20   11   12 1
  21   11   52 1
  22   11   53 1
  23   12   54 1
  24   12   55 1
  25   13   14 ar
  26   13   56 1
  27   14   15 ar
  28   14   57 1
  29   15   16 ar
  30   15   17 1
  31   17   21 am
  32   17   58 1
  33   18   19 2
  34   18   20 1
  35   20   27 1
  36   20   59 1
  37   20   60 1
  38   21   22 1
  39   21   23 2
  40   22   24 1
  41   22   61 1
  42   22   62 1
  43   24   26 ar
  44   24   25 ar
  45   25   40 ar
  46   25   63 1
  47   26   38 ar
  48   26   64 1
  49   27   28 ar
  50   27   32 ar
  51   28   29 ar
  52   28   65 1
  53   29   30 ar
  54   29   66 1
  55   30   31 ar
  56   30   67 1
  57   31   32 ar
  58   31   33 1
  59   32   68 1
  60   33   34 1
  61   33   69 1
  62   33   70 1
  63   34   35 am
  64   34   71 1
  65   35   36 1
  66   35   37 2
  67   36   41 1
  68   36   42 1
  69   36   43 1
  70   38   39 ar
  71   38   72 1
  72   39   40 ar
  73   39   73 1
  74   40   74 1
  75   41   75 1
  76   41   76 1
  77   41   77 1
  78   42   78 1
  79   43   44 1
  80   43   45 1
  81   43   46 1

#	End of record

