#	Name: ASD05720204
#	Creating user name:	WinNT
#	Creation time:	15. 06. 2019 21:02

#	Modifying user name:	WinNT
#	Modification time:	15. 06. 2019 21:02

#	Program:	/corina/corina34_cracker 3.40 0067  02.08.2006

@<TRIPOS>MOLECULE
ASD05720204
  27   25    0    0    0
SMALL
NO_CHARGES


@<TRIPOS>ATOM
   1 C1            -0.0187     1.5258     0.0104 C.3     
   2 C2             0.0021    -0.0041     0.0020 C.3     
   3 C3            -1.4075    -0.5249    -0.1112 C.ar    
   4 C4            -1.8502    -1.0463    -1.3151 C.ar    
   5 C5            -3.1507    -1.5236    -1.4070 C.ar    
   6 C6            -3.9582    -1.4581    -0.2820 C.ar    
   7 C7            -3.4460    -0.9240     0.8851 C.ar    
   8 N8            -2.2039    -0.4842     0.9388 N.ar    
   9 C9            -4.3160    -0.8481     2.1132 C.3     
  10 F10           -1.0278    -1.0896    -2.3861 F       
  11 N11            0.6059    -0.4925     1.2489 N.3     
  12 O12            1.3220     2.0204     0.0003 O.3     
  13 H13           -0.5459     1.8868    -0.8726 H       
  14 H14           -0.5289     1.8773     0.9072 H       
  15 H15            0.5883    -0.3548    -0.8473 H       
  16 H16           -3.5245    -1.9356    -2.3327 H       
  17 H17           -4.9752    -1.8198    -0.3173 H       
  18 H18           -4.2038    -1.7629     2.6951 H       
  19 H19           -4.0156     0.0069     2.7190 H       
  20 H20           -5.3578    -0.7332     1.8140 H       
  21 H21            1.5722    -0.2103     1.3175 H       
  22 H22            0.0803    -0.1804     2.0517 H       
  23 H23            1.3852     2.9853     0.0049 H       
  24 Cl24           6.5722     7.9853     7.7190 Cl      
  25 H25            6.5722     9.3553     7.7190 H       
  26 Cl26          11.5722    14.3553    12.7190 Cl      
  27 H27           11.5722    15.7253    12.7190 H       
@<TRIPOS>BOND
   1    1    2 1
   2    1   12 1
   3    1   13 1
   4    1   14 1
   5    2    3 1
   6    2   11 1
   7    2   15 1
   8    3    4 ar
   9    3    8 ar
  10    4    5 ar
  11    4   10 1
  12    5    6 ar
  13    5   16 1
  14    6    7 ar
  15    6   17 1
  16    7    8 ar
  17    7    9 1
  18    9   18 1
  19    9   19 1
  20    9   20 1
  21   11   21 1
  22   11   22 1
  23   12   23 1
  24   24   25 1
  25   26   27 1

#	End of record

