#	Name: ASD01883052
#	Creating user name:	WinNT
#	Creation time:	15. 06. 2019 19:45

#	Modifying user name:	WinNT
#	Modification time:	15. 06. 2019 19:45

#	Program:	/corina/corina34_cracker 3.40 0067  02.08.2006

@<TRIPOS>MOLECULE
ASD01883052
  58   62    0    0    0
SMALL
NO_CHARGES


@<TRIPOS>ATOM
   1 N1            -0.0676     1.2329     1.3318 N.am    
   2 C2            -0.0480     0.0627     0.6673 C.2     
   3 C3            -1.2575    -0.6362     0.4310 C.2     
   4 C4            -2.4605    -0.0817     0.9028 C.2     
   5 C5            -2.4148     1.1465     1.5916 C.2     
   6 C6            -1.2292     1.7651     1.7916 C.2     
   7 O7             1.0094    -0.3952     0.2687 O.2     
   8 C8            -1.2550    -1.8822    -0.2747 C.1     
   9 N9            -1.2531    -2.8707    -0.8346 N.1     
  10 C10            1.1909     1.9442     1.5693 C.3     
  11 C11           -3.7472    -0.7733     0.6803 C.ar    
  12 C12            1.4656     2.8975     0.4045 C.3     
  13 C13            2.6794     3.8218     0.5192 C.3     
  14 C14            2.7104     2.6345    -0.4452 C.3     
  15 C15           -4.4770    -1.2614     1.7669 C.ar    
  16 C16           -5.6763    -1.9051     1.5554 C.ar    
  17 C17           -6.1602    -2.0696     0.2629 C.ar    
  18 C18           -5.4368    -1.5858    -0.8207 C.ar    
  19 C19           -4.2398    -0.9356    -0.6169 C.ar    
  20 O20           -7.3423    -2.7050     0.0584 O.3     
  21 C21           -8.4771    -1.9603     0.0737 C.ar    
  22 C22           -8.4184    -0.5713     0.1855 C.ar    
  23 C23           -9.5908     0.1536     0.1973 C.ar    
  24 N24          -10.7619    -0.4489     0.1045 N.ar    
  25 C25          -10.8622    -1.7658    -0.0032 C.ar    
  26 C26           -9.7253    -2.5628    -0.0274 C.ar    
  27 N27          -12.1180    -2.3550    -0.0977 N.3     
  28 C28          -13.1793    -1.3409    -0.0584 C.3     
  29 C29          -14.5335    -2.0079    -0.3101 C.3     
  30 C30          -14.7795    -3.0730     0.7620 C.3     
  31 C31          -13.6352    -4.0899     0.7322 C.3     
  32 C32          -12.3070    -3.3626     0.9537 C.3     
  33 H33           -3.3260     1.5918     1.9629 H       
  34 H34           -1.2065     2.7060     2.3212 H       
  35 H35            1.1170     2.5141     2.4955 H       
  36 H36            2.0055     1.2245     1.6496 H       
  37 H37            0.5827     3.2868    -0.1026 H       
  38 H38            2.5953     4.8190     0.0873 H       
  39 H39            3.2823     3.7508     1.4245 H       
  40 H40            3.3338     1.7823    -0.1744 H       
  41 H41            2.6467     2.8505    -1.5117 H       
  42 H42           -4.1013    -1.1345     2.7714 H       
  43 H43           -6.2411    -2.2827     2.3949 H       
  44 H44           -5.8159    -1.7160    -1.8236 H       
  45 H45           -3.6784    -0.5596    -1.4595 H       
  46 H46           -7.4652    -0.0694     0.2623 H       
  47 H47           -9.5508     1.2294     0.2840 H       
  48 H48           -9.8102    -3.6359    -0.1152 H       
  49 H49          -13.1871    -0.8611     0.9203 H       
  50 H50          -12.9947    -0.5919    -0.8284 H       
  51 H51          -15.3227    -1.2574    -0.2653 H       
  52 H52          -14.5312    -2.4761    -1.2944 H       
  53 H53          -14.8207    -2.5997     1.7430 H       
  54 H54          -15.7231    -3.5805     0.5616 H       
  55 H55          -13.7825    -4.8269     1.5216 H       
  56 H56          -13.6187    -4.5909    -0.2358 H       
  57 H57          -11.4888    -4.0819     0.9187 H       
  58 H58          -12.3189    -2.8733     1.9277 H       
@<TRIPOS>BOND
   1    1    2 am
   2    1   10 1
   3    1    6 1
   4    2    3 1
   5    2    7 2
   6    3    4 2
   7    3    8 1
   8    4    5 1
   9    4   11 1
  10    5    6 2
  11    5   33 1
  12    6   34 1
  13    8    9 3
  14   10   12 1
  15   10   35 1
  16   10   36 1
  17   11   15 ar
  18   11   19 ar
  19   12   13 1
  20   12   14 1
  21   12   37 1
  22   13   14 1
  23   13   38 1
  24   13   39 1
  25   14   40 1
  26   14   41 1
  27   15   16 ar
  28   15   42 1
  29   16   17 ar
  30   16   43 1
  31   17   18 ar
  32   17   20 1
  33   18   19 ar
  34   18   44 1
  35   19   45 1
  36   20   21 1
  37   21   22 ar
  38   21   26 ar
  39   22   23 ar
  40   22   46 1
  41   23   24 ar
  42   23   47 1
  43   24   25 ar
  44   25   26 ar
  45   25   27 1
  46   26   48 1
  47   27   28 1
  48   27   32 1
  49   28   29 1
  50   28   49 1
  51   28   50 1
  52   29   30 1
  53   29   51 1
  54   29   52 1
  55   30   31 1
  56   30   53 1
  57   30   54 1
  58   31   32 1
  59   31   55 1
  60   31   56 1
  61   32   57 1
  62   32   58 1

#	End of record

