#	Name: ASD01812055
#	Creating user name:	WinNT
#	Creation time:	15. 06. 2019 19:27

#	Modifying user name:	WinNT
#	Modification time:	15. 06. 2019 19:27

#	Program:	/corina/corina34_cracker 3.40 0067  02.08.2006

@<TRIPOS>MOLECULE
ASD01812055
  42   44    0    0    0
SMALL
NO_CHARGES


@<TRIPOS>ATOM
   1 C1            -0.0155     1.3837    -0.1248 C.ar    
   2 C2             0.0033    -0.0035    -0.1311 C.ar    
   3 C3             1.1985    -0.6918    -0.1014 C.ar    
   4 C4             2.4039     0.0085    -0.0650 C.ar    
   5 C5             2.3801     1.4131    -0.0593 C.ar    
   6 C6             1.1635     2.0949    -0.0891 C.ar    
   7 F7             1.2012    -2.0428    -0.1070 F       
   8 N8             3.6056    -0.6668    -0.0346 N.pl3   
   9 C9             4.7887    -0.0411     0.0012 C.2     
  10 C10            4.8927     1.3355     0.0103 C.2     
  11 C11            3.6619     2.1417    -0.0208 C.2     
  12 C12            3.5871    -2.1316    -0.0413 C.3     
  13 C13            3.4439    -2.6257    -1.4578 C.2     
  14 C14            4.3305    -3.4768    -1.9559 C.2     
  15 C15            4.1902    -3.9612    -3.3445 C.ar    
  16 O16            3.7001     3.3596    -0.0149 O.2     
  17 C17            6.2106     1.9850     0.0499 C.2     
  18 O18            6.2991     3.3301     0.0585 O.3     
  19 O19            7.2208     1.3091     0.0750 O.2     
  20 C20            5.1241    -4.8597    -3.8740 C.ar    
  21 C21            4.9839    -5.3082    -5.1774 C.ar    
  22 C22            3.9262    -4.8693    -5.9510 C.ar    
  23 C23            3.0008    -3.9810    -5.4311 C.ar    
  24 C24            3.1231    -3.5301    -4.1330 C.ar    
  25 O25            6.1638    -5.2898    -3.1131 O.3     
  26 C26            7.0768    -6.2061    -3.7205 C.3     
  27 H27           -0.9591     1.9085    -0.1525 H       
  28 H28           -0.9276    -0.5503    -0.1591 H       
  29 H29            1.1462     3.1747    -0.0850 H       
  30 H30            5.6917    -0.6330     0.0240 H       
  31 H31            4.5178    -2.5087     0.3827 H       
  32 H32            2.7462    -2.4871     0.5542 H       
  33 H33            2.6193    -2.2867    -2.0672 H       
  34 H34            5.1552    -3.8159    -1.3465 H       
  35 H35            7.1874     3.7114     0.0850 H       
  36 H36            5.7023    -6.0014    -5.5895 H       
  37 H37            3.8213    -5.2210    -6.9667 H       
  38 H38            2.1773    -3.6428    -6.0426 H       
  39 H39            2.3991    -2.8370    -3.7308 H       
  40 H40            7.5280    -5.7419    -4.5974 H       
  41 H41            7.8573    -6.4685    -3.0062 H       
  42 H42            6.5416    -7.1068    -4.0210 H       
@<TRIPOS>BOND
   1    1    2 ar
   2    1    6 ar
   3    1   27 1
   4    2    3 ar
   5    2   28 1
   6    3    4 ar
   7    3    7 1
   8    4    5 ar
   9    4    8 1
  10    5    6 ar
  11    5   11 1
  12    6   29 1
  13    8    9 1
  14    8   12 1
  15    9   10 2
  16    9   30 1
  17   10   11 1
  18   10   17 1
  19   11   16 2
  20   12   13 1
  21   12   31 1
  22   12   32 1
  23   13   14 2
  24   13   33 1
  25   14   15 1
  26   14   34 1
  27   15   20 ar
  28   15   24 ar
  29   17   18 1
  30   17   19 2
  31   18   35 1
  32   20   21 ar
  33   20   25 1
  34   21   22 ar
  35   21   36 1
  36   22   23 ar
  37   22   37 1
  38   23   24 ar
  39   23   38 1
  40   24   39 1
  41   25   26 1
  42   26   40 1
  43   26   41 1
  44   26   42 1

#	End of record

