#	Name: ASD01814593
#	Creating user name:	WinNT
#	Creation time:	15. 06. 2019 19:32

#	Modifying user name:	WinNT
#	Modification time:	15. 06. 2019 19:32

#	Program:	/corina/corina34_cracker 3.40 0067  02.08.2006

@<TRIPOS>MOLECULE
ASD01814593
  47   50    0    0    0
SMALL
NO_CHARGES


@<TRIPOS>ATOM
   1 C1             0.2900     1.7465    -0.5656 C.2     
   2 C2             0.2334     0.3540    -0.4186 C.2     
   3 C3             1.3925    -0.3637    -0.3691 C.2     
   4 C4             2.6238     0.3057    -0.4664 C.2     
   5 N5             2.6496     1.6665    -0.6090 N.am    
   6 C6             1.4847     2.3732    -0.6575 C.2     
   7 C7             3.8164    -0.4296    -0.4157 C.2     
   8 C8             5.0179     0.2109    -0.5088 C.2     
   9 C9             5.0406     1.6103    -0.6559 C.2     
  10 C10            3.8243     2.3216    -0.7032 C.2     
  11 O11            3.8346     3.5343    -0.8309 O.2     
  12 C12            6.3168     2.3217    -0.7577 C.2     
  13 O13            6.3318     3.6632    -0.8985 O.3     
  14 O14            7.3631     1.7028    -0.7151 O.2     
  15 C15            3.7717    -1.9276    -0.2578 C.3     
  16 N16            3.8475    -2.5619    -1.5806 N.3     
  17 C17            4.1707    -3.9872    -1.4622 C.3     
  18 C18            4.1476    -4.6475    -2.8158 C.ar    
  19 C19            3.5272    -4.0633    -3.8997 C.ar    
  20 C20            2.8414    -2.7255    -3.7924 C.3     
  21 C21            2.5894    -2.3847    -2.3233 C.3     
  22 C22            4.7715    -5.8776    -2.9611 C.ar    
  23 C23            4.7727    -6.5197    -4.1832 C.ar    
  24 C24            4.1482    -5.9349    -5.2688 C.ar    
  25 C25            3.5275    -4.7098    -5.1261 C.ar    
  26 C26            5.5644    -4.1398    -0.8496 C.3     
  27 C27            6.5491    -3.4393    -1.6901 C.1     
  28 N28            7.3090    -2.8987    -2.3387 N.1     
  29 H29           -0.6237     2.3206    -0.6100 H       
  30 H30           -0.7205    -0.1471    -0.3447 H       
  31 H31            1.3638    -1.4373    -0.2558 H       
  32 H32            1.5165     3.4468    -0.7703 H       
  33 H33            5.9403    -0.3495    -0.4698 H       
  34 H34            7.1980     4.0883    -0.9615 H       
  35 H35            4.6151    -2.2542     0.3506 H       
  36 H36            2.8397    -2.2139     0.2296 H       
  37 H37            3.4388    -4.4694    -0.8142 H       
  38 H38            3.4737    -1.9579    -4.2386 H       
  39 H39            1.8903    -2.7628    -4.3236 H       
  40 H40            1.8279    -3.0511    -1.9182 H       
  41 H41            2.2571    -1.3500    -2.2392 H       
  42 H42            5.2595    -6.3356    -2.1134 H       
  43 H43            5.2609    -7.4770    -4.2910 H       
  44 H44            4.1460    -6.4347    -6.2262 H       
  45 H45            3.0394    -4.2529    -5.9743 H       
  46 H46            5.5701    -3.7098     0.1519 H       
  47 H47            5.8223    -5.1973    -0.7924 H       
@<TRIPOS>BOND
   1    1    2 1
   2    1    6 2
   3    1   29 1
   4    2    3 2
   5    2   30 1
   6    3    4 1
   7    3   31 1
   8    4    5 1
   9    4    7 2
  10    5    6 1
  11    5   10 am
  12    6   32 1
  13    7    8 1
  14    7   15 1
  15    8    9 2
  16    8   33 1
  17    9   10 1
  18    9   12 1
  19   10   11 2
  20   12   13 1
  21   12   14 2
  22   13   34 1
  23   15   16 1
  24   15   35 1
  25   15   36 1
  26   16   17 1
  27   16   21 1
  28   17   18 1
  29   17   26 1
  30   17   37 1
  31   18   19 ar
  32   18   22 ar
  33   19   20 1
  34   19   25 ar
  35   20   21 1
  36   20   38 1
  37   20   39 1
  38   21   40 1
  39   21   41 1
  40   22   23 ar
  41   22   42 1
  42   23   24 ar
  43   23   43 1
  44   24   25 ar
  45   24   44 1
  46   25   45 1
  47   26   27 1
  48   26   46 1
  49   26   47 1
  50   27   28 3

#	End of record

