#	Name: ASD03240620
#	Creating user name:	WinNT
#	Creation time:	15. 06. 2019 20:35

#	Modifying user name:	WinNT
#	Modification time:	15. 06. 2019 20:35

#	Program:	/corina/corina34_cracker 3.40 0067  02.08.2006

@<TRIPOS>MOLECULE
ASD03240620
  64   70    0    0    0
SMALL
NO_CHARGES


@<TRIPOS>ATOM
   1 C1            -0.0683     1.5862    -0.1762 C.ar    
   2 C2            -0.1151     0.2116    -0.0669 C.ar    
   3 N3             0.9904    -0.4987     0.0528 N.ar    
   4 C4             2.1890     0.0686     0.0742 C.ar    
   5 C5             2.3115     1.4515    -0.0461 C.ar    
   6 C6             1.1646     2.2254    -0.1669 C.ar    
   7 N7             3.3152    -0.7328     0.2389 N.pl3   
   8 C8             4.1304    -0.5905     1.3584 C.ar    
   9 C9             4.8045     0.6115     1.5990 C.ar    
  10 C10            4.6806     1.7372     0.6470 C.2     
  11 N11            3.5665     2.0763    -0.0654 N.pl3   
  12 C12            4.2759    -1.6474     2.2472 C.ar    
  13 C13            5.0736    -1.5054     3.3664 C.ar    
  14 C14            5.7316    -0.3125     3.6119 C.ar    
  15 C15            5.6020     0.7458     2.7352 C.ar    
  16 N16            5.6498     2.5800     0.3530 N.2     
  17 C17            5.2134     3.4763    -0.5476 C.2     
  18 C18            3.8901     3.1771    -0.8324 C.2     
  19 C19            3.0038     3.8932    -1.7693 C.ar    
  20 C20            2.8131     5.2715    -1.6408 C.ar    
  21 C21            2.3554     3.1975    -2.7930 C.ar    
  22 C22            1.5286     3.8737    -3.6655 C.ar    
  23 C23            1.3404     5.2379    -3.5289 C.ar    
  24 C24            1.9834     5.9344    -2.5206 C.ar    
  25 C25            6.0003     4.5802    -1.1283 C.2     
  26 C26            0.4357     5.9697    -4.4866 C.3     
  27 C27            6.1551     4.6102    -2.4324 C.2     
  28 C28            6.9374     5.6667    -3.1567 C.3     
  29 C29            7.1452     6.8822    -2.2508 C.3     
  30 C30            7.6815     6.3956    -0.8989 C.3     
  31 C31            6.5727     5.6072    -0.1953 C.3     
  32 N32           -0.4863     5.0739    -5.1976 N.3     
  33 C33           -0.2529     7.1973    -3.8674 C.3     
  34 C34           -0.0006     7.9149    -5.2039 C.3     
  35 C35            1.1792     6.9500    -5.4091 C.3     
  36 H36           -0.9794     2.1580    -0.2724 H       
  37 H37           -1.0712    -0.2906    -0.0792 H       
  38 H38            1.2300     3.3000    -0.2523 H       
  39 H39            3.5341    -1.3973    -0.4330 H       
  40 H40            3.7648    -2.5809     2.0637 H       
  41 H41            5.1843    -2.3304     4.0545 H       
  42 H42            6.3485    -0.2094     4.4924 H       
  43 H43            6.1165     1.6755     2.9288 H       
  44 H44            3.3140     5.8162    -0.8541 H       
  45 H45            2.5016     2.1329    -2.9010 H       
  46 H46            1.0271     3.3374    -4.4574 H       
  47 H47            1.8318     6.9990    -2.4200 H       
  48 H48            5.6927     3.8290    -3.0175 H       
  49 H49            7.9072     5.2627    -3.4473 H       
  50 H50            6.3925     5.9709    -4.0503 H       
  51 H51            7.8655     7.5607    -2.7078 H       
  52 H52            6.1953     7.3964    -2.1043 H       
  53 H53            8.5477     5.7535    -1.0582 H       
  54 H54            7.9647     7.2524    -0.2874 H       
  55 H55            5.7874     6.2931     0.1223 H       
  56 H56            6.9859     5.1043     0.6790 H       
  57 H57            0.0093     4.2969    -5.6084 H       
  58 H58           -1.2210     4.7515    -4.5858 H       
  59 H59           -1.3092     7.0412    -3.6482 H       
  60 H60            0.2949     7.6291    -3.0298 H       
  61 H61           -0.8038     7.7828    -5.9289 H       
  62 H62            0.3014     8.9560    -5.0903 H       
  63 H63            2.1185     7.3142    -4.9930 H       
  64 H64            1.2790     6.5943    -6.4346 H       
@<TRIPOS>BOND
   1    1    2 ar
   2    1    6 ar
   3    1   36 1
   4    2    3 ar
   5    2   37 1
   6    3    4 ar
   7    4    5 ar
   8    4    7 1
   9    5    6 ar
  10    5   11 1
  11    6   38 1
  12    7    8 1
  13    7   39 1
  14    8    9 ar
  15    8   12 ar
  16    9   10 1
  17    9   15 ar
  18   10   11 1
  19   10   16 2
  20   11   18 1
  21   12   13 ar
  22   12   40 1
  23   13   14 ar
  24   13   41 1
  25   14   15 ar
  26   14   42 1
  27   15   43 1
  28   16   17 1
  29   17   18 2
  30   17   25 1
  31   18   19 1
  32   19   20 ar
  33   19   21 ar
  34   20   24 ar
  35   20   44 1
  36   21   22 ar
  37   21   45 1
  38   22   23 ar
  39   22   46 1
  40   23   24 ar
  41   23   26 1
  42   24   47 1
  43   25   27 2
  44   25   31 1
  45   26   33 1
  46   26   32 1
  47   26   35 1
  48   27   28 1
  49   27   48 1
  50   28   29 1
  51   28   49 1
  52   28   50 1
  53   29   30 1
  54   29   51 1
  55   29   52 1
  56   30   31 1
  57   30   53 1
  58   30   54 1
  59   31   55 1
  60   31   56 1
  61   32   57 1
  62   32   58 1
  63   33   34 1
  64   33   59 1
  65   33   60 1
  66   34   35 1
  67   34   61 1
  68   34   62 1
  69   35   63 1
  70   35   64 1

#	End of record

