#	Name: ASD00845081
#	Creating user name:	WinNT
#	Creation time:	15. 06. 2019 18:51

#	Modifying user name:	WinNT
#	Modification time:	15. 06. 2019 18:51

#	Program:	/corina/corina34_cracker 3.40 0067  02.08.2006

@<TRIPOS>MOLECULE
ASD00845081
  84   89    0    0    0
SMALL
NO_CHARGES


@<TRIPOS>ATOM
   1 C1            -0.0167     1.3829     0.0096 C.ar    
   2 C2             0.0021    -0.0041     0.0020 C.ar    
   3 C3             1.2143    -0.6791    -0.0132 C.ar    
   4 C4             2.3989     0.0312    -0.0207 C.ar    
   5 C5             2.3774     1.4139    -0.0126 C.ar    
   6 C6             1.1710     2.0888     0.0021 C.ar    
   7 C7             1.2384    -2.1858    -0.0210 C.3     
   8 C8             0.4953    -2.7219    -1.2261 C.2     
   9 O9             2.6067    -2.6715    -0.0096 O.3     
  10 C10            3.3981    -2.2932    -1.0311 C.2     
  11 N11            4.6791    -2.7091    -1.0809 N.am    
  12 O12            2.9573    -1.5769    -1.9081 O.2     
  13 C13            5.5549    -2.3047    -2.1891 C.3     
  14 C14            6.1664    -3.5607    -2.8178 C.3     
  15 C15            6.8654    -4.3815    -1.7316 C.3     
  16 C16            5.8417    -4.8169    -0.6807 C.3     
  17 C17            5.2280    -3.5705    -0.0248 C.3     
  18 C18            7.5071    -5.6193    -2.3616 C.3     
  19 C19            8.5330    -5.1853    -3.4122 C.3     
  20 C20            9.2147    -6.4252    -3.9952 C.3     
  21 N21            9.8764    -7.1732    -2.9187 N.3     
  22 C22            8.9046    -7.6411    -1.9221 C.3     
  23 C23            8.2137    -6.4375    -1.2772 C.3     
  24 H24           10.4127    -7.9431    -3.2900 H       
  25 O25            0.7737    -2.5253    -2.3901 O.2     
  26 N26           -0.5308    -3.4561    -0.7640 N.am    
  27 C27            0.4691    -2.7339     1.1590 C.ar    
  28 C28           -0.5747    -3.4836     0.6309 C.ar    
  29 C29            0.6332    -2.6128     2.5205 C.ar    
  30 C30           -0.2492    -3.2434     3.3816 C.ar    
  31 C31           -1.2945    -3.9941     2.8677 C.ar    
  32 C32           -1.4596    -4.1159     1.5012 C.ar    
  33 Cl33          -0.0462    -3.0943     5.0993 Cl      
  34 F34           -2.1562    -4.6098     3.7065 F       
  35 C35           -0.9806    -5.8529    -2.0396 C.ar    
  36 C36           -1.3049    -6.8934    -1.1887 C.ar    
  37 C37           -0.1614    -6.0785    -3.1304 C.ar    
  38 C38            0.3352    -7.3446    -3.3726 C.ar    
  39 C39            0.0113    -8.3903    -2.5204 C.ar    
  40 C40           -0.8105    -8.1613    -1.4264 C.ar    
  41 O41            0.4982    -9.6368    -2.7568 O.3     
  42 H42           -1.9450    -6.7147    -0.3374 H       
  43 C43            0.1232   -10.6649    -1.8378 C.3     
  44 S44           -1.6183    -4.2384    -1.7375 S.o2    
  45 O45           -2.7976    -4.4110    -0.9639 O.2     
  46 O46           -1.6001    -3.5597    -2.9858 O.2     
  47 O47           -1.1648    -0.7006     0.0099 O.3     
  48 C48           -2.3744     0.0601     0.0260 C.3     
  49 C49           -3.5740    -0.8895     0.0328 C.3     
  50 F50           -3.5417    -1.6899    -1.1142 F       
  51 F51           -3.5190    -1.7022     1.1702 F       
  52 H52           -0.9590     1.9106     0.0170 H       
  53 H53            3.3426    -0.4937    -0.0325 H       
  54 H54            3.3047     1.9675    -0.0178 H       
  55 H55            1.1569     3.1687     0.0084 H       
  56 H56            4.9725    -1.7678    -2.9379 H       
  57 H57            6.3494    -1.6615    -1.8109 H       
  58 H58            5.3785    -4.1590    -3.2754 H       
  59 H59            6.8917    -3.2708    -3.5781 H       
  60 H60            7.6367    -3.7744    -1.2576 H       
  61 H61            5.0568    -5.4033    -1.1584 H       
  62 H62            6.3358    -5.4210     0.0802 H       
  63 H63            5.9974    -3.0330     0.5295 H       
  64 H64            4.4287    -3.8703     0.6529 H       
  65 H65            6.7366    -6.2282    -2.8346 H       
  66 H66            8.0287    -4.6386    -4.2091 H       
  67 H67            9.2811    -4.5435    -2.9469 H       
  68 H68            8.4678    -7.0597    -4.4724 H       
  69 H69            9.9559    -6.1188    -4.7334 H       
  70 H70            8.1592    -8.2699    -2.4090 H       
  71 H71            9.4207    -8.2179    -1.1546 H       
  72 H72            8.9568    -5.8154    -0.7783 H       
  73 H73            7.4813    -6.7855    -0.5488 H       
  74 H74            1.4495    -2.0270     2.9166 H       
  75 H75           -2.2766    -4.7022     1.1071 H       
  76 H76            0.0901    -5.2642    -3.7938 H       
  77 H77            0.9747    -7.5204    -4.2250 H       
  78 H78           -1.0644    -8.9737    -0.7616 H       
  79 H79            0.5785   -11.6075    -2.1415 H       
  80 H80            0.4668   -10.4011    -0.8376 H       
  81 H81           -0.9617   -10.7702    -1.8333 H       
  82 H82           -2.3995     0.6837     0.9196 H       
  83 H83           -2.4172     0.6932    -0.8603 H       
  84 H84           -4.4966    -0.3093     0.0451 H       
@<TRIPOS>BOND
   1    1    2 ar
   2    1    6 ar
   3    1   52 1
   4    2    3 ar
   5    2   47 1
   6    3    4 ar
   7    3    7 1
   8    4    5 ar
   9    4   53 1
  10    5    6 ar
  11    5   54 1
  12    6   55 1
  13    7    8 1
  14    7    9 1
  15    7   27 1
  16    8   25 2
  17    8   26 am
  18    9   10 1
  19   10   11 am
  20   10   12 2
  21   11   13 1
  22   11   17 1
  23   13   14 1
  24   13   56 1
  25   13   57 1
  26   14   15 1
  27   14   58 1
  28   14   59 1
  29   15   16 1
  30   15   18 1
  31   15   60 1
  32   16   17 1
  33   16   61 1
  34   16   62 1
  35   17   63 1
  36   17   64 1
  37   18   19 1
  38   18   23 1
  39   18   65 1
  40   19   20 1
  41   19   66 1
  42   19   67 1
  43   20   21 1
  44   20   68 1
  45   20   69 1
  46   21   22 1
  47   21   24 1
  48   22   23 1
  49   22   70 1
  50   22   71 1
  51   23   72 1
  52   23   73 1
  53   26   44 am
  54   26   28 1
  55   27   28 ar
  56   27   29 ar
  57   28   32 ar
  58   29   30 ar
  59   29   74 1
  60   30   31 ar
  61   30   33 1
  62   31   32 ar
  63   31   34 1
  64   32   75 1
  65   35   36 ar
  66   35   37 ar
  67   35   44 1
  68   36   42 1
  69   36   40 ar
  70   37   38 ar
  71   37   76 1
  72   38   39 ar
  73   38   77 1
  74   39   40 ar
  75   39   41 1
  76   40   78 1
  77   41   43 1
  78   43   79 1
  79   43   80 1
  80   43   81 1
  81   44   45 2
  82   44   46 2
  83   47   48 1
  84   48   49 1
  85   48   82 1
  86   48   83 1
  87   49   50 1
  88   49   51 1
  89   49   84 1

#	End of record

