#	Name: ASD02860004
#	Creating user name:	WinNT
#	Creation time:	15. 06. 2019 20:26

#	Modifying user name:	WinNT
#	Modification time:	15. 06. 2019 20:26

#	Program:	/corina/corina34_cracker 3.40 0067  02.08.2006

@<TRIPOS>MOLECULE
ASD02860004
 108  109    0    0    0
SMALL
NO_CHARGES


@<TRIPOS>ATOM
   1 N1            -1.2266     1.7041    -2.0329 N.3     
   2 C2            -1.5041     0.3106    -2.4056 C.3     
   3 C3            -1.4087     0.1624    -3.9023 C.2     
   4 N4            -1.2220    -1.0556    -4.4483 N.am    
   5 O5            -1.4999     1.1391    -4.6154 O.2     
   6 C6            -2.9124    -0.0700    -1.9442 C.3     
   7 C7            -2.9738    -0.0400    -0.4157 C.3     
   8 C8            -4.3820    -0.4206     0.0457 C.3     
   9 N9            -4.4408    -0.3918     1.5092 N.pl3   
  10 C10           -5.6139    -0.7007     2.1563 C.2     
  11 N11           -5.6691    -0.6737     3.5298 N.am    
  12 N12           -6.6737    -1.0191     1.4676 N.2     
  13 C13           -1.1293    -1.1997    -5.9033 C.3     
  14 C14           -0.9190    -2.6732    -6.2575 C.3     
  15 C15           -0.8221    -2.8236    -7.7770 C.3     
  16 N16           -0.6202    -4.2384    -8.1171 N.3     
  17 C17           -0.5224    -4.4214    -9.5714 C.3     
  18 C18           -0.3130    -5.9041    -9.8858 C.3     
  19 C19           -0.2111    -6.0947   -11.4004 C.3     
  20 N20           -0.0105    -7.5144   -11.7015 N.am    
  21 C21            0.1077    -7.9218   -12.9808 C.2     
  22 C22            0.3140    -9.3821   -13.2905 C.3     
  23 O23            0.0480    -7.1131   -13.8827 O.2     
  24 N24           -0.0592    -9.6440   -14.6870 N.3     
  25 C25            1.7851    -9.7454   -13.0790 C.3     
  26 C26            1.9712   -11.2518   -13.2720 C.3     
  27 C27            3.4423   -11.6151   -13.0605 C.3     
  28 N28            3.6205   -13.0574   -13.2454 N.pl3   
  29 C29            4.8672   -13.6197   -13.1044 C.2     
  30 N30            5.0258   -14.9029   -13.2689 N.2     
  31 N31            5.9466   -12.8284   -12.7899 N.pl3   
  32 S32           -7.0462    -1.1563     4.3127 S.o2    
  33 O33           -7.3138    -2.4812     3.8740 O.2     
  34 O34           -6.8724    -0.8106     5.6800 O.2     
  35 C35           -8.3662    -0.1566     3.7105 C.ar    
  36 C36           -8.3677     1.2048     3.9510 C.ar    
  37 C37           -9.4029     1.9867     3.4803 C.ar    
  38 C38          -10.4464     1.4095     2.7640 C.ar    
  39 C39          -10.4400     0.0468     2.5213 C.ar    
  40 C40           -9.3970    -0.7321     2.9931 C.ar    
  41 O41          -11.4529     2.2098     2.3261 O.3     
  42 C42          -12.3072     1.7060     1.2984 C.3     
  43 C43          -12.7704     0.2997     1.6996 C.3     
  44 C44          -11.5451    -0.6169     1.7395 C.3     
  45 C45           -9.3920    -2.2163     2.7325 C.3     
  46 C46           -7.2398     1.8346     4.7271 C.3     
  47 C47           -9.4032     3.4706     3.7435 C.3     
  48 C48          -13.5217     2.6234     1.1422 C.3     
  49 C49          -11.5389     1.6380    -0.0230 C.3     
  50 H50           -0.2796     1.9599    -2.2691 H       
  51 H51           -1.8888     2.3322    -2.4630 H       
  52 H52           -0.7758    -0.3451    -1.9284 H       
  53 H53           -1.1491    -1.8368    -3.8780 H       
  54 H54           -3.6323     0.6403    -2.3508 H       
  55 H55           -3.1520    -1.0729    -2.2978 H       
  56 H56           -2.2539    -0.7503    -0.0092 H       
  57 H57           -2.7342     0.9628    -0.0621 H       
  58 H58           -5.1020     0.2897    -0.3609 H       
  59 H59           -4.6216    -1.4234    -0.3079 H       
  60 H60           -3.6521    -0.1548     2.0217 H       
  61 H61           -4.9014    -0.3719     4.0401 H       
  62 H62           -7.5228    -1.1514     1.9175 H       
  63 H63           -2.0510    -0.8434    -6.3632 H       
  64 H64           -0.2883    -0.6134    -6.2735 H       
  65 H65            0.0028    -3.0294    -5.7976 H       
  66 H66           -1.7600    -3.2595    -5.8872 H       
  67 H67           -1.7439    -2.4673    -8.2369 H       
  68 H68            0.0189    -2.2373    -8.1473 H       
  69 H69            0.1935    -4.6099    -7.6503 H       
  70 H70           -1.4421    -4.0762   -10.0437 H       
  71 H71            0.3207    -3.8462    -9.9541 H       
  72 H72            0.6067    -6.2493    -9.4135 H       
  73 H73           -1.1560    -6.4793    -9.5031 H       
  74 H74           -1.1308    -5.7495   -11.8728 H       
  75 H75            0.6320    -5.5195   -11.7832 H       
  76 H76            0.0372    -8.1611   -10.9802 H       
  77 H77           -0.3080    -9.9852   -12.6290 H       
  78 H78            0.5037    -9.0962   -15.3205 H       
  79 H79            0.0089   -10.6276   -14.9011 H       
  80 H80            2.3996    -9.2079   -13.8012 H       
  81 H81            2.0860    -9.4687   -12.0685 H       
  82 H82            1.3567   -11.7893   -12.5499 H       
  83 H83            1.6703   -11.5285   -14.2825 H       
  84 H84            4.0568   -11.0776   -13.7827 H       
  85 H85            3.7432   -11.3384   -12.0501 H       
  86 H86            2.8590   -13.6157   -13.4672 H       
  87 H87            5.9053   -15.2996   -13.1694 H       
  88 H88            5.8286   -11.8734   -12.6675 H       
  89 H89            6.8262   -13.2251   -12.6905 H       
  90 H90          -13.2363     0.3334     2.6844 H       
  91 H91          -13.4854    -0.0745     0.9669 H       
  92 H92          -11.2041    -0.8111     0.7226 H       
  93 H93          -11.8125    -1.5591     2.2180 H       
  94 H94           -8.6495    -2.4487     1.9690 H       
  95 H95           -9.1450    -2.7460     3.6526 H       
  96 H96          -10.3778    -2.5280     2.3873 H       
  97 H97           -6.4522     2.1416     4.0389 H       
  98 H98           -7.6116     2.7061     5.2658 H       
  99 H99           -6.8397     1.1115     5.4379 H       
 100 H100          -8.8878     3.9837     2.9316 H       
 101 H101         -10.4309     3.8285     3.8052 H       
 102 H102          -8.8910     3.6728     4.6842 H       
 103 H103         -13.1877     3.6261     0.8754 H       
 104 H104         -14.1712     2.2360     0.3573 H       
 105 H105         -14.0714     2.6618     2.0827 H       
 106 H106         -10.6800     0.9763     0.0898 H       
 107 H107         -12.1938     1.2532    -0.8047 H       
 108 H108         -11.1953     2.6359    -0.2953 H       
@<TRIPOS>BOND
   1    1    2 1
   2    1   50 1
   3    1   51 1
   4    2    3 1
   5    2    6 1
   6    2   52 1
   7    3    4 am
   8    3    5 2
   9    4   13 1
  10    4   53 1
  11    6    7 1
  12    6   54 1
  13    6   55 1
  14    7    8 1
  15    7   56 1
  16    7   57 1
  17    8    9 1
  18    8   58 1
  19    8   59 1
  20    9   10 1
  21    9   60 1
  22   10   11 1
  23   10   12 2
  24   11   32 am
  25   11   61 1
  26   12   62 1
  27   13   14 1
  28   13   63 1
  29   13   64 1
  30   14   15 1
  31   14   65 1
  32   14   66 1
  33   15   16 1
  34   15   67 1
  35   15   68 1
  36   16   17 1
  37   16   69 1
  38   17   18 1
  39   17   70 1
  40   17   71 1
  41   18   19 1
  42   18   72 1
  43   18   73 1
  44   19   20 1
  45   19   74 1
  46   19   75 1
  47   20   21 am
  48   20   76 1
  49   21   22 1
  50   21   23 2
  51   22   24 1
  52   22   25 1
  53   22   77 1
  54   24   78 1
  55   24   79 1
  56   25   26 1
  57   25   80 1
  58   25   81 1
  59   26   27 1
  60   26   82 1
  61   26   83 1
  62   27   28 1
  63   27   84 1
  64   27   85 1
  65   28   29 1
  66   28   86 1
  67   29   30 2
  68   29   31 1
  69   30   87 1
  70   31   88 1
  71   31   89 1
  72   32   33 2
  73   32   34 2
  74   32   35 1
  75   35   36 ar
  76   35   40 ar
  77   36   37 ar
  78   36   46 1
  79   37   38 ar
  80   37   47 1
  81   38   39 ar
  82   38   41 1
  83   39   40 ar
  84   39   44 1
  85   40   45 1
  86   41   42 1
  87   42   43 1
  88   42   48 1
  89   42   49 1
  90   43   44 1
  91   43   90 1
  92   43   91 1
  93   44   92 1
  94   44   93 1
  95   45   94 1
  96   45   95 1
  97   45   96 1
  98   46   97 1
  99   46   98 1
 100   46   99 1
 101   47  100 1
 102   47  101 1
 103   47  102 1
 104   48  103 1
 105   48  104 1
 106   48  105 1
 107   49  106 1
 108   49  107 1
 109   49  108 1

#	End of record

