#	Name: ASD04530017
#	Creating user name:	WinNT
#	Creation time:	15. 06. 2019 20:49

#	Modifying user name:	WinNT
#	Modification time:	15. 06. 2019 20:49

#	Program:	/corina/corina34_cracker 3.40 0067  02.08.2006

@<TRIPOS>MOLECULE
ASD04530017
  20   21    0    0    0
SMALL
NO_CHARGES


@<TRIPOS>ATOM
   1 C1            -0.0167     1.3800     0.0096 C.ar    
   2 C2             0.0021    -0.0041     0.0020 C.ar    
   3 C3             1.2075    -0.6850    -0.0132 C.ar    
   4 C4             2.3979     0.0146    -0.0204 C.ar    
   5 C5             2.3839     1.4097    -0.0128 C.ar    
   6 C6             1.1674     2.0892     0.0021 C.ar    
   7 C7             3.6592     2.1668    -0.0199 C.2     
   8 C8             3.6980     3.5101    -0.0131 C.2     
   9 S9             5.3860     4.0150    -0.0246 S.3     
  10 C10            5.8935     2.3289    -0.0379 C.2     
  11 N11            4.8468     1.5629    -0.0280 N.2     
  12 N12            7.2071     1.8888    -0.0513 N.pl3   
  13 Cl13           3.9089    -0.8400    -0.0383 Cl      
  14 Cl14          -1.4912    -0.8893     0.0122 Cl      
  15 H15           -0.9599     1.9061     0.0170 H       
  16 H16            1.2167    -1.7649    -0.0191 H       
  17 H17            1.1511     3.1690     0.0077 H       
  18 H18            2.8413     4.1675    -0.0026 H       
  19 H19            7.9338     2.5312    -0.0536 H       
  20 H20            7.4000     0.9382    -0.0584 H       
@<TRIPOS>BOND
   1    1    2 ar
   2    1    6 ar
   3    1   15 1
   4    2    3 ar
   5    2   14 1
   6    3    4 ar
   7    3   16 1
   8    4    5 ar
   9    4   13 1
  10    5    6 ar
  11    5    7 1
  12    6   17 1
  13    7    8 2
  14    7   11 1
  15    8    9 1
  16    8   18 1
  17    9   10 1
  18   10   11 2
  19   10   12 1
  20   12   19 1
  21   12   20 1

#	End of record

