#	Name: ASD01814268
#	Creating user name:	WinNT
#	Creation time:	15. 06. 2019 19:32

#	Modifying user name:	WinNT
#	Modification time:	15. 06. 2019 19:32

#	Program:	/corina/corina34_cracker 3.40 0067  02.08.2006

@<TRIPOS>MOLECULE
ASD01814268
  50   54    0    0    0
SMALL
NO_CHARGES


@<TRIPOS>ATOM
   1 C1            -0.0168     1.3869     0.0097 C.ar    
   2 C2             0.0021    -0.0041     0.0020 C.ar    
   3 C3             1.1801    -0.6897    -0.0124 C.ar    
   4 C4             2.3948     0.0129    -0.0202 C.ar    
   5 C5             2.3717     1.4289    -0.0129 C.ar    
   6 C6             1.1456     2.1014     0.0024 C.ar    
   7 C7             3.6294    -0.6695    -0.0356 C.ar    
   8 C8             4.8032     0.0060    -0.0432 C.ar    
   9 C9             4.8362     1.4094    -0.0360 C.ar    
  10 C10            3.6406     2.1511    -0.0211 C.ar    
  11 C11            6.1027     2.1517    -0.0437 C.2     
  12 N12            6.0337     3.5032    -0.0358 N.am    
  13 C13            4.8297     4.1316    -0.0215 C.2     
  14 N14            3.6957     3.4934    -0.0144 N.2     
  15 C15            3.6423    -2.1764    -0.0433 C.3     
  16 C16            3.5091    -2.6727    -1.4600 C.ar    
  17 C17            4.6405    -2.8891    -2.2247 C.ar    
  18 C18            4.5210    -3.3441    -3.5236 C.ar    
  19 C19            3.2645    -3.5838    -4.0606 C.ar    
  20 C20            2.1308    -3.3658    -3.2912 C.ar    
  21 C21            2.2559    -2.9162    -1.9909 C.ar    
  22 O22            7.1745     1.5734    -0.0562 O.2     
  23 C23            7.2131     4.2599    -0.0422 C.ar    
  24 C24            7.8103     4.6298     1.1579 C.ar    
  25 C25            8.9747     5.3764     1.1470 C.ar    
  26 C26            9.5434     5.7544    -0.0551 C.ar    
  27 C27            8.9510     5.3875    -1.2497 C.ar    
  28 C28            7.7913     4.6371    -1.2465 C.ar    
  29 F29            7.2539     4.2611     2.3325 F       
  30 O30            3.1443    -4.0309    -5.3383 O.3     
  31 C31            1.8197    -4.2561    -5.8249 C.3     
  32 H32           -0.9630     1.9075     0.0169 H       
  33 H33           -0.9305    -0.5488     0.0080 H       
  34 H34            1.1786    -1.7697    -0.0175 H       
  35 H35            1.1189     3.1811     0.0077 H       
  36 H36            5.7316    -0.5455    -0.0546 H       
  37 H37            4.8127     5.2114    -0.0155 H       
  38 H38            4.5810    -2.5338     0.3801 H       
  39 H39            2.8094    -2.5500     0.5524 H       
  40 H40            5.6184    -2.7021    -1.8064 H       
  41 H41            5.4050    -3.5126    -4.1207 H       
  42 H42            1.1515    -3.5516    -3.7070 H       
  43 H43            1.3737    -2.7467    -1.3914 H       
  44 H44            9.4398     5.6645     2.0782 H       
  45 H45           10.4522     6.3379    -0.0613 H       
  46 H46            9.3982     5.6846    -2.1868 H       
  47 H47            7.3301     4.3512    -2.1803 H       
  48 H48            1.2552    -3.3245    -5.7863 H       
  49 H49            1.8663    -4.6103    -6.8547 H       
  50 H50            1.3273    -5.0053    -5.2049 H       
@<TRIPOS>BOND
   1    1    2 ar
   2    1    6 ar
   3    1   32 1
   4    2    3 ar
   5    2   33 1
   6    3    4 ar
   7    3   34 1
   8    4    5 ar
   9    4    7 ar
  10    5    6 ar
  11    5   10 ar
  12    6   35 1
  13    7    8 ar
  14    7   15 1
  15    8    9 ar
  16    8   36 1
  17    9   10 ar
  18    9   11 1
  19   10   14 1
  20   11   12 am
  21   11   22 2
  22   12   13 1
  23   12   23 1
  24   13   14 2
  25   13   37 1
  26   15   16 1
  27   15   38 1
  28   15   39 1
  29   16   17 ar
  30   16   21 ar
  31   17   18 ar
  32   17   40 1
  33   18   19 ar
  34   18   41 1
  35   19   20 ar
  36   19   30 1
  37   20   21 ar
  38   20   42 1
  39   21   43 1
  40   23   24 ar
  41   23   28 ar
  42   24   25 ar
  43   24   29 1
  44   25   26 ar
  45   25   44 1
  46   26   27 ar
  47   26   45 1
  48   27   28 ar
  49   27   46 1
  50   28   47 1
  51   30   31 1
  52   31   48 1
  53   31   49 1
  54   31   50 1

#	End of record

