#	Name: ASD03330633
#	Creating user name:	WinNT
#	Creation time:	15. 06. 2019 20:37

#	Modifying user name:	WinNT
#	Modification time:	15. 06. 2019 20:37

#	Program:	/corina/corina34_cracker 3.40 0067  02.08.2006

@<TRIPOS>MOLECULE
ASD03330633
  64   66    0    0    0
SMALL
NO_CHARGES


@<TRIPOS>ATOM
   1 C1            -0.3224     1.1713     0.8597 C.2     
   2 N2            -0.3510    -0.1672     1.0944 N.pl3   
   3 C3             0.9832     1.5573     0.9016 C.2     
   4 N4             1.7303     0.4578     1.1417 N.2     
   5 C5             0.9386    -0.5826     1.2531 C.2     
   6 C6             1.3721    -1.9741     1.5087 C.ar    
   7 C7             1.4899     2.9287     0.7172 C.2     
   8 O8             0.7136     3.8404     0.5048 O.2     
   9 C9             3.3176     4.5359     0.6006 C.3     
  10 N10            2.8138     3.1726     0.7839 N.am    
  11 C11            3.4894     4.8196    -0.8930 C.3     
  12 C12            2.1203     4.8045    -1.5758 C.3     
  13 C13            4.1374     6.1929    -1.0801 C.3     
  14 C14            4.3822     3.7451    -1.5168 C.3     
  15 C15            4.6475     4.6776     1.2950 C.2     
  16 N16            5.1844     5.9000     1.4798 N.am    
  17 O17            5.2347     3.6917     1.6876 O.2     
  18 C18            6.5097     6.0333     2.0896 C.3     
  19 C19           -1.5608    -0.9905     1.1729 C.3     
  20 C20           -2.4709    -0.6604    -0.0143 C.3     
  21 C21           -3.3814     0.5098     0.3436 C.3     
  22 N22           -2.7020     1.4527     1.2344 N.3     
  23 C23           -1.5209     2.0429     0.5872 C.3     
  24 C24           -3.6250     2.4970     1.6983 C.3     
  25 C25            2.6223    -2.4063     1.0740 C.ar    
  26 C26            3.0231    -3.7184     1.3186 C.ar    
  27 C27            2.1696    -4.5907     1.9974 C.ar    
  28 C28            0.9310    -4.1555     2.4253 C.ar    
  29 C29            0.5307    -2.8549     2.1913 C.ar    
  30 C30            4.3488    -4.1860     0.8602 C.2     
  31 O31            5.0905    -3.4257     0.2691 O.2     
  32 N32            4.7349    -5.4553     1.0976 N.am    
  33 H33            2.6081     5.2457     1.0260 H       
  34 H34            3.4330     2.4454     0.9533 H       
  35 H35            1.4842     5.5700    -1.1314 H       
  36 H36            2.2426     5.0066    -2.6399 H       
  37 H37            1.6586     3.8261    -1.4425 H       
  38 H38            5.0970     6.2152    -0.5635 H       
  39 H39            4.2925     6.3798    -2.1427 H       
  40 H40            3.4846     6.9620    -0.6674 H       
  41 H41            3.9205     2.7667    -1.3836 H       
  42 H42            4.5046     3.9472    -2.5809 H       
  43 H43            5.3576     3.7558    -1.0304 H       
  44 H44            4.6933     6.6914     1.2090 H       
  45 H45            6.7744     7.0886     2.1566 H       
  46 H46            6.4953     5.5982     3.0889 H       
  47 H47            7.2456     5.5124     1.4771 H       
  48 H48           -1.2866    -2.0449     1.1396 H       
  49 H49           -2.0858    -0.7788     2.1043 H       
  50 H50           -1.8597    -0.3936    -0.8764 H       
  51 H51           -3.0791    -1.5315    -0.2579 H       
  52 H52           -3.6737     1.0279    -0.5697 H       
  53 H53           -4.2745     0.1295     0.8395 H       
  54 H54           -1.3451     3.0405     0.9897 H       
  55 H55           -1.6881     2.1067    -0.4880 H       
  56 H56           -4.4511     2.0371     2.2407 H       
  57 H57           -3.0947     3.1837     2.3581 H       
  58 H58           -4.0142     3.0453     0.8404 H       
  59 H59            3.2785    -1.7277     0.5492 H       
  60 H60            2.4788    -5.6078     2.1877 H       
  61 H61            0.2743    -4.8340     2.9495 H       
  62 H62           -0.4394    -2.5208     2.5286 H       
  63 H63            4.1430    -6.0621     1.5693 H       
  64 H64            5.6045    -5.7621     0.7968 H       
@<TRIPOS>BOND
   1    1    2 1
   2    1    3 2
   3    1   23 1
   4    2   19 1
   5    2    5 1
   6    3    4 1
   7    3    7 1
   8    4    5 2
   9    5    6 1
  10    6   25 ar
  11    6   29 ar
  12    7    8 2
  13    7   10 am
  14    9   10 1
  15    9   11 1
  16    9   15 1
  17    9   33 1
  18   10   34 1
  19   11   12 1
  20   11   13 1
  21   11   14 1
  22   12   35 1
  23   12   36 1
  24   12   37 1
  25   13   38 1
  26   13   39 1
  27   13   40 1
  28   14   41 1
  29   14   42 1
  30   14   43 1
  31   15   16 am
  32   15   17 2
  33   16   18 1
  34   16   44 1
  35   18   45 1
  36   18   46 1
  37   18   47 1
  38   19   20 1
  39   19   48 1
  40   19   49 1
  41   20   21 1
  42   20   50 1
  43   20   51 1
  44   21   22 1
  45   21   52 1
  46   21   53 1
  47   22   23 1
  48   22   24 1
  49   23   54 1
  50   23   55 1
  51   24   56 1
  52   24   57 1
  53   24   58 1
  54   25   26 ar
  55   25   59 1
  56   26   27 ar
  57   26   30 1
  58   27   28 ar
  59   27   60 1
  60   28   29 ar
  61   28   61 1
  62   29   62 1
  63   30   31 2
  64   30   32 am
  65   32   63 1
  66   32   64 1

#	End of record

