#	Name: ASD01917940
#	Creating user name:	WinNT
#	Creation time:	15. 06. 2019 20:10

#	Modifying user name:	WinNT
#	Modification time:	15. 06. 2019 20:10

#	Program:	/corina/corina34_cracker 3.40 0067  02.08.2006

@<TRIPOS>MOLECULE
ASD01917940
  36   39    0    0    0
SMALL
NO_CHARGES


@<TRIPOS>ATOM
   1 N1             4.7269    -0.5764    -2.1717 N.ar    
   2 C2             5.2110     0.1533    -3.1567 C.ar    
   3 N3             5.1524     1.4698    -3.1420 N.ar    
   4 C4             4.5990     2.1135    -2.1274 C.ar    
   5 C5             4.0754     1.3801    -1.0675 C.ar    
   6 C6             4.1580    -0.0076    -1.1216 C.ar    
   7 O7             3.4991     2.0032    -0.0061 O.3     
   8 C8             3.5511     3.3615     0.0423 C.2     
   9 N9             2.4076     5.4370    -0.0248 N.pl3   
  10 C10            2.4043     4.0794    -0.0676 C.2     
  11 C11            4.7859     3.9993     0.2106 C.2     
  12 C12            4.8309     5.3882     0.2596 C.2     
  13 C13            3.5755     6.1279     0.1321 C.2     
  14 C14            6.1099     6.0964     0.4358 C.2     
  15 N15            6.1339     7.4432     0.4810 N.am    
  16 C16            7.3264     8.1099     0.7530 C.ar    
  17 N17            8.4528     7.4224     0.8588 N.ar    
  18 C18            7.3237     9.4918     0.9051 C.ar    
  19 C19            8.5154    10.1416     1.1746 C.ar    
  20 C20            9.6732     9.3837     1.2831 C.ar    
  21 C21            9.6033     8.0146     1.1150 C.ar    
  22 O22            7.1447     5.4659     0.5406 O.2     
  23 N23            1.3939     6.4024    -0.1112 N.2     
  24 C24            1.9710     7.5767    -0.0150 C.2     
  25 N25            3.2797     7.4181     0.1371 N.2     
  26 H26            5.6694    -0.3419    -3.9999 H       
  27 H27            4.5547     3.1925    -2.1218 H       
  28 H28            3.7633    -0.6117    -0.3181 H       
  29 H29            1.4665     3.5585    -0.1924 H       
  30 H30            5.6926     3.4196     0.3015 H       
  31 H31            5.3207     7.9482     0.3241 H       
  32 H32            6.4040    10.0507     0.8138 H       
  33 H33            8.5440    11.2142     1.2975 H       
  34 H34           10.6195     9.8601     1.4928 H       
  35 H35           10.5022     7.4213     1.1943 H       
  36 H36            1.4585     8.5268    -0.0464 H       
@<TRIPOS>BOND
   1    1    2 ar
   2    1    6 ar
   3    2    3 ar
   4    2   26 1
   5    3    4 ar
   6    4    5 ar
   7    4   27 1
   8    5    6 ar
   9    5    7 1
  10    6   28 1
  11    7    8 1
  12    8   11 1
  13    8   10 2
  14    9   10 1
  15    9   23 1
  16    9   13 1
  17   10   29 1
  18   11   12 2
  19   11   30 1
  20   12   13 1
  21   12   14 1
  22   13   25 2
  23   14   15 am
  24   14   22 2
  25   15   16 1
  26   15   31 1
  27   16   18 ar
  28   16   17 ar
  29   17   21 ar
  30   18   19 ar
  31   18   32 1
  32   19   20 ar
  33   19   33 1
  34   20   21 ar
  35   20   34 1
  36   21   35 1
  37   23   24 2
  38   24   25 1
  39   24   36 1

#	End of record

