#	Name: ASD01840449
#	Creating user name:	WinNT
#	Creation time:	15. 06. 2019 19:37

#	Modifying user name:	WinNT
#	Modification time:	15. 06. 2019 19:37

#	Program:	/corina/corina34_cracker 3.40 0067  02.08.2006

@<TRIPOS>MOLECULE
ASD01840449
  56   59    0    0    0
SMALL
NO_CHARGES


@<TRIPOS>ATOM
   1 C1            -1.1313     7.7339     0.1833 C.ar    
   2 C2            -1.5108     9.0154     0.5154 C.ar    
   3 N3            -0.6197     9.9924     0.5240 N.ar    
   4 N4             0.6131     9.8052     0.2319 N.ar    
   5 C5             0.2256     7.5058    -0.1425 C.ar    
   6 C6             0.9038     6.2814    -0.5256 C.2     
   7 C7             1.0930     8.6053    -0.1044 C.ar    
   8 S8             2.7208     8.1035    -0.5392 S.3     
   9 C9             2.2288     6.4370    -0.7692 C.2     
  10 C10           -2.1314     6.6068     0.1734 C.3     
  11 C11           -2.9465     9.3054     0.8697 C.3     
  12 N12            0.2541     5.0592    -0.6327 N.pl3   
  13 C13            3.1288     5.3565    -1.1701 C.2     
  14 O14            2.7261     4.2079    -1.1984 O.2     
  15 N15            4.4040     5.6322    -1.5082 N.am    
  16 C16            5.0484     6.9481    -1.4125 C.3     
  17 C17            6.4793     6.8130    -1.9625 C.3     
  18 C18            6.4171     5.5030    -2.8121 C.3     
  19 C19            5.3816     4.6622    -2.0281 C.3     
  20 C20            6.7030     7.8900    -3.0471 C.3     
  21 N21            5.9505     7.4256    -4.2241 N.am    
  22 C22            5.7870     5.9595    -4.1399 C.3     
  23 C23            5.4862     8.2089    -5.2177 C.2     
  24 O24            4.8090     7.6626    -6.2451 O.3     
  25 C25            4.3384     8.5664    -7.2795 C.3     
  26 C26            5.5326     9.2854    -7.9103 C.3     
  27 C27            3.5970     7.7694    -8.3546 C.3     
  28 C28            3.3900     9.5969    -6.6635 C.3     
  29 O29            5.6788     9.4083    -5.1863 O.2     
  30 H30           -2.4870     6.4454    -0.8442 H       
  31 H31           -1.6571     5.6969     0.5411 H       
  32 H32           -2.9737     6.8627     0.8163 H       
  33 H33           -3.0884     9.1798     1.9431 H       
  34 H34           -3.1904    10.3299     0.5884 H       
  35 H35           -3.5993     8.6163     0.3338 H       
  36 H36           -0.6920     4.9933    -0.4290 H       
  37 H37            0.7462     4.2711    -0.9113 H       
  38 H38            4.4926     7.6752    -2.0045 H       
  39 H39            5.0820     7.2678    -0.3709 H       
  40 H40            7.2443     6.8128    -1.1860 H       
  41 H41            7.3828     5.0098    -2.9233 H       
  42 H42            5.8648     4.1357    -1.2050 H       
  43 H43            4.8910     3.9525    -2.6942 H       
  44 H44            6.3176     8.8517    -2.7086 H       
  45 H45            7.7635     7.9707    -3.2853 H       
  46 H46            6.2972     5.4792    -4.9748 H       
  47 H47            4.7286     5.6996    -4.1547 H       
  48 H48            6.2083     8.5513    -8.3491 H       
  49 H49            5.1794     9.9639    -8.6868 H       
  50 H50            6.0608     9.8532    -7.1444 H       
  51 H51            2.7462     7.2571    -7.9051 H       
  52 H52            3.2438     8.4479    -9.1311 H       
  53 H53            4.2727     7.0352    -8.7934 H       
  54 H54            3.9182    10.1647    -5.8976 H       
  55 H55            3.0368    10.2754    -7.4400 H       
  56 H56            2.5392     9.0847    -6.2141 H       
@<TRIPOS>BOND
   1    1    2 ar
   2    1    5 ar
   3    1   10 1
   4    2   11 1
   5    2    3 ar
   6    3    4 ar
   7    4    7 ar
   8    5    7 ar
   9    5    6 1
  10    6    9 2
  11    6   12 1
  12    7    8 1
  13    8    9 1
  14    9   13 1
  15   10   30 1
  16   10   31 1
  17   10   32 1
  18   11   33 1
  19   11   34 1
  20   11   35 1
  21   12   36 1
  22   12   37 1
  23   13   14 2
  24   13   15 am
  25   15   16 1
  26   15   19 1
  27   16   17 1
  28   16   38 1
  29   16   39 1
  30   17   20 1
  31   17   18 1
  32   17   40 1
  33   18   19 1
  34   18   22 1
  35   18   41 1
  36   19   42 1
  37   19   43 1
  38   20   21 1
  39   20   44 1
  40   20   45 1
  41   21   22 1
  42   21   23 am
  43   22   46 1
  44   22   47 1
  45   23   24 1
  46   23   29 2
  47   24   25 1
  48   25   26 1
  49   25   27 1
  50   25   28 1
  51   26   48 1
  52   26   49 1
  53   26   50 1
  54   27   51 1
  55   27   52 1
  56   27   53 1
  57   28   54 1
  58   28   55 1
  59   28   56 1

#	End of record

