#	Name: ASD08150641
#	Creating user name:	WinNT
#	Creation time:	15. 06. 2019 21:16

#	Modifying user name:	WinNT
#	Modification time:	15. 06. 2019 21:16

#	Program:	/corina/corina34_cracker 3.40 0067  02.08.2006

@<TRIPOS>MOLECULE
ASD08150641
  71   77    0    0    0
SMALL
NO_CHARGES


@<TRIPOS>ATOM
   1 N1             0.0332     1.4383    -0.6827 N.am    
   2 C2             0.2510     0.4756    -1.5995 C.2     
   3 C3             1.4512    -0.2637    -1.6015 C.2     
   4 C4             2.4095    -0.0128    -0.6734 C.2     
   5 C5             2.1839     0.9996     0.2923 C.ar    
   6 C6             3.1449     1.3002     1.2764 C.ar    
   7 N7             2.9343     2.2350     2.1659 N.ar    
   8 C8             1.8033     2.9562     2.1950 C.ar    
   9 C9             0.7811     2.7220     1.2425 C.ar    
  10 C10            0.9777     1.7168     0.2666 C.ar    
  11 C11           -0.3942     3.4783     1.2820 C.ar    
  12 C12           -0.5464     4.4521     2.2558 C.ar    
  13 C13            0.4698     4.6786     3.1948 C.ar    
  14 C14            1.6185     3.9511     3.1691 C.ar    
  15 O15           -0.6017     0.2403    -2.4387 O.2     
  16 C16           -1.7899     5.2590     2.3049 C.ar    
  17 C17           -1.1658     2.1626    -0.7053 C.ar    
  18 C18           -1.2336     3.3731    -1.3832 C.ar    
  19 C19           -2.4154     4.0860    -1.4054 C.ar    
  20 C20           -3.5355     3.5937    -0.7507 C.ar    
  21 C21           -3.4684     2.3850    -0.0730 C.ar    
  22 C22           -2.2884     1.6680    -0.0548 C.ar    
  23 O23           -4.6991     4.2963    -0.7730 O.3     
  24 C24           -2.8744     4.9380     1.4729 C.ar    
  25 N25           -3.9837     5.6324     1.4949 N.ar    
  26 C26           -4.1398     6.6808     2.3102 C.ar    
  27 C27           -3.0902     7.0676     3.1813 C.ar    
  28 C28           -1.8921     6.3329     3.1773 C.ar    
  29 C29           -4.7202     5.4916    -1.5558 C.3     
  30 C30           -5.3388     7.4148     2.3192 C.ar    
  31 C31           -6.0412     6.1920    -1.3676 C.2     
  32 O32           -6.8447     5.7658    -0.5654 O.2     
  33 N33           -6.3297     7.2921    -2.0909 N.am    
  34 C34           -7.6539     7.9265    -2.0045 C.3     
  35 C35           -5.3268     7.8936    -2.9828 C.3     
  36 C36           -5.2296     9.3900    -2.6670 C.3     
  37 N37           -6.5679     9.9910    -2.7423 N.3     
  38 C38           -7.4604     9.4215    -1.7292 C.3     
  39 C39           -5.4745     8.4784     3.1574 C.ar    
  40 C40           -4.4414     8.8571     4.0125 C.ar    
  41 C41           -3.2657     8.1712     4.0333 C.ar    
  42 C42           -4.6850     1.8517     0.6385 C.3     
  43 F43           -4.3732     0.6292     1.2431 F       
  44 F44           -5.0912     2.7656     1.6168 F       
  45 F45           -5.7203     1.6651    -0.2838 F       
  46 H46            1.6087    -1.0324    -2.3436 H       
  47 H47            3.3305    -0.5768    -0.6708 H       
  48 H48            4.0730     0.7482     1.2972 H       
  49 H49           -1.1773     3.3051     0.5587 H       
  50 H50            0.3388     5.4412     3.9482 H       
  51 H51            2.3909     4.1387     3.9003 H       
  52 H52           -0.3618     3.7565    -1.8925 H       
  53 H53           -2.4682     5.0273    -1.9321 H       
  54 H54           -2.2375     0.7249     0.4691 H       
  55 H55           -2.7912     4.0986     0.7986 H       
  56 H56           -1.0730     6.6009     3.8283 H       
  57 H57           -3.9116     6.1493    -1.2367 H       
  58 H58           -4.5894     5.2392    -2.6080 H       
  59 H59           -6.1496     7.1357     1.6626 H       
  60 H60           -8.1858     7.7935    -2.9466 H       
  61 H61           -8.2237     7.4754    -1.1922 H       
  62 H62           -4.3588     7.4208    -2.8170 H       
  63 H63           -5.6310     7.7574    -4.0206 H       
  64 H64           -4.8264     9.5245    -1.6633 H       
  65 H65           -4.5729     9.8726    -3.3909 H       
  66 H66           -6.5188    10.9950    -2.6554 H       
  67 H67           -8.4271     9.9232    -1.7727 H       
  68 H68           -7.0229     9.5590    -0.7404 H       
  69 H69           -6.3980     9.0383     3.1596 H       
  70 H70           -4.5754     9.7054     4.6674 H       
  71 H71           -2.4722     8.4738     4.7006 H       
@<TRIPOS>BOND
   1    1    2 am
   2    1   10 1
   3    1   17 1
   4    2    3 1
   5    2   15 2
   6    3    4 2
   7    3   46 1
   8    4    5 1
   9    4   47 1
  10    5    6 ar
  11    5   10 ar
  12    6    7 ar
  13    6   48 1
  14    7    8 ar
  15    8    9 ar
  16    8   14 ar
  17    9   10 ar
  18    9   11 ar
  19   11   12 ar
  20   11   49 1
  21   12   13 ar
  22   12   16 1
  23   13   14 ar
  24   13   50 1
  25   14   51 1
  26   16   24 ar
  27   16   28 ar
  28   17   18 ar
  29   17   22 ar
  30   18   19 ar
  31   18   52 1
  32   19   20 ar
  33   19   53 1
  34   20   21 ar
  35   20   23 1
  36   21   22 ar
  37   21   42 1
  38   22   54 1
  39   23   29 1
  40   24   25 ar
  41   24   55 1
  42   25   26 ar
  43   26   27 ar
  44   26   30 ar
  45   27   28 ar
  46   27   41 ar
  47   28   56 1
  48   29   31 1
  49   29   57 1
  50   29   58 1
  51   30   39 ar
  52   30   59 1
  53   31   32 2
  54   31   33 am
  55   33   34 1
  56   33   35 1
  57   34   38 1
  58   34   60 1
  59   34   61 1
  60   35   36 1
  61   35   62 1
  62   35   63 1
  63   36   37 1
  64   36   64 1
  65   36   65 1
  66   37   38 1
  67   37   66 1
  68   38   67 1
  69   38   68 1
  70   39   40 ar
  71   39   69 1
  72   40   41 ar
  73   40   70 1
  74   41   71 1
  75   42   43 1
  76   42   44 1
  77   42   45 1

#	End of record

