#	Name: ASD01001138
#	Creating user name:	WinNT
#	Creation time:	15. 06. 2019 18:55

#	Modifying user name:	WinNT
#	Modification time:	15. 06. 2019 18:55

#	Program:	/corina/corina34_cracker 3.40 0067  02.08.2006

@<TRIPOS>MOLECULE
ASD01001138
  44   46    0    0    0
SMALL
NO_CHARGES


@<TRIPOS>ATOM
   1 C1            -0.1509     1.7564    -0.2410 C.2     
   2 S2            -0.0451     0.0083    -0.0840 S.3     
   3 C3             1.6588     0.0582    -0.1555 C.2     
   4 C4             2.0958     1.3161    -0.2886 C.2     
   5 C5             1.1107     2.2735    -0.3382 C.2     
   6 C6            -1.3927     2.5336    -0.2695 C.2     
   7 O7            -1.3501     3.7447    -0.3827 O.2     
   8 N8            -2.5820     1.9074    -0.1702 N.am    
   9 C9            -5.5983     4.3421    -0.2867 C.2     
  10 C10           -6.0763     3.1061    -0.1605 C.2     
  11 C11           -5.0062     2.1101    -0.1044 C.2     
  12 C12           -3.7559     2.6422    -0.1971 C.2     
  13 S13           -3.8362     4.3332    -0.3503 S.3     
  14 C14           -5.2565     0.6729     0.0387 C.2     
  15 O15           -5.4895    -0.0052    -0.9448 O.2     
  16 N16           -5.2285     0.1023     1.2594 N.am    
  17 C17           -5.5889    -1.3090     1.4167 C.3     
  18 C18           -4.3626    -2.1821     1.1435 C.3     
  19 C19           -6.0903     1.4399     3.1167 C.3     
  20 C20           -4.8377     0.8933     2.4289 C.3     
  21 C21           -6.4019     5.6319    -0.3627 C.3     
  22 S22           -8.1209     5.2304    -0.7871 S.3     
  23 C23           -8.4408     3.8243     0.3223 C.3     
  24 C24           -7.5297     2.6737    -0.0870 C.3     
  25 H25            2.2994    -0.8096    -0.1001 H       
  26 H26            3.1457     1.5611    -0.3521 H       
  27 H27            1.3133     3.3291    -0.4435 H       
  28 H28           -2.6159     0.9422    -0.0800 H       
  29 H29           -5.9396    -1.4832     2.4340 H       
  30 H30           -6.3801    -1.5627     0.7112 H       
  31 H31           -4.6508    -3.2329     1.1733 H       
  32 H32           -3.9589    -1.9438     0.1594 H       
  33 H33           -3.6044    -1.9916     1.9030 H       
  34 H34           -6.7635     0.6161     3.3537 H       
  35 H35           -5.8059     1.9526     4.0356 H       
  36 H36           -6.5940     2.1406     2.4507 H       
  37 H37           -4.2863     0.2626     3.1263 H       
  38 H38           -4.2059     1.7230     2.1118 H       
  39 H39           -6.3728     6.1375     0.6025 H       
  40 H40           -5.9788     6.2809    -1.1294 H       
  41 H41           -8.2280     4.1129     1.3517 H       
  42 H42           -9.4828     3.5168     0.2345 H       
  43 H43           -7.8405     2.3047    -1.0644 H       
  44 H44           -7.6246     1.8687     0.6418 H       
@<TRIPOS>BOND
   1    1    2 1
   2    1    5 2
   3    1    6 1
   4    2    3 1
   5    3    4 2
   6    3   25 1
   7    4    5 1
   8    4   26 1
   9    5   27 1
  10    6    7 2
  11    6    8 am
  12    8   12 1
  13    8   28 1
  14    9   10 2
  15    9   13 1
  16    9   21 1
  17   10   11 1
  18   10   24 1
  19   11   12 2
  20   11   14 1
  21   12   13 1
  22   14   15 2
  23   14   16 am
  24   16   17 1
  25   16   20 1
  26   17   18 1
  27   17   29 1
  28   17   30 1
  29   18   31 1
  30   18   32 1
  31   18   33 1
  32   19   20 1
  33   19   34 1
  34   19   35 1
  35   19   36 1
  36   20   37 1
  37   20   38 1
  38   21   22 1
  39   21   39 1
  40   21   40 1
  41   22   23 1
  42   23   24 1
  43   23   41 1
  44   23   42 1
  45   24   43 1
  46   24   44 1

#	End of record

