#	Name: ASD01912428
#	Creating user name:	WinNT
#	Creation time:	15. 06. 2019 19:59

#	Modifying user name:	WinNT
#	Modification time:	15. 06. 2019 19:59

#	Program:	/corina/corina34_cracker 3.40 0067  02.08.2006

@<TRIPOS>MOLECULE
ASD01912428
  45   47    0    0    0
SMALL
NO_CHARGES


@<TRIPOS>ATOM
   1 C1            -0.3201     0.5434    -1.6323 C.1     
   2 C2            -0.1768     1.6987    -0.7985 C.ar    
   3 C3             1.0191     2.4257    -0.7874 C.ar    
   4 C4             1.1069     3.5344     0.0359 C.ar    
   5 C5             0.0222     3.8905     0.8172 C.ar    
   6 N6            -1.0964     3.1923     0.7926 N.ar    
   7 C7            -1.2366     2.1269     0.0194 C.ar    
   8 N8            -0.4338    -0.3731    -2.2938 N.1     
   9 N9            -2.4310     1.4278     0.0207 N.3     
  10 C10           -3.5744     2.3397     0.1506 C.3     
  11 C11           -4.8741     1.5649    -0.0952 C.3     
  12 C12           -4.8958     0.3688     0.8333 C.2     
  13 C13           -3.6608    -0.5060     0.8863 C.3     
  14 C14           -2.4382     0.4004     1.0697 C.3     
  15 C15           -5.9655     0.0955     1.5790 C.2     
  16 C16           -7.1206     0.9392     1.5105 C.1     
  17 C17           -8.0675     1.6309     1.4544 C.1     
  18 C18           -9.2226     2.4746     1.3859 C.ar    
  19 C19          -10.3420     2.1827     2.1708 C.ar    
  20 C20          -11.4492     3.0067     2.0941 C.ar    
  21 C21          -11.4058     4.0993     1.2347 C.ar    
  22 C22          -10.2636     4.3300     0.4853 C.ar    
  23 N23           -9.2198     3.5326     0.5804 N.ar    
  24 F24          -12.4679     4.9279     1.1313 F       
  25 C25           -5.9600    -1.1015     2.4945 C.3     
  26 C26            0.1208     5.0981     1.7132 C.3     
  27 H27            1.8531     2.1285    -1.4060 H       
  28 H28            2.0155     4.1173     0.0686 H       
  29 H29           -3.5885     2.7643     1.1544 H       
  30 H30           -3.4850     3.1415    -0.5824 H       
  31 H31           -5.7299     2.2072     0.1127 H       
  32 H32           -4.9104     1.2270    -1.1309 H       
  33 H33           -3.7355    -1.1969     1.7260 H       
  34 H34           -3.5669    -1.0661    -0.0441 H       
  35 H35           -1.5291    -0.1969     0.9998 H       
  36 H36           -2.4843     0.8796     2.0476 H       
  37 H37          -10.3419     1.3254     2.8275 H       
  38 H38          -12.3287     2.8063     2.6881 H       
  39 H39          -10.2271     5.1778    -0.1828 H       
  40 H40           -5.5790    -0.8088     3.4729 H       
  41 H41           -6.9755    -1.4834     2.5994 H       
  42 H42           -5.3215    -1.8781     2.0734 H       
  43 H43           -0.2087     5.9827     1.1683 H       
  44 H44           -0.5125     4.9537     2.5886 H       
  45 H45            1.1549     5.2313     2.0309 H       
@<TRIPOS>BOND
   1    1    2 1
   2    1    8 3
   3    2    3 ar
   4    2    7 ar
   5    3    4 ar
   6    3   27 1
   7    4    5 ar
   8    4   28 1
   9    5    6 ar
  10    5   26 1
  11    6    7 ar
  12    7    9 1
  13    9   10 1
  14    9   14 1
  15   10   11 1
  16   10   29 1
  17   10   30 1
  18   11   12 1
  19   11   31 1
  20   11   32 1
  21   12   13 1
  22   12   15 2
  23   13   14 1
  24   13   33 1
  25   13   34 1
  26   14   35 1
  27   14   36 1
  28   15   16 1
  29   15   25 1
  30   16   17 3
  31   17   18 1
  32   18   19 ar
  33   18   23 ar
  34   19   20 ar
  35   19   37 1
  36   20   21 ar
  37   20   38 1
  38   21   22 ar
  39   21   24 1
  40   22   23 ar
  41   22   39 1
  42   25   40 1
  43   25   41 1
  44   25   42 1
  45   26   43 1
  46   26   44 1
  47   26   45 1

#	End of record

