#	Name: ASD09740666
#	Creating user name:	WinNT
#	Creation time:	15. 06. 2019 21:23

#	Modifying user name:	WinNT
#	Modification time:	15. 06. 2019 21:23

#	Program:	/corina/corina34_cracker 3.40 0067  02.08.2006

@<TRIPOS>MOLECULE
ASD09740666
  23   23    0    0    0
SMALL
NO_CHARGES


@<TRIPOS>ATOM
   1 C1            -0.0189     1.5392     0.0105 C.3     
   2 C2             0.0021    -0.0041     0.0020 C.3     
   3 C3             1.3510    -0.3132    -0.6815 C.3     
   4 C4             2.2235     0.8910    -0.3987 C.ar    
   5 C5             3.5983     1.0435    -0.4831 C.ar    
   6 C6             4.1836     2.2558    -0.1706 C.ar    
   7 C7             3.3957     3.3198     0.2269 C.ar    
   8 C8             2.0254     3.1693     0.3111 C.ar    
   9 C9             1.4365     1.9552    -0.0012 C.ar    
  10 N10           -0.7035     2.0463    -1.1862 N.3     
  11 Br11           4.6767    -0.4116    -1.0268 Br      
  12 H12           -0.5098     1.9059     0.9120 H       
  13 H13           -0.0164    -0.3974     1.0184 H       
  14 H14           -0.8283    -0.3996    -0.5829 H       
  15 H15            1.7953    -1.2113    -0.2525 H       
  16 H16            1.2115    -0.4353    -1.7556 H       
  17 H17            5.2553     2.3717    -0.2366 H       
  18 H18            3.8513     4.2678     0.4718 H       
  19 H19            1.4109     4.0012     0.6222 H       
  20 H20           -0.7232     3.0551    -1.1913 H       
  21 H21           -0.2750     1.6887    -2.0268 H       
  22 Cl22          10.2553     9.2678     6.0184 Cl      
  23 H23           10.2553    10.6378     6.0184 H       
@<TRIPOS>BOND
   1    1    2 1
   2    1    9 1
   3    1   10 1
   4    1   12 1
   5    2    3 1
   6    2   13 1
   7    2   14 1
   8    3    4 1
   9    3   15 1
  10    3   16 1
  11    4    5 ar
  12    4    9 ar
  13    5    6 ar
  14    5   11 1
  15    6    7 ar
  16    6   17 1
  17    7    8 ar
  18    7   18 1
  19    8    9 ar
  20    8   19 1
  21   10   20 1
  22   10   21 1
  23   22   23 1

#	End of record

