#	Name: ASD01885921
#	Creating user name:	WinNT
#	Creation time:	15. 06. 2019 19:50

#	Modifying user name:	WinNT
#	Modification time:	15. 06. 2019 19:50

#	Program:	/corina/corina34_cracker 3.40 0067  02.08.2006

@<TRIPOS>MOLECULE
ASD01885921
  56   59    0    0    0
SMALL
NO_CHARGES


@<TRIPOS>ATOM
   1 C1            -0.0170     1.4037     0.0098 C.ar    
   2 C2            -1.2665     2.0740     0.0193 C.ar    
   3 C3            -1.2874     3.4920     0.0272 C.ar    
   4 C4            -0.0700     4.1597     0.0250 C.ar    
   5 C5             1.1199     3.4234     0.0154 C.ar    
   6 N6             1.1178     2.1038     0.0027 N.ar    
   7 C7             0.0021    -0.0041     0.0020 C.ar    
   8 C8            -1.1700    -0.6951     0.0090 C.ar    
   9 C9            -2.3952    -0.0320     0.0237 C.ar    
  10 C10           -2.4530     1.3298     0.0204 C.ar    
  11 C11           -2.5666     4.2367     0.0368 C.ar    
  12 C12           -2.7764     5.2544     0.9685 C.ar    
  13 C13           -3.9686     5.9460     0.9742 C.ar    
  14 C14           -3.5634     3.9267    -0.8894 C.ar    
  15 C15            2.4157     4.1442     0.0060 C.2     
  16 N16            3.5718     3.4518    -0.0152 N.am    
  17 O17            2.4352     5.3590     0.0175 O.2     
  18 C18           -1.1424    -2.2019     0.0132 C.3     
  19 C19           -4.9605     5.6312     0.0543 C.ar    
  20 C20           -4.7531     4.6225    -0.8778 C.ar    
  21 O21           -6.1341     6.3148     0.0628 O.3     
  22 C22           -1.8370    -2.7212     1.2737 C.3     
  23 C23           -7.1106     5.9396    -0.9107 C.3     
  24 C24           -1.7022    -4.2207     1.3399 C.ar    
  25 C25           -0.6190    -4.8004     1.9820 C.ar    
  26 C26           -0.5366    -6.1842     2.0186 C.ar    
  27 C27           -1.5299    -6.9340     1.4181 C.ar    
  28 N28           -2.5463    -6.3482     0.8155 N.ar    
  29 C29           -2.6601    -5.0355     0.7661 C.ar    
  30 C30           -1.4506    -8.4385     1.4517 C.3     
  31 F31           -2.1027    -8.9145     2.5943 F       
  32 C32           -1.8712    -2.7288    -1.2246 C.3     
  33 H33           -0.0416     5.2393     0.0305 H       
  34 H34            0.9434    -0.5334    -0.0098 H       
  35 H35           -3.3109    -0.6043     0.0376 H       
  36 H36           -3.4089     1.8323     0.0276 H       
  37 H37           -2.0058     5.4995     1.6843 H       
  38 H38           -4.1318     6.7334     1.6951 H       
  39 H39           -3.4027     3.1427    -1.6147 H       
  40 H40            3.5562     2.4820    -0.0243 H       
  41 H41            4.4195     3.9233    -0.0213 H       
  42 H42           -0.1083    -2.5463     0.0001 H       
  43 H43           -5.5265     4.3803    -1.5916 H       
  44 H44           -1.3734    -2.2755     2.1538 H       
  45 H45           -2.8929    -2.4523     1.2436 H       
  46 H46           -7.9977     6.5622    -0.7942 H       
  47 H47           -6.6987     6.0774    -1.9104 H       
  48 H48           -7.3803     4.8929    -0.7700 H       
  49 H49            0.1428    -4.1889     2.4425 H       
  50 H50            0.2936    -6.6698     2.5099 H       
  51 H51           -3.5068    -4.5917     0.2635 H       
  52 H52           -1.9304    -8.8476     0.5626 H       
  53 H53           -0.4054    -8.7469     1.4749 H       
  54 H54           -1.3763    -2.3589    -2.1225 H       
  55 H55           -1.8512    -3.8186    -1.2215 H       
  56 H56           -2.9052    -2.3844    -1.2115 H       
@<TRIPOS>BOND
   1    1    7 ar
   2    1    6 ar
   3    1    2 ar
   4    2    3 ar
   5    2   10 ar
   6    3   11 1
   7    3    4 ar
   8    4    5 ar
   9    4   33 1
  10    5   15 1
  11    5    6 ar
  12    7    8 ar
  13    7   34 1
  14    8    9 ar
  15    8   18 1
  16    9   10 ar
  17    9   35 1
  18   10   36 1
  19   11   12 ar
  20   11   14 ar
  21   12   13 ar
  22   12   37 1
  23   13   19 ar
  24   13   38 1
  25   14   20 ar
  26   14   39 1
  27   15   16 am
  28   15   17 2
  29   16   40 1
  30   16   41 1
  31   18   22 1
  32   18   32 1
  33   18   42 1
  34   19   20 ar
  35   19   21 1
  36   20   43 1
  37   21   23 1
  38   22   24 1
  39   22   44 1
  40   22   45 1
  41   23   46 1
  42   23   47 1
  43   23   48 1
  44   24   25 ar
  45   24   29 ar
  46   25   26 ar
  47   25   49 1
  48   26   27 ar
  49   26   50 1
  50   27   28 ar
  51   27   30 1
  52   28   29 ar
  53   29   51 1
  54   30   31 1
  55   30   52 1
  56   30   53 1
  57   32   54 1
  58   32   55 1
  59   32   56 1

#	End of record

