#	Name: ASD01915933
#	Creating user name:	WinNT
#	Creation time:	15. 06. 2019 20:06

#	Modifying user name:	WinNT
#	Modification time:	15. 06. 2019 20:06

#	Program:	/corina/corina34_cracker 3.40 0067  02.08.2006

@<TRIPOS>MOLECULE
ASD01915933
  48   50    0    0    0
SMALL
NO_CHARGES


@<TRIPOS>ATOM
   1 C1            -0.1631     1.1887    -0.2977 C.2     
   2 C2            -0.2321    -0.1724    -0.4531 C.2     
   3 C3            -1.5845    -0.8665    -0.4558 C.3     
   4 C4            -2.5502    -0.0687     0.4182 C.3     
   5 N5            -2.5222     1.3593     0.1231 N.am    
   6 C6            -1.3615     2.0150    -0.1098 C.2     
   7 O7            -1.3137     3.2299    -0.1607 O.2     
   8 S8             1.5183     1.6722    -0.3546 S.3     
   9 C9             1.9860     0.0405    -0.5701 C.2     
  10 N10            0.9449    -0.7290    -0.5909 N.2     
  11 O11            3.7721    -0.4318    -2.0983 O.3     
  12 C12            5.0332    -0.8360    -2.4057 C.ar    
  13 C13            5.9022    -1.2263    -1.3986 C.ar    
  14 C14            5.4517    -0.8642    -3.7304 C.ar    
  15 C15            6.7353    -1.2759    -4.0393 C.ar    
  16 C16            7.6007    -1.6594    -3.0310 C.ar    
  17 C17            7.1839    -1.6369    -1.7133 C.ar    
  18 C18            3.4088    -0.4340    -0.7163 C.3     
  19 C19           -3.7835     2.1032     0.0774 C.3     
  20 C20           -4.3613     2.2147     1.4897 C.3     
  21 C21           -3.5291     3.5045    -0.4817 C.3     
  22 F22            4.6058    -0.4903    -4.7152 F       
  23 C23           -3.3098     2.8151     2.4250 C.3     
  24 C24           -5.5969     3.1168     1.4654 C.3     
  25 C25           -4.7551     0.8238     1.9909 C.3     
  26 H26           -1.9685    -0.9142    -1.4748 H       
  27 H27           -1.4782    -1.8749    -0.0560 H       
  28 H28           -3.5616    -0.4421     0.2574 H       
  29 H29           -2.2838    -0.2177     1.4645 H       
  30 H30            5.5779    -1.2093    -0.3686 H       
  31 H31            7.0619    -1.2982    -5.0685 H       
  32 H32            8.6026    -1.9810    -3.2740 H       
  33 H33            7.8620    -1.9370    -0.9281 H       
  34 H34            4.0724     0.2323    -0.1651 H       
  35 H35            3.4973    -1.4451    -0.3190 H       
  36 H36           -4.4914     1.5789    -0.5645 H       
  37 H37           -4.4819     3.9907    -0.6910 H       
  38 H38           -2.9742     4.0922     0.2496 H       
  39 H39           -2.9499     3.4289    -1.4020 H       
  40 H40           -3.0954     3.8396     2.1207 H       
  41 H41           -3.6883     2.8114     3.4472 H       
  42 H42           -2.3967     2.2221     2.3734 H       
  43 H43           -6.3460     2.6890     0.7991 H       
  44 H44           -6.0086     3.1962     2.4715 H       
  45 H45           -5.3164     4.1077     1.1083 H       
  46 H46           -3.8569     0.2270     2.1494 H       
  47 H47           -5.2999     0.9169     2.9304 H       
  48 H48           -5.3890     0.3366     1.2500 H       
@<TRIPOS>BOND
   1    1    2 2
   2    1    8 1
   3    1    6 1
   4    2    3 1
   5    2   10 1
   6    3    4 1
   7    3   26 1
   8    3   27 1
   9    4    5 1
  10    4   28 1
  11    4   29 1
  12    5    6 am
  13    5   19 1
  14    6    7 2
  15    8    9 1
  16    9   10 2
  17    9   18 1
  18   11   12 1
  19   11   18 1
  20   12   13 ar
  21   12   14 ar
  22   13   17 ar
  23   13   30 1
  24   14   15 ar
  25   14   22 1
  26   15   16 ar
  27   15   31 1
  28   16   17 ar
  29   16   32 1
  30   17   33 1
  31   18   34 1
  32   18   35 1
  33   19   20 1
  34   19   21 1
  35   19   36 1
  36   20   23 1
  37   20   24 1
  38   20   25 1
  39   21   37 1
  40   21   38 1
  41   21   39 1
  42   23   40 1
  43   23   41 1
  44   23   42 1
  45   24   43 1
  46   24   44 1
  47   24   45 1
  48   25   46 1
  49   25   47 1
  50   25   48 1

#	End of record

