#	Name: ASD02500761
#	Creating user name:	WinNT
#	Creation time:	15. 06. 2019 20:23

#	Modifying user name:	WinNT
#	Modification time:	15. 06. 2019 20:23

#	Program:	/corina/corina34_cracker 3.40 0067  02.08.2006

@<TRIPOS>MOLECULE
ASD02500761
  48   51    0    0    0
SMALL
NO_CHARGES


@<TRIPOS>ATOM
   1 N1            -0.0179     1.4654     0.0101 N.am    
   2 C2             0.0021    -0.0041     0.0020 C.3     
   3 C3             0.8261    -0.4764    -1.2022 C.3     
   4 N4             2.1040     0.2493    -1.2105 N.am    
   5 C5             2.0841     1.7188    -1.2024 C.3     
   6 C6             1.2601     2.1912     0.0018 C.3     
   7 S7             3.5407    -0.5740    -1.2281 S.o2    
   8 O8             4.5153     0.3081    -0.6883 O.2     
   9 O9             3.2726    -1.8605    -0.6876 O.2     
  10 C10            4.7327     0.1076    -3.5594 C.ar    
  11 C11            3.9775    -0.8248    -2.9166 C.ar    
  12 C12            3.5450    -1.9748    -3.5737 C.ar    
  13 C13            3.8649    -2.1992    -4.8777 C.ar    
  14 C14            4.6425    -1.2590    -5.5744 C.ar    
  15 C15            4.9932    -1.4561    -6.9211 C.ar    
  16 C16            5.7482    -0.5238    -7.5636 C.ar    
  17 C17            6.1811     0.6264    -6.9062 C.ar    
  18 C18            5.8614     0.8508    -5.6025 C.ar    
  19 C19            5.0824    -0.0890    -4.9059 C.ar    
  20 S20           -1.4546     2.2888     0.0214 S.o2    
  21 O21           -1.1840     3.5755    -0.5173 O.2     
  22 O22           -2.4267     1.4070    -0.5232 O.2     
  23 C23           -1.8991     2.5390     1.7080 C.ar    
  24 C24           -1.4780     3.6771     2.3737 C.ar    
  25 C25           -1.8279     3.8726     3.6992 C.ar    
  26 C26           -2.5973     2.9319     4.3573 C.ar    
  27 C27           -3.0184     1.7951     3.6936 C.ar    
  28 C28           -2.6745     1.6002     2.3664 C.ar    
  29 F29           -3.0913     0.4918     1.7161 F       
  30 F30           -0.7255     4.5966     1.7308 F       
  31 H31            0.4576    -0.3688     0.9227 H       
  32 H32           -1.0165    -0.3833    -0.0803 H       
  33 H33            1.0139    -1.5469    -1.1197 H       
  34 H34            0.2810    -0.2679    -2.1228 H       
  35 H35            3.1027     2.0980    -1.1201 H       
  36 H36            1.6286     2.0836    -2.1231 H       
  37 H37            1.0723     3.2617    -0.0807 H       
  38 H38            1.8051     1.9827     0.9224 H       
  39 H39            5.0573     0.9963    -3.0385 H       
  40 H40            2.9474    -2.6993    -3.0404 H       
  41 H41            3.5229    -3.0953    -5.3741 H       
  42 H42            4.6656    -2.3430    -7.4431 H       
  43 H43            6.0163    -0.6777    -8.5984 H       
  44 H44            6.7795     1.3504    -7.4393 H       
  45 H45            6.2044     1.7463    -5.1059 H       
  46 H46           -1.4991     4.7604     4.2190 H       
  47 H47           -2.8695     3.0851     5.3912 H       
  48 H48           -3.6194     1.0605     4.2089 H       
@<TRIPOS>BOND
   1    1    2 1
   2    1    6 1
   3    1   20 am
   4    2    3 1
   5    2   31 1
   6    2   32 1
   7    3    4 1
   8    3   33 1
   9    3   34 1
  10    4    5 1
  11    4    7 am
  12    5    6 1
  13    5   35 1
  14    5   36 1
  15    6   37 1
  16    6   38 1
  17    7    8 2
  18    7    9 2
  19    7   11 1
  20   10   11 ar
  21   10   19 ar
  22   10   39 1
  23   11   12 ar
  24   12   13 ar
  25   12   40 1
  26   13   14 ar
  27   13   41 1
  28   14   15 ar
  29   14   19 ar
  30   15   16 ar
  31   15   42 1
  32   16   17 ar
  33   16   43 1
  34   17   18 ar
  35   17   44 1
  36   18   19 ar
  37   18   45 1
  38   20   21 2
  39   20   22 2
  40   20   23 1
  41   23   24 ar
  42   23   28 ar
  43   24   25 ar
  44   24   30 1
  45   25   26 ar
  46   25   46 1
  47   26   27 ar
  48   26   47 1
  49   27   28 ar
  50   27   48 1
  51   28   29 1

#	End of record

