#	Name: ASD02198389
#	Creating user name:	WinNT
#	Creation time:	15. 06. 2019 20:19

#	Modifying user name:	WinNT
#	Modification time:	15. 06. 2019 20:19

#	Program:	/corina/corina34_cracker 3.40 0067  02.08.2006

@<TRIPOS>MOLECULE
ASD02198389
  44   47    0    0    0
SMALL
NO_CHARGES


@<TRIPOS>ATOM
   1 C1            -0.2653     0.8871    -0.3021 C.2     
   2 C2            -0.1103    -0.4537    -0.3040 C.2     
   3 S3             1.3123     1.6588    -0.2038 S.3     
   4 C4             2.1108     0.0922    -0.1700 C.2     
   5 C5             1.1966    -0.8826    -0.2313 C.2     
   6 S6             3.8524    -0.1560    -0.0709 S.o2    
   7 N7             4.4085    -0.3514    -1.6185 N.am    
   8 C8             4.2724     0.6826    -2.5439 C.ar    
   9 C9             4.8845     1.9334    -2.3085 C.ar    
  10 C10            4.7301     2.9656    -3.2659 C.ar    
  11 C11            3.9756     2.7319    -4.4267 C.ar    
  12 C12            3.3962     1.5156    -4.6270 C.ar    
  13 C13            3.5445     0.4902    -3.6980 C.ar    
  14 N14            5.6008     2.1527    -1.2027 N.ar    
  15 C15            6.1709     3.3116    -0.9784 C.ar    
  16 C16            6.0589     4.3696    -1.8782 C.ar    
  17 C17            5.3412     4.2119    -3.0293 C.ar    
  18 O18            4.4053     1.0642     0.4031 O.2     
  19 O19            4.0434    -1.4023     0.5844 O.2     
  20 C20           -1.5571     1.5956    -0.3773 C.ar    
  21 C21           -1.6026     2.9961    -0.3679 C.ar    
  22 N22           -2.7000     0.9136    -0.4606 N.ar    
  23 C23           -3.8597     1.5491    -0.5281 C.ar    
  24 N24           -3.9306     2.8729    -0.5155 N.ar    
  25 C25           -2.8357     3.6149    -0.4401 C.ar    
  26 S26           -5.3472     0.6110    -0.6379 S.3     
  27 C27           -6.5609     1.9524    -0.6994 C.3     
  28 C28            2.8903    -0.8436    -3.9514 C.3     
  29 H29           -0.9453    -1.1365    -0.3580 H       
  30 H30            1.4636    -1.9290    -0.2239 H       
  31 H31            4.8289    -1.1851    -1.8812 H       
  32 H32            3.8544     3.5157    -5.1597 H       
  33 H33            2.8170     1.3431    -5.5220 H       
  34 H34            6.7421     3.4501    -0.0724 H       
  35 H35            6.5394     5.3132    -1.6657 H       
  36 H36            5.2441     5.0211    -3.7380 H       
  37 H37           -0.6950     3.5782    -0.3055 H       
  38 H38           -2.9066     4.6925    -0.4307 H       
  39 H39           -7.5639     1.5318    -0.7706 H       
  40 H40           -6.4829     2.5548     0.2057 H       
  41 H41           -6.3667     2.5784    -1.5703 H       
  42 H42            3.5772    -1.4865    -4.5019 H       
  43 H43            2.6386    -1.3115    -2.9996 H       
  44 H44            1.9819    -0.6976    -4.5359 H       
@<TRIPOS>BOND
   1    1    2 2
   2    1    3 1
   3    1   20 1
   4    2    5 1
   5    2   29 1
   6    3    4 1
   7    4    5 2
   8    4    6 1
   9    5   30 1
  10    6    7 am
  11    6   18 2
  12    6   19 2
  13    7    8 1
  14    7   31 1
  15    8    9 ar
  16    8   13 ar
  17    9   10 ar
  18    9   14 ar
  19   10   11 ar
  20   10   17 ar
  21   11   12 ar
  22   11   32 1
  23   12   13 ar
  24   12   33 1
  25   13   28 1
  26   14   15 ar
  27   15   16 ar
  28   15   34 1
  29   16   17 ar
  30   16   35 1
  31   17   36 1
  32   20   21 ar
  33   20   22 ar
  34   21   25 ar
  35   21   37 1
  36   22   23 ar
  37   23   24 ar
  38   23   26 1
  39   24   25 ar
  40   25   38 1
  41   26   27 1
  42   27   39 1
  43   27   40 1
  44   27   41 1
  45   28   42 1
  46   28   43 1
  47   28   44 1

#	End of record

