#	Name: ASD10220169
#	Creating user name:	WinNT
#	Creation time:	15. 06. 2019 21:26

#	Modifying user name:	WinNT
#	Modification time:	15. 06. 2019 21:26

#	Program:	/corina/corina34_cracker 3.40 0067  02.08.2006

@<TRIPOS>MOLECULE
ASD10220169
  32   34    0    0    0
SMALL
NO_CHARGES


@<TRIPOS>ATOM
   1 C1            -0.0049     1.4310    -0.1558 C.ar    
   2 C2             0.0240     0.0472    -0.2900 C.ar    
   3 C3            -1.1484    -0.6772    -0.3448 C.ar    
   4 C4            -2.3736    -0.0251    -0.2659 C.ar    
   5 C5            -2.4017     1.3703    -0.1306 C.ar    
   6 C6            -1.2160     2.0944    -0.0702 C.ar    
   7 O7            -3.6515    -0.4597    -0.2913 O.3     
   8 C8            -4.5141     0.5566    -0.1818 C.2     
   9 C9            -3.8326     1.7319    -0.0770 C.2     
  10 C10           -4.4030     3.0794     0.0614 C.2     
  11 O11           -3.6718     4.0327     0.2552 O.2     
  12 C12           -5.8629     3.2764    -0.0348 C.ar    
  13 O13            1.1587     2.1324    -0.1031 O.3     
  14 C14           -6.4758     4.3239     0.6586 C.ar    
  15 C15           -7.8377     4.5041     0.5663 C.ar    
  16 C16           -8.6030     3.6461    -0.2152 C.ar    
  17 C17           -7.9973     2.6032    -0.9064 C.ar    
  18 C18           -6.6352     2.4195    -0.8240 C.ar    
  19 Br19          -1.0893    -2.5584    -0.5281 Br      
  20 O20           -9.9451     3.8270    -0.3032 O.3     
  21 C21          -10.6710     2.9092    -1.1235 C.3     
  22 H22            0.9728    -0.4649    -0.3522 H       
  23 H23           -1.2404     3.1691     0.0344 H       
  24 H24           -5.5898     0.4602    -0.1779 H       
  25 H25            1.4839     2.4203    -0.9671 H       
  26 H26           -5.8821     4.9907     1.2663 H       
  27 H27           -8.3122     5.3130     1.1021 H       
  28 H28           -8.5954     1.9386    -1.5122 H       
  29 H29           -6.1654     1.6090    -1.3613 H       
  30 H30          -10.3002     2.9651    -2.1470 H       
  31 H31          -10.5362     1.8967    -0.7429 H       
  32 H32          -11.7302     3.1658    -1.1062 H       
@<TRIPOS>BOND
   1    1    2 ar
   2    1   13 1
   3    1    6 ar
   4    2    3 ar
   5    2   22 1
   6    3    4 ar
   7    3   19 1
   8    4    5 ar
   9    4    7 1
  10    5    6 ar
  11    5    9 1
  12    6   23 1
  13    7    8 1
  14    8    9 2
  15    8   24 1
  16    9   10 1
  17   10   11 2
  18   10   12 1
  19   12   14 ar
  20   12   18 ar
  21   13   25 1
  22   14   15 ar
  23   14   26 1
  24   15   16 ar
  25   15   27 1
  26   16   17 ar
  27   16   20 1
  28   17   18 ar
  29   17   28 1
  30   18   29 1
  31   20   21 1
  32   21   30 1
  33   21   31 1
  34   21   32 1

#	End of record

