#	Name: ASD10160234
#	Creating user name:	WinNT
#	Creation time:	15. 06. 2019 21:25

#	Modifying user name:	WinNT
#	Modification time:	15. 06. 2019 21:25

#	Program:	/corina/corina34_cracker 3.40 0067  02.08.2006

@<TRIPOS>MOLECULE
ASD10160234
  35   36    0    0    0
SMALL
NO_CHARGES


@<TRIPOS>ATOM
   1 C1            -0.3991     1.1089    -1.9473 C.2     
   2 C2            -0.2789    -0.2705    -1.4404 C.ar    
   3 C3             0.9048    -0.9908    -1.6390 C.ar    
   4 C4             1.0126    -2.2818    -1.1621 C.ar    
   5 C5            -0.0508    -2.8653    -0.4866 C.ar    
   6 C6            -1.2303    -2.1522    -0.2874 C.ar    
   7 C7            -1.3449    -0.8610    -0.7548 C.ar    
   8 O8             0.5310     1.6224    -2.5389 O.2     
   9 N9            -1.5417     1.7986    -1.7598 N.am    
  10 S10           -1.6766     3.3478    -2.3291 S.o2    
  11 O11           -2.9792     3.7546    -1.9328 O.2     
  12 O12           -0.5202     4.0062    -1.8308 O.2     
  13 C13           -1.5843     3.1769    -4.1327 C.3     
  14 O14            0.0593    -4.1350    -0.0193 O.3     
  15 C15            1.5493    -5.5239    -1.2587 C.ar    
  16 C16            1.2618    -4.7567    -0.1387 C.ar    
  17 C17            2.2225    -4.6327     0.8599 C.ar    
  18 C18            3.4337    -5.2848     0.6930 C.ar    
  19 C19            3.6464    -6.0311    -0.4508 C.ar    
  20 N20            2.7146    -6.1280    -1.3791 N.ar    
  21 C21            4.9609    -6.7433    -0.6399 C.3     
  22 F22           -2.2619    -2.7254     0.3703 F       
  23 F23            1.9398    -0.4238    -2.2966 F       
  24 H24            1.9252    -2.8387    -1.3149 H       
  25 H25           -2.2584    -0.3073    -0.5955 H       
  26 H26           -2.2850     1.3876    -1.2914 H       
  27 H27           -2.4005     2.5433    -4.4799 H       
  28 H28           -1.6658     4.1604    -4.5955 H       
  29 H29           -0.6312     2.7243    -4.4065 H       
  30 H30            0.8091    -5.6306    -2.0379 H       
  31 H31            2.0291    -4.0424     1.7434 H       
  32 H32            4.2027    -5.2105     1.4476 H       
  33 H33            4.8958    -7.7450    -0.2150 H       
  34 H34            5.1860    -6.8140    -1.7041 H       
  35 H35            5.7516    -6.1862    -0.1375 H       
@<TRIPOS>BOND
   1    1    2 1
   2    1    8 2
   3    1    9 am
   4    2    3 ar
   5    2    7 ar
   6    3    4 ar
   7    3   23 1
   8    4    5 ar
   9    4   24 1
  10    5    6 ar
  11    5   14 1
  12    6    7 ar
  13    6   22 1
  14    7   25 1
  15    9   10 am
  16    9   26 1
  17   10   11 2
  18   10   12 2
  19   10   13 1
  20   13   27 1
  21   13   28 1
  22   13   29 1
  23   14   16 1
  24   15   16 ar
  25   15   20 ar
  26   15   30 1
  27   16   17 ar
  28   17   18 ar
  29   17   31 1
  30   18   19 ar
  31   18   32 1
  32   19   20 ar
  33   19   21 1
  34   21   33 1
  35   21   34 1
  36   21   35 1

#	End of record

