#	Name: ASD10800048
#	Creating user name:	WinNT
#	Creation time:	15. 06. 2019 21:28

#	Modifying user name:	WinNT
#	Modification time:	15. 06. 2019 21:28

#	Program:	/corina/corina34_cracker 3.40 0067  02.08.2006

@<TRIPOS>MOLECULE
ASD10800048
  49   52    0    0    0
SMALL
NO_CHARGES


@<TRIPOS>ATOM
   1 C1            -0.0166     1.3728     0.0096 C.ar    
   2 C2             0.0021    -0.0041     0.0020 C.ar    
   3 C3             1.2101    -0.6792    -0.0055 C.ar    
   4 C4             2.3947     0.0335    -0.0052 C.ar    
   5 C5             2.3783     1.4132    -0.0008 C.ar    
   6 C6             1.1671     2.1000     0.0022 C.ar    
   7 C7             3.6759     2.1794     0.0002 C.3     
   8 C8             4.0527     2.5425     1.4379 C.3     
   9 N9             4.7323     1.3517    -0.5873 N.pl3   
  10 C10            5.2831     3.4126     1.4303 C.ar    
  11 C11            5.1570     4.7874     1.3614 C.ar    
  12 C12            6.5377     2.8361     1.4980 C.ar    
  13 C13            7.6664     3.6342     1.4910 C.ar    
  14 C14            7.5405     5.0088     1.4159 C.ar    
  15 C15            6.2857     5.5855     1.3543 C.ar    
  16 C16            9.0341     3.0058     1.5658 C.3     
  17 C17            6.1484     7.0840     1.2725 C.3     
  18 C18            4.9037     1.3216    -1.9519 C.2     
  19 N19            5.7958     0.6324    -2.5677 N.2     
  20 S20            3.9240     2.2197    -3.1172 S.3     
  21 C21            4.8041     1.6173    -4.5946 C.3     
  22 C22            5.8762     0.6842    -4.0104 C.3     
  23 O23            0.9224     3.4391    -0.0114 O.3     
  24 C24           -0.4231     3.6786     0.4354 C.3     
  25 C25           -1.1540     2.3753     0.0357 C.3     
  26 H26           -0.9257    -0.5569     0.0023 H       
  27 H27            1.2274    -1.7590    -0.0113 H       
  28 H28            3.3380    -0.4925    -0.0080 H       
  29 H29            3.5601     3.0909    -0.5863 H       
  30 H30            3.2287     3.0826     1.9041 H       
  31 H31            4.2552     1.6317     2.0015 H       
  32 H32            5.3109     0.8249    -0.0141 H       
  33 H33            4.1767     5.2380     1.3126 H       
  34 H34            6.6361     1.7622     1.5567 H       
  35 H35            8.4223     5.6323     1.4108 H       
  36 H36            9.3953     2.8008     0.5581 H       
  37 H37            9.7208     3.6886     2.0661 H       
  38 H38            8.9753     2.0735     2.1274 H       
  39 H39            6.1410     7.3917     0.2268 H       
  40 H40            5.2165     7.3900     1.7479 H       
  41 H41            6.9885     7.5543     1.7836 H       
  42 H42            4.1283     1.0623    -5.2451 H       
  43 H43            5.2636     2.4462    -5.1330 H       
  44 H44            6.8623     1.0479    -4.2992 H       
  45 H45            5.7351    -0.3187    -4.4135 H       
  46 H46           -0.4516     3.8210     1.5157 H       
  47 H47           -0.8540     4.5370    -0.0798 H       
  48 H48           -1.6107     2.4713    -0.9493 H       
  49 H49           -1.8983     2.1012     0.7834 H       
@<TRIPOS>BOND
   1    1    2 ar
   2    1    6 ar
   3    1   25 1
   4    2    3 ar
   5    2   26 1
   6    3    4 ar
   7    3   27 1
   8    4    5 ar
   9    4   28 1
  10    5    6 ar
  11    5    7 1
  12    6   23 1
  13    7    8 1
  14    7    9 1
  15    7   29 1
  16    8   10 1
  17    8   30 1
  18    8   31 1
  19    9   18 1
  20    9   32 1
  21   10   11 ar
  22   10   12 ar
  23   11   15 ar
  24   11   33 1
  25   12   13 ar
  26   12   34 1
  27   13   14 ar
  28   13   16 1
  29   14   15 ar
  30   14   35 1
  31   15   17 1
  32   16   36 1
  33   16   37 1
  34   16   38 1
  35   17   39 1
  36   17   40 1
  37   17   41 1
  38   18   19 2
  39   18   20 1
  40   19   22 1
  41   20   21 1
  42   21   22 1
  43   21   42 1
  44   21   43 1
  45   22   44 1
  46   22   45 1
  47   23   24 1
  48   24   25 1
  49   24   46 1
  50   24   47 1
  51   25   48 1
  52   25   49 1

#	End of record

