#	Name: ASD10100003
#	Creating user name:	WinNT
#	Creation time:	15. 06. 2019 21:24

#	Modifying user name:	WinNT
#	Modification time:	15. 06. 2019 21:24

#	Program:	/corina/corina34_cracker 3.40 0067  02.08.2006

@<TRIPOS>MOLECULE
ASD10100003
  45   47    0    0    0
SMALL
NO_CHARGES


@<TRIPOS>ATOM
   1 C1             0.9429    -1.2360     1.7045 C.ar    
   2 C2             0.4800    -1.6404     0.4663 C.ar    
   3 C3             0.3236    -2.9864     0.1927 C.ar    
   4 C4             0.6306    -3.9279     1.1571 C.ar    
   5 C5             1.0944    -3.5236     2.3950 C.ar    
   6 C6             1.2494    -2.1776     2.6691 C.ar    
   7 S7             1.1491     0.4793     2.0507 S.o2    
   8 O8             2.1069     0.5651     3.0969 O.2     
   9 O9             1.3093     1.1256     0.7954 O.2     
  10 N10           -0.2811     1.0278     2.6799 N.am    
  11 C11           -0.4990     1.0095     4.1285 C.3     
  12 C12           -3.2532     2.4318     0.1593 C.2     
  13 N13           -3.3058     1.1616     0.5993 N.am    
  14 C14           -2.3519     0.6795     1.4199 C.2     
  15 C15           -1.2922     1.5139     1.8188 C.2     
  16 C16           -1.2545     2.8031     1.3617 C.2     
  17 N17           -2.2510     3.2519     0.5250 N.am    
  18 O18           -2.4073    -0.4732     1.8146 O.2     
  19 O19           -4.1224     2.8439    -0.5847 O.2     
  20 C20           -2.2201     4.6302     0.0293 C.3     
  21 C21           -2.9658     5.5248     0.9857 C.ar    
  22 C22           -2.2947     6.1307     2.0314 C.ar    
  23 C23           -2.9787     6.9512     2.9087 C.ar    
  24 C24           -4.3338     7.1663     2.7400 C.ar    
  25 C25           -5.0047     6.5611     1.6938 C.ar    
  26 C26           -4.3198     5.7440     0.8140 C.ar    
  27 N27           -0.2298     3.6427     1.7346 N.pl3   
  28 H28            0.2401    -0.9048    -0.2872 H       
  29 H29           -0.0387    -3.3023    -0.7744 H       
  30 H30            0.5078    -4.9795     0.9436 H       
  31 H31            1.3339    -4.2592     3.1486 H       
  32 H32            1.6113    -1.8616     3.6363 H       
  33 H33           -1.2370     1.7663     4.3945 H       
  34 H34           -0.8619     0.0266     4.4289 H       
  35 H35            0.4399     1.2221     4.6398 H       
  36 H36           -4.0375     0.5876     0.3236 H       
  37 H37           -1.1857     4.9648    -0.0496 H       
  38 H38           -2.6921     4.6740    -0.9522 H       
  39 H39           -1.2360     5.9627     2.1631 H       
  40 H40           -2.4546     7.4240     3.7261 H       
  41 H41           -4.8684     7.8068     3.4259 H       
  42 H42           -6.0635     6.7288     1.5623 H       
  43 H43           -4.8432     5.2741    -0.0055 H       
  44 H44            0.4816     3.3153     2.3069 H       
  45 H45           -0.2191     4.5620     1.4251 H       
@<TRIPOS>BOND
   1    1    2 ar
   2    1    6 ar
   3    1    7 1
   4    2    3 ar
   5    2   28 1
   6    3    4 ar
   7    3   29 1
   8    4    5 ar
   9    4   30 1
  10    5    6 ar
  11    5   31 1
  12    6   32 1
  13    7    8 2
  14    7    9 2
  15    7   10 am
  16   10   11 1
  17   10   15 1
  18   11   33 1
  19   11   34 1
  20   11   35 1
  21   12   13 am
  22   12   17 am
  23   12   19 2
  24   13   14 am
  25   13   36 1
  26   14   15 1
  27   14   18 2
  28   15   16 2
  29   16   17 1
  30   16   27 1
  31   17   20 1
  32   20   21 1
  33   20   37 1
  34   20   38 1
  35   21   22 ar
  36   21   26 ar
  37   22   23 ar
  38   22   39 1
  39   23   24 ar
  40   23   40 1
  41   24   25 ar
  42   24   41 1
  43   25   26 ar
  44   25   42 1
  45   26   43 1
  46   27   44 1
  47   27   45 1

#	End of record

