#	Name: ASD10610133
#	Creating user name:	WinNT
#	Creation time:	15. 06. 2019 21:28

#	Modifying user name:	WinNT
#	Modification time:	15. 06. 2019 21:28

#	Program:	/corina/corina34_cracker 3.40 0067  02.08.2006

@<TRIPOS>MOLECULE
ASD10610133
  21   22    0    0    0
SMALL
NO_CHARGES


@<TRIPOS>ATOM
   1 N1            -0.0178     1.4648     0.0101 N.3     
   2 C2             0.0021    -0.0041     0.0020 C.3     
   3 C3            -1.4380    -0.5593     0.0128 C.3     
   4 C4            -1.7369    -0.7336    -1.4914 C.3     
   5 C5            -0.3854    -0.9331    -2.1433 C.ar    
   6 C6            -0.0565    -1.4414    -3.3890 C.ar    
   7 C7             1.2667    -1.5310    -3.7775 C.ar    
   8 C8             2.2678    -1.1120    -2.9201 C.ar    
   9 C9             1.9417    -0.6041    -1.6756 C.ar    
  10 C10            0.6135    -0.5140    -1.2854 C.ar    
  11 F11            2.9193    -0.1947    -0.8378 F       
  12 Br12           1.7082    -2.2266    -5.4796 Br      
  13 H13            0.9191     1.8392     0.0032 H       
  14 H14           -0.5563     1.8234    -0.7642 H       
  15 H15            0.5584    -0.3789     0.8612 H       
  16 H16           -1.4798    -1.5179     0.5298 H       
  17 H17           -2.1257     0.1559     0.4641 H       
  18 H18           -2.3675    -1.6080    -1.6528 H       
  19 H19           -2.2195     0.1600    -1.8872 H       
  20 H20           -0.8373    -1.7693    -4.0593 H       
  21 H21            3.3024    -1.1809    -3.2220 H       
@<TRIPOS>BOND
   1    1    2 1
   2    1   13 1
   3    1   14 1
   4    2    3 1
   5    2   10 1
   6    2   15 1
   7    3    4 1
   8    3   16 1
   9    3   17 1
  10    4    5 1
  11    4   18 1
  12    4   19 1
  13    5    6 ar
  14    5   10 ar
  15    6    7 ar
  16    6   20 1
  17    7    8 ar
  18    7   12 1
  19    8    9 ar
  20    8   21 1
  21    9   10 ar
  22    9   11 1

#	End of record

