#	Name: ASD11920016
#	Creating user name:	WinNT
#	Creation time:	15. 06. 2019 21:29

#	Modifying user name:	WinNT
#	Modification time:	15. 06. 2019 21:29

#	Program:	/corina/corina34_cracker 3.40 0067  02.08.2006

@<TRIPOS>MOLECULE
ASD11920016
  42   45    0    0    0
SMALL
NO_CHARGES


@<TRIPOS>ATOM
   1 C1            -0.0171     1.4112     0.0098 C.ar    
   2 C2             0.0021    -0.0041     0.0020 C.ar    
   3 C3             1.2450    -0.6810    -0.0135 C.ar    
   4 C4             2.4052     0.0376    -0.0207 C.ar    
   5 C5             2.3704     1.4248    -0.0125 C.ar    
   6 C6             1.1595     2.1025     0.0023 C.ar    
   7 C7             3.6608     2.2033    -0.0201 C.3     
   8 C8             4.0776     2.4709    -1.4434 C.ar    
   9 C9             3.6478     3.6223    -2.0834 C.ar    
  10 C10            4.0296     3.8641    -3.3809 C.ar    
  11 C11            4.8486     2.9569    -4.0601 C.ar    
  12 C12            5.2776     1.8002    -3.4089 C.ar    
  13 C13            4.8927     1.5685    -2.1040 C.ar    
  14 C14            3.5843     5.1056    -4.1173 C.3     
  15 C15            4.0606     5.2759    -5.5436 C.2     
  16 N16            4.8477     4.3394    -6.1005 N.am    
  17 C17            5.2453     3.2359    -5.4520 C.2     
  18 O18            5.9574     2.4392    -6.0305 O.2     
  19 O19            5.2769     4.5274    -7.4367 O.3     
  20 O20            3.7332     6.2533    -6.1817 O.2     
  21 C21           -1.1875    -0.7218     0.0100 C.2     
  22 S22           -2.6292    -0.1309     0.0269 S.o     
  23 C23           -3.5876    -1.6123     0.0277 C.2     
  24 C24           -2.7709    -2.6253     0.0143 C.2     
  25 C25           -1.3320    -2.2193    -0.0027 C.3     
  26 H26           -0.9581     1.9413     0.0172 H       
  27 H27            1.2751    -1.7606    -0.0192 H       
  28 H28            3.3552    -0.4760    -0.0325 H       
  29 H29            1.1483     3.1824     0.0086 H       
  30 H30            3.5170     3.1501     0.5005 H       
  31 H31            4.4364     1.6260     0.4832 H       
  32 H32            3.0147     4.3268    -1.5645 H       
  33 H33            5.9105     1.0914    -3.9222 H       
  34 H34            5.2236     0.6738    -1.5978 H       
  35 H35            2.4944     5.1172    -4.1249 H       
  36 H36            3.9201     5.9715    -3.5468 H       
  37 H37            5.8394     3.8162    -7.7729 H       
  38 H38           -2.7589     0.3141     1.2895 H       
  39 H39           -4.6661    -1.6687     0.0379 H       
  40 H40           -3.0990    -3.6542     0.0117 H       
  41 H41           -0.8577    -2.6223    -0.8975 H       
  42 H42           -0.8352    -2.6276     0.8774 H       
@<TRIPOS>BOND
   1    1    2 ar
   2    1    6 ar
   3    1   26 1
   4    2    3 ar
   5    2   21 1
   6    3    4 ar
   7    3   27 1
   8    4    5 ar
   9    4   28 1
  10    5    6 ar
  11    5    7 1
  12    6   29 1
  13    7    8 1
  14    7   30 1
  15    7   31 1
  16    8    9 ar
  17    8   13 ar
  18    9   10 ar
  19    9   32 1
  20   10   11 ar
  21   10   14 1
  22   11   12 ar
  23   11   17 1
  24   12   13 ar
  25   12   33 1
  26   13   34 1
  27   14   15 1
  28   14   35 1
  29   14   36 1
  30   15   16 am
  31   15   20 2
  32   16   17 am
  33   16   19 1
  34   17   18 2
  35   19   37 1
  36   21   22 2
  37   21   25 1
  38   22   23 1
  39   22   38 1
  40   23   24 2
  41   23   39 1
  42   24   25 1
  43   24   40 1
  44   25   41 1
  45   25   42 1

#	End of record

