#	Name: ASD11000140
#	Creating user name:	WinNT
#	Creation time:	15. 06. 2019 21:28

#	Modifying user name:	WinNT
#	Modification time:	15. 06. 2019 21:28

#	Program:	/corina/corina34_cracker 3.40 0067  02.08.2006

@<TRIPOS>MOLECULE
ASD11000140
  48   51    0    0    0
SMALL
NO_CHARGES


@<TRIPOS>ATOM
   1 N1            -0.0172     1.3214    -0.0111 N.ar    
   2 C2             0.0016    -0.0034    -0.0059 C.ar    
   3 N3             1.1402    -0.6810    -0.0154 N.ar    
   4 C4             2.3025    -0.0498    -0.0304 C.ar    
   5 C5             2.3192     1.3362    -0.0362 C.ar    
   6 C6             1.1099     2.0135    -0.0260 C.ar    
   7 C7             3.6238     2.0903    -0.0528 C.3     
   8 O8             4.0223     2.3232    -1.4052 O.3     
   9 C9             5.1873     2.9969    -1.5982 C.ar    
  10 C10            5.9305     3.4244    -0.5007 C.ar    
  11 C11            7.1134     4.1080    -0.6772 C.ar    
  12 C12            7.5755     4.3770    -1.9609 C.ar    
  13 C13            6.8275     3.9467    -3.0731 C.ar    
  14 C14            5.6307     3.2490    -2.8812 C.ar    
  15 N15            8.7577     5.0613    -2.1586 N.am    
  16 C16            9.2061     5.3234    -3.3987 C.2     
  17 C17            8.4934     4.9141    -4.5459 C.2     
  18 C18            7.3252     4.2375    -4.4190 C.2     
  19 O19           10.2544     5.9301    -3.5355 O.2     
  20 N20           -1.1977    -0.6966     0.0102 N.pl3   
  21 C21           -1.2012    -2.0901    -0.1028 C.ar    
  22 C22           -2.1494    -2.8411     0.5800 C.ar    
  23 C23           -0.2602    -2.7256    -0.9024 C.ar    
  24 C24           -0.2669    -4.1043    -1.0122 C.ar    
  25 C25           -1.2112    -4.8497    -0.3252 C.ar    
  26 C26           -2.1516    -4.2178     0.4667 C.ar    
  27 C27           -1.2169    -6.3518    -0.4462 C.3     
  28 F28            0.6474    -4.7243    -1.7899 F       
  29 C29           -0.2290    -6.9481     0.5585 C.3     
  30 H30            3.2272    -0.6076    -0.0377 H       
  31 H31            1.0881     3.0933    -0.0306 H       
  32 H32            3.4983     3.0447     0.4584 H       
  33 H33            4.3891     1.5037     0.4555 H       
  34 H34            5.5758     3.2183     0.4983 H       
  35 H35            7.6815     4.4351     0.1811 H       
  36 H36            5.0532     2.9163    -3.7310 H       
  37 H37            9.2724     5.3577    -1.3917 H       
  38 H38            8.8801     5.1404    -5.5286 H       
  39 H39            6.7739     3.9201    -5.2917 H       
  40 H40           -2.0350    -0.2152     0.0999 H       
  41 H41           -2.8845    -2.3489     1.1994 H       
  42 H42            0.4756    -2.1441    -1.4380 H       
  43 H43           -2.8865    -4.8016     1.0010 H       
  44 H44           -2.2182    -6.7293    -0.2389 H       
  45 H45           -0.9235    -6.6361    -1.4568 H       
  46 H46            0.7724    -6.5707     0.3511 H       
  47 H47           -0.5224    -6.6639     1.5690 H       
  48 H48           -0.2331    -8.0346     0.4710 H       
@<TRIPOS>BOND
   1    1    2 ar
   2    1    6 ar
   3    2    3 ar
   4    2   20 1
   5    3    4 ar
   6    4    5 ar
   7    4   30 1
   8    5    6 ar
   9    5    7 1
  10    6   31 1
  11    7    8 1
  12    7   32 1
  13    7   33 1
  14    8    9 1
  15    9   10 ar
  16    9   14 ar
  17   10   11 ar
  18   10   34 1
  19   11   12 ar
  20   11   35 1
  21   12   13 ar
  22   12   15 1
  23   13   14 ar
  24   13   18 1
  25   14   36 1
  26   15   16 am
  27   15   37 1
  28   16   17 1
  29   16   19 2
  30   17   18 2
  31   17   38 1
  32   18   39 1
  33   20   21 1
  34   20   40 1
  35   21   22 ar
  36   21   23 ar
  37   22   26 ar
  38   22   41 1
  39   23   24 ar
  40   23   42 1
  41   24   25 ar
  42   24   28 1
  43   25   26 ar
  44   25   27 1
  45   26   43 1
  46   27   29 1
  47   27   44 1
  48   27   45 1
  49   29   46 1
  50   29   47 1
  51   29   48 1

#	End of record

