#	Name: ASD13590001
#	Creating user name:	WinNT
#	Creation time:	15. 06. 2019 21:30

#	Modifying user name:	WinNT
#	Modification time:	15. 06. 2019 21:30

#	Program:	/corina/corina34_cracker 3.40 0067  02.08.2006

@<TRIPOS>MOLECULE
ASD13590001
  64   66    0    0    0
SMALL
NO_CHARGES


@<TRIPOS>ATOM
   1 C1            -0.0169     1.3943     0.0097 C.ar    
   2 C2             0.0021    -0.0041     0.0020 C.ar    
   3 C3             1.1928    -0.7009    -0.0120 C.ar    
   4 C4             2.4046     0.0058    -0.0192 C.ar    
   5 C5             2.3820     1.4002    -0.0123 C.ar    
   6 C6             1.1758     2.0951     0.0021 C.ar    
   7 O7            -1.2625     1.9452     0.0302 O.3     
   8 O8             1.2872     3.4452     0.0087 O.3     
   9 C9            -1.4359     3.2559    -0.1891 C.2     
  10 C10            0.5804     4.2281     0.8506 C.ar    
  11 C11           -0.8123     4.2219     0.7263 C.ar    
  12 C12            1.1871     5.0333     1.7926 C.ar    
  13 C13            0.4105     5.8896     2.5642 C.ar    
  14 C14           -0.9693     5.9370     2.3898 C.ar    
  15 C15           -1.5812     5.1088     1.4816 C.ar    
  16 C16            3.6866    -0.7169    -0.0335 C.2     
  17 C17            3.6805     2.1649    -0.0201 C.3     
  18 C18            4.1072     2.4306    -1.4651 C.3     
  19 C19            5.4256     3.2070    -1.4730 C.3     
  20 C20            5.8523     3.4728    -2.9181 C.3     
  21 C21            7.1706     4.2492    -2.9260 C.3     
  22 C22           -3.0769     5.1583     1.3041 C.3     
  23 C23           -3.7199     4.0997     2.1627 C.2     
  24 C24           -5.2184     3.9400     2.1661 C.3     
  25 C25           -5.6081     2.8043     3.1143 C.3     
  26 C26           -7.1295     2.6421     3.1178 C.3     
  27 C27           -7.5192     1.5064     4.0660 C.3     
  28 C28           -9.0405     1.3442     4.0695 C.3     
  29 O29            1.0009     6.6834     3.4930 O.3     
  30 O30           -3.0344     3.3795     2.8479 O.2     
  31 O31           -2.0994     3.6403    -1.1320 O.2     
  32 O32            4.2837    -1.0530     1.1273 O.3     
  33 O33            4.2069    -1.0106    -1.0919 O.2     
  34 O34            1.1916    -2.0579    -0.0182 O.3     
  35 H35           -0.9311    -0.5477     0.0075 H       
  36 H36            2.2579     4.9987     1.9292 H       
  37 H37           -1.5606     6.6281     2.9722 H       
  38 H38            3.5465     3.1137     0.4995 H       
  39 H39            4.4497     1.5799     0.4842 H       
  40 H40            4.2412     1.4819    -1.9847 H       
  41 H41            3.3380     3.0156    -1.9694 H       
  42 H42            5.2916     4.1558    -0.9534 H       
  43 H43            6.1947     2.6221    -0.9688 H       
  44 H44            5.9862     2.5240    -3.4377 H       
  45 H45            5.0831     4.0577    -3.4224 H       
  46 H46            7.4746     4.4385    -3.9555 H       
  47 H47            7.0367     5.1979    -2.4064 H       
  48 H48            7.9398     3.6642    -2.4217 H       
  49 H49           -3.4457     6.1402     1.6008 H       
  50 H50           -3.3249     4.9778     0.2582 H       
  51 H51           -5.6820     4.8680     2.5009 H       
  52 H52           -5.5611     3.7057     1.1583 H       
  53 H53           -5.1446     1.8763     2.7795 H       
  54 H54           -5.2654     3.0386     4.1221 H       
  55 H55           -7.5930     3.5701     3.4526 H       
  56 H56           -7.4722     2.4078     2.1100 H       
  57 H57           -7.0556     0.5784     3.7312 H       
  58 H58           -7.1764     1.7407     5.0738 H       
  59 H59           -9.3182     0.5351     4.7450 H       
  60 H60           -9.5041     2.2722     4.4043 H       
  61 H61           -9.3833     1.1099     3.0616 H       
  62 H62            1.2708     7.5489     3.1565 H       
  63 H63            5.1244    -1.5270     1.0673 H       
  64 H64            1.1833    -2.4471    -0.9034 H       
@<TRIPOS>BOND
   1    1    2 ar
   2    1    6 ar
   3    1    7 1
   4    2    3 ar
   5    2   35 1
   6    3    4 ar
   7    3   34 1
   8    4    5 ar
   9    4   16 1
  10    5    6 ar
  11    5   17 1
  12    6    8 1
  13    7    9 1
  14    8   10 1
  15    9   11 1
  16    9   31 2
  17   10   12 ar
  18   10   11 ar
  19   11   15 ar
  20   12   13 ar
  21   12   36 1
  22   13   14 ar
  23   13   29 1
  24   14   15 ar
  25   14   37 1
  26   15   22 1
  27   16   32 1
  28   16   33 2
  29   17   18 1
  30   17   38 1
  31   17   39 1
  32   18   19 1
  33   18   40 1
  34   18   41 1
  35   19   20 1
  36   19   42 1
  37   19   43 1
  38   20   21 1
  39   20   44 1
  40   20   45 1
  41   21   46 1
  42   21   47 1
  43   21   48 1
  44   22   23 1
  45   22   49 1
  46   22   50 1
  47   23   24 1
  48   23   30 2
  49   24   25 1
  50   24   51 1
  51   24   52 1
  52   25   26 1
  53   25   53 1
  54   25   54 1
  55   26   27 1
  56   26   55 1
  57   26   56 1
  58   27   28 1
  59   27   57 1
  60   27   58 1
  61   28   59 1
  62   28   60 1
  63   28   61 1
  64   29   62 1
  65   32   63 1
  66   34   64 1

#	End of record

