#	Name: ASD10160483
#	Creating user name:	WinNT
#	Creation time:	15. 06. 2019 21:26

#	Modifying user name:	WinNT
#	Modification time:	15. 06. 2019 21:26

#	Program:	/corina/corina34_cracker 3.40 0067  02.08.2006

@<TRIPOS>MOLECULE
ASD10160483
  52   52    0    0    0
SMALL
NO_CHARGES


@<TRIPOS>ATOM
   1 C1            -2.8707     2.1063     0.5686 C.ar    
   2 C2            -1.8412     1.2279     0.2615 C.ar    
   3 C3            -0.5483     1.7252     0.1058 C.ar    
   4 C4            -0.3420     3.0849     0.2649 C.ar    
   5 C5            -1.4228     3.9026     0.5723 C.ar    
   6 N6            -2.6359     3.3965     0.7127 N.ar    
   7 S7            -2.1641    -0.4939     0.0713 S.3     
   8 Si8           -2.3934    -0.7110    -2.0553 Si      
   9 C9            -3.9821     0.0990    -2.5945 C.3     
  10 C10           -5.1336    -0.4063    -1.7229 C.3     
  11 C11           -3.8572     1.6165    -2.4450 C.3     
  12 C12           -0.9574     0.1011    -2.9209 C.3     
  13 C13            0.2989    -0.7523    -2.7351 C.3     
  14 C14           -1.2691     0.2318    -4.4131 C.3     
  15 C15           -2.4394    -2.5212    -2.4934 C.3     
  16 C16           -2.2316    -2.6867    -4.0001 C.3     
  17 C17           -1.3279    -3.2562    -1.7415 C.3     
  18 O18           -1.2303     5.2377     0.7304 O.3     
  19 C19           -2.3798     6.0260     1.0456 C.3     
  20 C20           -2.5429     6.1052     2.5649 C.3     
  21 C21           -2.2030     7.4356     0.4775 C.3     
  22 Cl22           1.2471     3.7598     0.0833 Cl      
  23 H23           -3.8762     1.7301     0.6865 H       
  24 H24            0.2728     1.0655    -0.1330 H       
  25 H25           -4.1802    -0.1483    -3.6375 H       
  26 H26           -4.9354    -0.1590    -0.6800 H       
  27 H27           -6.0631     0.0676    -2.0384 H       
  28 H28           -5.2225    -1.4874    -1.8294 H       
  29 H29           -3.7852     1.8728    -1.3880 H       
  30 H30           -2.9624     1.9603    -2.9640 H       
  31 H31           -4.7349     2.0976    -2.8766 H       
  32 H32           -0.7901     1.0911    -2.4966 H       
  33 H33            0.1858    -1.6890    -3.2810 H       
  34 H34            1.1650    -0.2117    -3.1167 H       
  35 H35            0.4407    -0.9642    -1.6754 H       
  36 H36           -1.4637    -0.7557    -4.8315 H       
  37 H37           -2.1478     0.8627    -4.5468 H       
  38 H38           -0.4177     0.6815    -4.9241 H       
  39 H39           -3.4061    -2.9387    -2.2119 H       
  40 H40           -1.2091    -2.4112    -4.2584 H       
  41 H41           -2.4097    -3.7251    -4.2795 H       
  42 H42           -2.9280    -2.0417    -4.5360 H       
  43 H43           -1.3365    -4.3101    -2.0198 H       
  44 H44           -0.3635    -2.8197    -2.0011 H       
  45 H45           -1.4920    -3.1626    -0.6680 H       
  46 H46           -3.2664     5.5667     0.6085 H       
  47 H47           -1.6563     6.5645     3.0020 H       
  48 H48           -3.4196     6.7064     2.8053 H       
  49 H49           -2.6689     5.1010     2.9696 H       
  50 H50           -2.0868     7.3791    -0.6048 H       
  51 H51           -3.0797     8.0368     0.7180 H       
  52 H52           -1.3164     7.8949     0.9147 H       
@<TRIPOS>BOND
   1    1    2 ar
   2    1    6 ar
   3    1   23 1
   4    2    3 ar
   5    2    7 1
   6    3    4 ar
   7    3   24 1
   8    4    5 ar
   9    4   22 1
  10    5    6 ar
  11    5   18 1
  12    7    8 1
  13    8    9 1
  14    8   12 1
  15    8   15 1
  16    9   10 1
  17    9   11 1
  18    9   25 1
  19   10   26 1
  20   10   27 1
  21   10   28 1
  22   11   29 1
  23   11   30 1
  24   11   31 1
  25   12   13 1
  26   12   14 1
  27   12   32 1
  28   13   33 1
  29   13   34 1
  30   13   35 1
  31   14   36 1
  32   14   37 1
  33   14   38 1
  34   15   16 1
  35   15   17 1
  36   15   39 1
  37   16   40 1
  38   16   41 1
  39   16   42 1
  40   17   43 1
  41   17   44 1
  42   17   45 1
  43   18   19 1
  44   19   20 1
  45   19   21 1
  46   19   46 1
  47   20   47 1
  48   20   48 1
  49   20   49 1
  50   21   50 1
  51   21   51 1
  52   21   52 1

#	End of record

