#	Name: ASD11000016
#	Creating user name:	WinNT
#	Creation time:	15. 06. 2019 21:28

#	Modifying user name:	WinNT
#	Modification time:	15. 06. 2019 21:28

#	Program:	/corina/corina34_cracker 3.40 0067  02.08.2006

@<TRIPOS>MOLECULE
ASD11000016
  55   58    0    0    0
SMALL
NO_CHARGES


@<TRIPOS>ATOM
   1 C1            -1.4281    -0.0324    -0.5485 C.ar    
   2 C2            -0.9190    -1.2962    -0.3204 C.ar    
   3 C3             0.4522    -1.5054    -0.3461 C.ar    
   4 C4             1.3088    -0.4442    -0.6009 C.ar    
   5 C5             0.7947     0.8177    -0.8283 C.ar    
   6 C6            -0.5723     1.0236    -0.8021 C.ar    
   7 O7             0.9555    -2.7476    -0.1217 O.3     
   8 C8             2.3769    -2.8890    -0.1634 C.3     
   9 C9             2.7527    -4.3466     0.1105 C.3     
  10 N10            2.2597    -4.7369     1.4356 N.am    
  11 C11            2.1336    -5.2310    -0.9429 C.ar    
  12 C12            1.4343    -6.3747    -0.6263 C.ar    
  13 C13            2.2894    -4.8587    -2.2714 C.ar    
  14 C14            0.9002    -7.1573    -1.6431 C.ar    
  15 C15            1.0561    -6.7932    -2.9677 C.ar    
  16 C16            1.7539    -5.6318    -3.2853 C.ar    
  17 C17            2.2091    -6.1764     1.7407 C.3     
  18 C18            1.2000    -6.8223     0.7927 C.3     
  19 O19            1.9093    -5.2603    -4.5843 O.3     
  20 C20            2.6375    -4.0560    -4.8319 C.3     
  21 O21            0.5297    -7.5659    -3.9553 O.3     
  22 C22           -0.1739    -8.7428    -3.5528 C.3     
  23 C23            1.8690    -3.8150     2.3378 C.2     
  24 O24            2.0304    -2.6325     2.1072 O.2     
  25 C25            1.2441    -4.2419     3.6079 C.ar    
  26 C26            1.3751    -3.4546     4.7529 C.ar    
  27 C27            0.7892    -3.8585     5.9347 C.ar    
  28 C28            0.0733    -5.0413     5.9867 C.ar    
  29 C29           -0.0603    -5.8264     4.8553 C.ar    
  30 C30            0.5158    -5.4312     3.6657 C.ar    
  31 H31           -2.4957     0.1301    -0.5330 H       
  32 H32           -1.5879    -2.1206    -0.1220 H       
  33 H33            2.3767    -0.6045    -0.6211 H       
  34 H34            1.4611     1.6441    -1.0263 H       
  35 H35           -0.9722     2.0108    -0.9802 H       
  36 H36            2.7421    -2.5986    -1.1485 H       
  37 H37            2.8282    -2.2488     0.5946 H       
  38 H38            3.8371    -4.4533     0.0812 H       
  39 H39            2.8330    -3.9578    -2.5149 H       
  40 H40            0.3587    -8.0585    -1.3963 H       
  41 H41            3.1932    -6.6201     1.5899 H       
  42 H42            1.8918    -6.3236     2.7731 H       
  43 H43            0.1918    -6.5399     1.0958 H       
  44 H44            1.2996    -7.9063     0.8477 H       
  45 H45            2.1335    -3.2203    -4.3465 H       
  46 H46            3.6470    -4.1531    -4.4323 H       
  47 H47            2.6877    -3.8760    -5.9057 H       
  48 H48           -0.5414    -9.2660    -4.4356 H       
  49 H49            0.4988    -9.3960    -2.9970 H       
  50 H50           -1.0157    -8.4640    -2.9190 H       
  51 H51            1.9343    -2.5314     4.7138 H       
  52 H52            0.8898    -3.2502     6.8214 H       
  53 H53           -0.3828    -5.3534     6.9145 H       
  54 H54           -0.6204    -6.7487     4.9025 H       
  55 H55            0.4105    -6.0447     2.7831 H       
@<TRIPOS>BOND
   1    1    2 ar
   2    1    6 ar
   3    1   31 1
   4    2    3 ar
   5    2   32 1
   6    3    4 ar
   7    3    7 1
   8    4    5 ar
   9    4   33 1
  10    5    6 ar
  11    5   34 1
  12    6   35 1
  13    7    8 1
  14    8    9 1
  15    8   36 1
  16    8   37 1
  17    9   10 1
  18    9   11 1
  19    9   38 1
  20   10   17 1
  21   10   23 am
  22   11   12 ar
  23   11   13 ar
  24   12   14 ar
  25   12   18 1
  26   13   16 ar
  27   13   39 1
  28   14   15 ar
  29   14   40 1
  30   15   16 ar
  31   15   21 1
  32   16   19 1
  33   17   18 1
  34   17   41 1
  35   17   42 1
  36   18   43 1
  37   18   44 1
  38   19   20 1
  39   20   45 1
  40   20   46 1
  41   20   47 1
  42   21   22 1
  43   22   48 1
  44   22   49 1
  45   22   50 1
  46   23   24 2
  47   23   25 1
  48   25   26 ar
  49   25   30 ar
  50   26   27 ar
  51   26   51 1
  52   27   28 ar
  53   27   52 1
  54   28   29 ar
  55   28   53 1
  56   29   30 ar
  57   29   54 1
  58   30   55 1

#	End of record

