#	Name: ASD13490001
#	Creating user name:	WinNT
#	Creation time:	15. 06. 2019 21:30

#	Modifying user name:	WinNT
#	Modification time:	15. 06. 2019 21:30

#	Program:	/corina/corina34_cracker 3.40 0067  02.08.2006

@<TRIPOS>MOLECULE
ASD13490001
  53   54    0    0    0
SMALL
NO_CHARGES


@<TRIPOS>ATOM
   1 C1             1.1780     1.2461     3.2242 C.3     
   2 C2             1.3706    -0.2376     2.9042 C.3     
   3 C3             0.5672    -0.5979     1.6530 C.3     
   4 C4             0.7520    -2.0607     1.3413 C.2     
   5 N5            -0.2826    -2.9141     1.4747 N.am    
   6 C6            -0.0779    -4.3506     1.2729 C.3     
   7 C7            -1.3808    -4.9920     0.8701 C.2     
   8 N8            -1.4337    -6.3171     0.6297 N.am    
   9 C9             2.8542    -0.5173     2.6557 C.3     
  10 O10            1.8317    -2.4700     0.9705 O.2     
  11 C11            0.4207    -4.9825     2.5741 C.3     
  12 O12           -2.3818    -4.3157     0.7622 O.2     
  13 C13           -2.7002    -6.9405     0.2381 C.3     
  14 C14           -3.5957    -6.9974     1.4346 C.2     
  15 N15           -3.1506    -7.5360     2.5560 N.am    
  16 C16           -1.8623    -8.2148     2.5910 C.3     
  17 C17           -2.0635    -9.4018     0.3534 C.ar    
  18 C18           -2.4096    -8.2823    -0.3564 C.ar    
  19 C19           -1.8975    -9.5221     1.8432 C.3     
  20 C20           -2.5118    -8.3532    -1.7474 C.ar    
  21 C21           -2.2755    -9.5268    -2.4254 C.ar    
  22 C22           -1.9299   -10.6598    -1.7126 C.ar    
  23 C23           -1.8266   -10.5925    -0.3437 C.ar    
  24 O24           -4.7222    -6.5519     1.3761 O.2     
  25 C25           -3.9597    -7.4502     3.7743 C.3     
  26 O26           -0.8177    -0.3312     1.8830 O.3     
  27 H27            0.1211     1.4454     3.4012 H       
  28 H28            1.7504     1.5028     4.1156 H       
  29 H29            1.5253     1.8472     2.3838 H       
  30 H30            1.0234    -0.8386     3.7446 H       
  31 H31            0.9175    -0.0001     0.8116 H       
  32 H32           -1.1627    -2.5772     1.7044 H       
  33 H33            0.6615    -4.5054     0.4871 H       
  34 H34           -0.6331    -6.8580     0.7160 H       
  35 H35            3.4406    -0.1377     3.4925 H       
  36 H36            3.0104    -1.5918     2.5603 H       
  37 H37            3.1685    -0.0215     1.7373 H       
  38 H38            0.5730    -6.0513     2.4239 H       
  39 H39            1.3631    -4.5186     2.8654 H       
  40 H40           -0.3187    -4.8277     3.3598 H       
  41 H41           -3.1734    -6.3193    -0.5224 H       
  42 H42           -1.1083    -7.5688     2.1413 H       
  43 H43           -1.5901    -8.4066     3.6289 H       
  44 H44           -0.9685   -10.0561     2.0430 H       
  45 H45           -2.7220   -10.1190     2.2332 H       
  46 H46           -2.7824    -7.4675    -2.3030 H       
  47 H47           -2.3587    -9.5624    -3.5016 H       
  48 H48           -1.7429   -11.5906    -2.2274 H       
  49 H49           -1.5558   -11.4805     0.2080 H       
  50 H50           -4.8831    -6.9121     3.5601 H       
  51 H51           -4.1973    -8.4548     4.1242 H       
  52 H52           -3.4006    -6.9198     4.5452 H       
  53 H53           -1.1973    -0.8300     2.6193 H       
@<TRIPOS>BOND
   1    1    2 1
   2    1   27 1
   3    1   28 1
   4    1   29 1
   5    2    3 1
   6    2    9 1
   7    2   30 1
   8    3    4 1
   9    3   26 1
  10    3   31 1
  11    4    5 am
  12    4   10 2
  13    5    6 1
  14    5   32 1
  15    6    7 1
  16    6   11 1
  17    6   33 1
  18    7    8 am
  19    7   12 2
  20    8   13 1
  21    8   34 1
  22    9   35 1
  23    9   36 1
  24    9   37 1
  25   11   38 1
  26   11   39 1
  27   11   40 1
  28   13   14 1
  29   13   18 1
  30   13   41 1
  31   14   15 am
  32   14   24 2
  33   15   16 1
  34   15   25 1
  35   16   19 1
  36   16   42 1
  37   16   43 1
  38   17   19 1
  39   17   23 ar
  40   17   18 ar
  41   18   20 ar
  42   19   44 1
  43   19   45 1
  44   20   21 ar
  45   20   46 1
  46   21   22 ar
  47   21   47 1
  48   22   23 ar
  49   22   48 1
  50   23   49 1
  51   25   50 1
  52   25   51 1
  53   25   52 1
  54   26   53 1

#	End of record

