#	Name: ASD10220017
#	Creating user name:	WinNT
#	Creation time:	15. 06. 2019 21:26

#	Modifying user name:	WinNT
#	Modification time:	15. 06. 2019 21:26

#	Program:	/corina/corina34_cracker 3.40 0067  02.08.2006

@<TRIPOS>MOLECULE
ASD10220017
  31   33    0    0    0
SMALL
NO_CHARGES


@<TRIPOS>ATOM
   1 C1            -0.0066     1.4635    -0.1675 C.2     
   2 C2             0.0232     0.0532    -0.3116 C.2     
   3 C3            -1.1127    -0.6728    -0.3660 C.2     
   4 C4            -2.4338    -0.0552    -0.2804 C.2     
   5 C5            -2.5491     1.3192    -0.1381 C.2     
   6 C6            -1.3380     2.1513    -0.0677 C.2     
   7 O7            -3.6777    -0.5704    -0.3119 O.3     
   8 C8            -4.6036     0.3841    -0.1987 C.2     
   9 C9            -3.9874     1.6019    -0.0848 C.2     
  10 O10           -1.4124     3.3556     0.0567 O.2     
  11 O11            1.0253     2.1027    -0.1206 O.2     
  12 C12           -4.6331     2.9184     0.0611 C.2     
  13 O13           -3.9562     3.9089     0.2620 O.2     
  14 C14           -6.1008     3.0351    -0.0365 C.ar    
  15 C15           -6.7712     4.0472     0.6572 C.ar    
  16 C16           -8.1406     4.1525     0.5633 C.ar    
  17 C17           -8.8570     3.2540    -0.2194 C.ar    
  18 C18           -8.1943     2.2459    -0.9104 C.ar    
  19 C19           -6.8244     2.1375    -0.8275 C.ar    
  20 O20          -10.2068     3.3611    -0.3088 O.3     
  21 C21          -10.8804     2.4053    -1.1302 C.3     
  22 Cl22           1.5547    -0.7569    -0.4209 Cl      
  23 H23           -1.0431    -1.7449    -0.4767 H       
  24 H24           -5.6713     0.2218    -0.1977 H       
  25 H25           -6.2156     4.7451     1.2659 H       
  26 H26           -8.6593     4.9340     1.0988 H       
  27 H27           -8.7545     1.5495    -1.5168 H       
  28 H28           -6.3103     1.3543    -1.3648 H       
  29 H29          -10.5121     2.4817    -2.1532 H       
  30 H30          -10.6908     1.4015    -0.7498 H       
  31 H31          -11.9521     2.6035    -1.1140 H       
@<TRIPOS>BOND
   1    1    2 1
   2    1   11 2
   3    1    6 1
   4    2    3 2
   5    2   22 1
   6    3    4 1
   7    3   23 1
   8    4    5 2
   9    4    7 1
  10    5    6 1
  11    5    9 1
  12    6   10 2
  13    7    8 1
  14    8    9 2
  15    8   24 1
  16    9   12 1
  17   12   13 2
  18   12   14 1
  19   14   15 ar
  20   14   19 ar
  21   15   16 ar
  22   15   25 1
  23   16   17 ar
  24   16   26 1
  25   17   18 ar
  26   17   20 1
  27   18   19 ar
  28   18   27 1
  29   19   28 1
  30   20   21 1
  31   21   29 1
  32   21   30 1
  33   21   31 1

#	End of record

