#	Name: ASD10610164
#	Creating user name:	WinNT
#	Creation time:	15. 06. 2019 21:28

#	Modifying user name:	WinNT
#	Modification time:	15. 06. 2019 21:28

#	Program:	/corina/corina34_cracker 3.40 0067  02.08.2006

@<TRIPOS>MOLECULE
ASD10610164
  20   21    0    0    0
SMALL
NO_CHARGES


@<TRIPOS>ATOM
   1 N1            -0.0154     1.2845     0.0091 N.2     
   2 N2             0.0021    -0.0041     0.0020 N.pl3   
   3 N3             1.2225    -0.4134    -0.0118 N.2     
   4 N4             2.0075     0.6100    -0.0138 N.2     
   5 C5             1.2340     1.7049    -0.0006 C.2     
   6 C6            -1.1813    -0.8676     0.0087 C.3     
   7 C7             1.6947     3.1157     0.0022 C.ar    
   8 C8             3.0579     3.4066    -0.0092 C.ar    
   9 C9             3.4814     4.7208    -0.0066 C.ar    
  10 C10            2.5551     5.7498     0.0074 C.ar    
  11 C11            1.2004     5.4680     0.0188 C.ar    
  12 C12            0.7650     4.1557     0.0104 C.ar    
  13 F13           -0.5578     3.8813     0.0159 F       
  14 Cl14           3.0953     7.3996     0.0112 Cl      
  15 Br15           4.3254     2.0033    -0.0277 Br      
  16 H16           -1.4846    -1.0763    -1.0173 H       
  17 H17           -0.9454    -1.8035     0.5153 H       
  18 H18           -1.9945    -0.3656     0.5330 H       
  19 H19            4.5375     4.9467    -0.0150 H       
  20 H20            0.4820     6.2744     0.0296 H       
@<TRIPOS>BOND
   1    1    2 1
   2    1    5 2
   3    2    3 1
   4    2    6 1
   5    3    4 2
   6    4    5 1
   7    5    7 1
   8    6   16 1
   9    6   17 1
  10    6   18 1
  11    7    8 ar
  12    7   12 ar
  13    8    9 ar
  14    8   15 1
  15    9   10 ar
  16    9   19 1
  17   10   11 ar
  18   10   14 1
  19   11   12 ar
  20   11   20 1
  21   12   13 1

#	End of record

