#	Name: ASD10160400
#	Creating user name:	WinNT
#	Creation time:	15. 06. 2019 21:25

#	Modifying user name:	WinNT
#	Modification time:	15. 06. 2019 21:25

#	Program:	/corina/corina34_cracker 3.40 0067  02.08.2006

@<TRIPOS>MOLECULE
ASD10160400
  30   31    0    0    0
SMALL
NO_CHARGES


@<TRIPOS>ATOM
   1 C1            -0.0168     1.3861     0.0097 C.ar    
   2 C2             0.0021    -0.0041     0.0020 C.ar    
   3 C3             1.2210    -0.6607    -0.0131 C.ar    
   4 C4             2.3825     0.0998    -0.0201 C.ar    
   5 C5             2.2883     1.4769    -0.0118 C.ar    
   6 N6             1.1118     2.0749     0.0026 N.ar    
   7 O7            -1.2046     2.0422     0.0188 O.3     
   8 N8            -2.3526     5.9880     0.7816 N.3     
   9 C9            -2.3664     5.5562    -0.6219 C.3     
  10 C10           -2.3923     4.0274    -0.6864 C.3     
  11 C11           -1.1569     3.4703     0.0264 C.3     
  12 C12           -1.1409     3.9742     1.4722 C.3     
  13 C13           -1.1513     5.5045     1.4741 C.3     
  14 C14           -2.4672     7.4489     0.8841 C.3     
  15 Cl15          -1.4823    -0.9043     0.0119 Cl      
  16 H16            1.2672    -1.7397    -0.0190 H       
  17 H17            3.3495    -0.3810    -0.0316 H       
  18 H18            3.1890     2.0728    -0.0172 H       
  19 H19           -3.2520     5.9556    -1.1161 H       
  20 H20           -1.4725     5.9258    -1.1244 H       
  21 H21           -3.2928     3.6577    -0.1961 H       
  22 H22           -2.3867     3.7070    -1.7282 H       
  23 H23           -0.2568     3.8074    -0.4878 H       
  24 H24           -2.0218     3.6036     1.9964 H       
  25 H25           -0.2414     3.6157     1.9726 H       
  26 H26           -0.2632     5.8744     0.9618 H       
  27 H27           -1.1545     5.8664     2.5023 H       
  28 H28           -3.4027     7.7729     0.4279 H       
  29 H29           -2.4545     7.7416     1.9340 H       
  30 H30           -1.6296     7.9163     0.3664 H       
@<TRIPOS>BOND
   1    1    2 ar
   2    1    6 ar
   3    1    7 1
   4    2    3 ar
   5    2   15 1
   6    3    4 ar
   7    3   16 1
   8    4    5 ar
   9    4   17 1
  10    5    6 ar
  11    5   18 1
  12    7   11 1
  13    8    9 1
  14    8   13 1
  15    8   14 1
  16    9   10 1
  17    9   19 1
  18    9   20 1
  19   10   11 1
  20   10   21 1
  21   10   22 1
  22   11   12 1
  23   11   23 1
  24   12   13 1
  25   12   24 1
  26   12   25 1
  27   13   26 1
  28   13   27 1
  29   14   28 1
  30   14   29 1
  31   14   30 1

#	End of record

