#	Name: ASD13110011
#	Creating user name:	WinNT
#	Creation time:	15. 06. 2019 21:30

#	Modifying user name:	WinNT
#	Modification time:	15. 06. 2019 21:30

#	Program:	/corina/corina34_cracker 3.40 0067  02.08.2006

@<TRIPOS>MOLECULE
ASD13110011
  45   48    0    0    0
SMALL
NO_CHARGES


@<TRIPOS>ATOM
   1 C1            -0.0169     1.3930     0.0097 C.ar    
   2 C2             0.0021    -0.0041     0.0020 C.ar    
   3 C3             1.2341    -0.6797    -0.0134 C.ar    
   4 C4             2.4198     0.0412    -0.0208 C.ar    
   5 C5             2.3847     1.4203    -0.0131 C.ar    
   6 C6             1.1690     2.0931     0.0021 C.ar    
   7 N7             0.9294    -2.0269    -0.0173 N.pl3   
   8 C8            -0.4268    -2.1351    -0.0046 C.2     
   9 N9            -0.9696    -0.9529     0.0066 N.2     
  10 C10           -1.1891    -3.4351    -0.0048 C.3     
  11 N11           -1.5265    -3.8035     1.3723 N.am    
  12 C12           -2.7865    -3.3478     1.9648 C.3     
  13 C13           -0.6777    -4.5617     2.0943 C.2     
  14 O14            0.3654    -4.9390     1.6038 O.2     
  15 C15           -1.0248    -4.9408     3.5110 C.3     
  16 N16            0.0507    -5.7603     4.0747 N.am    
  17 C17            1.1051    -5.1819     4.7380 C.2     
  18 C18            2.0137    -6.0406     5.2009 C.2     
  19 S19            1.4581    -7.6537     4.7464 S.3     
  20 C20            0.0304    -7.0943     3.9624 C.2     
  21 C21            3.2647    -5.6956     5.9601 C.3     
  22 C22            3.5405    -4.1960     5.7917 C.3     
  23 C23            2.2473    -3.4231     6.0683 C.3     
  24 C24            1.2462    -3.6786     4.9405 C.3     
  25 O25           -0.8217    -7.7726     3.4165 O.2     
  26 Cl26           1.1449     3.8289     0.0117 Cl      
  27 Cl27           3.8688     2.3209    -0.0218 Cl      
  28 H28           -0.9584     1.9221     0.0170 H       
  29 H29            3.3678    -0.4761    -0.0323 H       
  30 H30            1.5645    -2.7600    -0.0276 H       
  31 H31           -2.1047    -3.3192    -0.5847 H       
  32 H32           -0.5737    -4.2171    -0.4498 H       
  33 H33           -3.5667    -4.0837     1.7700 H       
  34 H34           -2.6599    -3.2286     3.0408 H       
  35 H35           -3.0704    -2.3921     1.5243 H       
  36 H36           -1.1454    -4.0378     4.1095 H       
  37 H37           -1.9555    -5.5081     3.5177 H       
  38 H38            3.1270    -5.9260     7.0165 H       
  39 H39            4.1030    -6.2686     5.5639 H       
  40 H40            4.3105    -3.8845     6.4975 H       
  41 H41            3.8738    -3.9978     4.7730 H       
  42 H42            1.8208    -3.7561     7.0146 H       
  43 H43            2.4665    -2.3569     6.1246 H       
  44 H44            1.6072    -3.2185     4.0207 H       
  45 H45            0.2786    -3.2538     5.2080 H       
@<TRIPOS>BOND
   1    1    2 ar
   2    1    6 ar
   3    1   28 1
   4    2    9 1
   5    2    3 ar
   6    3    4 ar
   7    3    7 1
   8    4    5 ar
   9    4   29 1
  10    5    6 ar
  11    5   27 1
  12    6   26 1
  13    7    8 1
  14    7   30 1
  15    8   10 1
  16    8    9 2
  17   10   11 1
  18   10   31 1
  19   10   32 1
  20   11   12 1
  21   11   13 am
  22   12   33 1
  23   12   34 1
  24   12   35 1
  25   13   14 2
  26   13   15 1
  27   15   16 1
  28   15   36 1
  29   15   37 1
  30   16   17 1
  31   16   20 am
  32   17   24 1
  33   17   18 2
  34   18   19 1
  35   18   21 1
  36   19   20 1
  37   20   25 2
  38   21   22 1
  39   21   38 1
  40   21   39 1
  41   22   23 1
  42   22   40 1
  43   22   41 1
  44   23   24 1
  45   23   42 1
  46   23   43 1
  47   24   44 1
  48   24   45 1

#	End of record

