#	Name: ASD14640007
#	Creating user name:	WinNT
#	Creation time:	15. 06. 2019 21:31

#	Modifying user name:	WinNT
#	Modification time:	15. 06. 2019 21:31

#	Program:	/corina/corina34_cracker 3.40 0067  02.08.2006

@<TRIPOS>MOLECULE
ASD14640007
  34   35    0    0    0
SMALL
NO_CHARGES


@<TRIPOS>ATOM
   1 C1            -0.0178     1.4642     0.0101 C.3     
   2 N2             0.0021    -0.0041     0.0020 N.3     
   3 C3             0.6689    -0.5327     1.1988 C.3     
   4 C4             2.1246    -0.0613     1.2235 C.3     
   5 C5             2.1603     1.4695     1.2306 C.3     
   6 C6             1.4174     1.9953    -0.0008 C.3     
   7 C7             2.8129    -0.5941     2.4818 C.3     
   8 C8             2.8823    -2.0981     2.4177 C.ar    
   9 C9             1.8506    -2.8593     2.9328 C.ar    
  10 C10            3.9755    -2.7150     1.8384 C.ar    
  11 C11            4.0417    -4.0949     1.7773 C.ar    
  12 C12            3.0152    -4.8604     2.2951 C.ar    
  13 C13            1.9149    -4.2436     2.8731 C.ar    
  14 O14            0.9017    -4.9945     3.3795 O.3     
  15 C15            1.0355    -6.4140     3.2834 C.3     
  16 H16           -0.5453     1.8252    -0.8729 H       
  17 H17           -0.5283     1.8156     0.9068 H       
  18 H18           -0.9309    -0.3779    -0.0869 H       
  19 H19            0.1552    -0.1719     2.0900 H       
  20 H20            0.6402    -1.6221     1.1793 H       
  21 H21            2.6426    -0.4332     0.3395 H       
  22 H22            1.6765     1.8409     2.1340 H       
  23 H23            3.1954     1.8099     1.2044 H       
  24 H24            1.9242     1.6557    -0.9040 H       
  25 H25            1.4024     3.0849     0.0210 H       
  26 H26            3.8217    -0.1862     2.5445 H       
  27 H27            2.2442    -0.2938     3.3618 H       
  28 H28            0.9951    -2.3768     3.3818 H       
  29 H29            4.7790    -2.1182     1.4327 H       
  30 H30            4.8967    -4.5745     1.3239 H       
  31 H31            3.0671    -5.9381     2.2464 H       
  32 H32            1.9308    -6.7316     3.8179 H       
  33 H33            0.1605    -6.8920     3.7239 H       
  34 H34            1.1171    -6.7011     2.2350 H       
@<TRIPOS>BOND
   1    1    2 1
   2    1    6 1
   3    1   16 1
   4    1   17 1
   5    2    3 1
   6    2   18 1
   7    3    4 1
   8    3   19 1
   9    3   20 1
  10    4    5 1
  11    4    7 1
  12    4   21 1
  13    5    6 1
  14    5   22 1
  15    5   23 1
  16    6   24 1
  17    6   25 1
  18    7    8 1
  19    7   26 1
  20    7   27 1
  21    8   10 ar
  22    8    9 ar
  23    9   13 ar
  24    9   28 1
  25   10   11 ar
  26   10   29 1
  27   11   12 ar
  28   11   30 1
  29   12   13 ar
  30   12   31 1
  31   13   14 1
  32   14   15 1
  33   15   32 1
  34   15   33 1
  35   15   34 1

#	End of record

