#	Name: ASD13110023
#	Creating user name:	WinNT
#	Creation time:	15. 06. 2019 21:30

#	Modifying user name:	WinNT
#	Modification time:	15. 06. 2019 21:30

#	Program:	/corina/corina34_cracker 3.40 0067  02.08.2006

@<TRIPOS>MOLECULE
ASD13110023
  52   55    0    0    0
SMALL
NO_CHARGES


@<TRIPOS>ATOM
   1 C1             0.3754     1.6933     0.1606 C.3     
   2 C2             0.1795     0.1773     0.0944 C.3     
   3 H3             0.6078    -0.2036    -0.8327 H       
   4 N4            -1.2539    -0.1318     0.1331 N.am    
   5 C5            -1.9337    -0.0214     1.4345 C.3     
   6 C6            -1.3305    -1.0686     2.3693 C.3     
   7 C7             0.1741    -1.0337     2.3137 C.ar    
   8 C8             0.8695    -0.4696     1.2691 C.ar    
   9 C9             2.2578    -0.4836     1.2773 C.ar    
  10 C10            2.9463    -1.0528     2.3286 C.ar    
  11 C11            2.2478    -1.6128     3.3823 C.ar    
  12 C12            0.8712    -1.6031     3.3728 C.ar    
  13 C13            0.1133    -2.2150     4.5227 C.3     
  14 C14           -0.6868    -3.4195     4.0228 C.3     
  15 O15           -0.7799    -1.2455     5.0742 O.3     
  16 C16            1.1004    -2.6698     5.5995 C.3     
  17 F17            0.3936    -3.1424     6.7105 F       
  18 C18           -1.9215    -0.5023    -0.9775 C.2     
  19 O19           -1.3370    -0.5857    -2.0369 O.2     
  20 C20           -3.3942    -0.8129    -0.9030 C.3     
  21 C21           -3.8962    -1.1983    -2.2707 C.ar    
  22 C22           -4.3697    -0.2421    -3.1230 C.ar    
  23 Cl23          -4.3905     1.4206    -2.6242 Cl      
  24 C24           -4.8350    -0.5881    -4.3870 C.ar    
  25 C25           -4.8284    -1.8892    -4.8027 C.ar    
  26 C26           -4.3512    -2.8859    -3.9548 C.ar    
  27 N27           -4.2156    -4.2451    -4.0697 N.pl3   
  28 H28           -4.4595    -4.7711    -4.8473 H       
  29 N29           -3.6687    -4.7520    -2.8863 N.2     
  30 C30           -3.4563    -3.7835    -2.0409 C.2     
  31 Cl31          -2.7893    -3.9451    -0.4463 Cl      
  32 C32           -3.8743    -2.5373    -2.6766 C.ar    
  33 H33            1.4404     1.9237     0.1304 H       
  34 H34           -0.1218     2.1613    -0.6890 H       
  35 H35           -0.0527     2.0749     1.0875 H       
  36 H36           -1.7790     0.9751     1.8481 H       
  37 H37           -3.0004    -0.2084     1.3104 H       
  38 H38           -1.6563    -0.8681     3.3900 H       
  39 H39           -1.6774    -2.0579     2.0709 H       
  40 H40            2.8029    -0.0458     0.4542 H       
  41 H41            4.0262    -1.0613     2.3284 H       
  42 H42            2.7807    -2.0569     4.2100 H       
  43 H43           -0.0263    -4.0931     3.4767 H       
  44 H44           -1.1203    -3.9460     4.8731 H       
  45 H45           -1.4837    -3.0776     3.3624 H       
  46 H46           -0.3405    -0.4529     5.4116 H       
  47 H47            1.7290    -3.4671     5.2029 H       
  48 H48            1.7259    -1.8284     5.8979 H       
  49 H49           -3.5568    -1.6386    -0.2103 H       
  50 H50           -3.9339     0.0670    -0.5526 H       
  51 H51           -5.2063     0.1812    -5.0478 H       
  52 H52           -5.1929    -2.1446    -5.7867 H       
@<TRIPOS>BOND
   1    1    2 1
   2    1   33 1
   3    1   34 1
   4    1   35 1
   5    2    3 1
   6    2    8 1
   7    2    4 1
   8    4    5 1
   9    4   18 am
  10    5    6 1
  11    5   36 1
  12    5   37 1
  13    6    7 1
  14    6   38 1
  15    6   39 1
  16    7   12 ar
  17    7    8 ar
  18    8    9 ar
  19    9   10 ar
  20    9   40 1
  21   10   11 ar
  22   10   41 1
  23   11   12 ar
  24   11   42 1
  25   12   13 1
  26   13   14 1
  27   13   15 1
  28   13   16 1
  29   14   43 1
  30   14   44 1
  31   14   45 1
  32   15   46 1
  33   16   17 1
  34   16   47 1
  35   16   48 1
  36   18   19 2
  37   18   20 1
  38   20   21 1
  39   20   49 1
  40   20   50 1
  41   21   32 ar
  42   21   22 ar
  43   22   23 1
  44   22   24 ar
  45   24   25 ar
  46   24   51 1
  47   25   26 ar
  48   25   52 1
  49   26   32 ar
  50   26   27 1
  51   27   28 1
  52   27   29 1
  53   29   30 2
  54   30   31 1
  55   30   32 1

#	End of record

