#	Name: ASD13010013
#	Creating user name:	WinNT
#	Creation time:	15. 06. 2019 21:30

#	Modifying user name:	WinNT
#	Modification time:	15. 06. 2019 21:30

#	Program:	/corina/corina34_cracker 3.40 0067  02.08.2006

@<TRIPOS>MOLECULE
ASD13010013
  49   52    0    0    0
SMALL
NO_CHARGES


@<TRIPOS>ATOM
   1 C1             0.3487     1.3999    -0.4952 C.ar    
   2 C2             0.2747     0.0553    -0.2866 C.ar    
   3 C3             1.4076    -0.7564    -0.4464 C.ar    
   4 C4             2.6228    -0.1932    -0.8207 C.ar    
   5 C5             1.5566     1.9855    -0.8714 C.ar    
   6 N6             1.9356     3.2744    -1.1469 N.pl3   
   7 C7             2.7031     1.1814    -1.0351 C.ar    
   8 C8             3.7867     2.0865    -1.4260 C.2     
   9 N9             3.2936     3.2942    -1.4797 N.2     
  10 C10            1.0989     4.3888    -1.1028 C.ar    
  11 O11            5.0719     1.7329    -1.6870 O.3     
  12 C12            5.9450     2.7138    -2.0376 C.ar    
  13 C13            6.1074     3.0555    -3.3733 C.ar    
  14 C14            6.6718     3.3799    -1.0603 C.ar    
  15 C15            7.5592     4.3772    -1.4201 C.ar    
  16 C16            7.7227     4.7117    -2.7517 C.ar    
  17 C17            6.9963     4.0536    -3.7269 C.ar    
  18 Cl18           5.1959     2.2298    -4.5985 Cl      
  19 C19           -0.5643     6.6038    -1.0148 C.ar    
  20 C20           -1.0653     5.3676    -1.4341 C.ar    
  21 C21           -0.2366     4.2695    -1.4759 C.ar    
  22 C22            1.5998     5.6168    -0.6805 C.ar    
  23 C23            0.7765     6.7189    -0.6353 C.ar    
  24 C24           -1.4491     7.7826    -0.9687 C.2     
  25 O25           -2.6150     7.6802    -1.2953 O.2     
  26 O26           -0.9647     8.9732    -0.5645 O.3     
  27 Cl27           6.4664     2.9615     0.6119 Cl      
  28 C28            1.3097    -2.2116    -0.2164 C.2     
  29 O29            0.3506    -2.8302    -0.6356 O.2     
  30 N30            2.2835    -2.8542     0.4583 N.am    
  31 C31            2.1445    -4.2801     0.7642 C.3     
  32 C32            3.4812    -2.1268     0.8857 C.3     
  33 H33           -0.5320     2.0130    -0.3731 H       
  34 H34           -0.6651    -0.3897     0.0049 H       
  35 H35            3.4968    -0.8157    -0.9438 H       
  36 H36            8.1250     4.8958    -0.6603 H       
  37 H37            8.4162     5.4913    -3.0303 H       
  38 H38            7.1231     4.3199    -4.7659 H       
  39 H39           -2.1004     5.2753    -1.7279 H       
  40 H40           -0.6231     3.3141    -1.7990 H       
  41 H41            2.6355     5.7049    -0.3875 H       
  42 H42            1.1667     7.6722    -0.3110 H       
  43 H43           -1.5826     9.7169    -0.5509 H       
  44 H44            2.5700    -4.8692    -0.0483 H       
  45 H45            2.6713    -4.5059     1.6913 H       
  46 H46            1.0886    -4.5262     0.8770 H       
  47 H47            3.3622    -1.0669     0.6607 H       
  48 H48            3.6216    -2.2568     1.9588 H       
  49 H49            4.3508    -2.5153     0.3557 H       
@<TRIPOS>BOND
   1    1    2 ar
   2    1    5 ar
   3    1   33 1
   4    2    3 ar
   5    2   34 1
   6    3    4 ar
   7    3   28 1
   8    4    7 ar
   9    4   35 1
  10    5    7 ar
  11    5    6 1
  12    6    9 1
  13    6   10 1
  14    7    8 1
  15    8    9 2
  16    8   11 1
  17   10   22 ar
  18   10   21 ar
  19   11   12 1
  20   12   14 ar
  21   12   13 ar
  22   13   17 ar
  23   13   18 1
  24   14   15 ar
  25   14   27 1
  26   15   16 ar
  27   15   36 1
  28   16   17 ar
  29   16   37 1
  30   17   38 1
  31   19   20 ar
  32   19   23 ar
  33   19   24 1
  34   20   21 ar
  35   20   39 1
  36   21   40 1
  37   22   23 ar
  38   22   41 1
  39   23   42 1
  40   24   25 2
  41   24   26 1
  42   26   43 1
  43   28   29 2
  44   28   30 am
  45   30   31 1
  46   30   32 1
  47   31   44 1
  48   31   45 1
  49   31   46 1
  50   32   47 1
  51   32   48 1
  52   32   49 1

#	End of record

