#	Name: ASD16360001
#	Creating user name:	WinNT
#	Creation time:	15. 06. 2019 21:31

#	Modifying user name:	WinNT
#	Modification time:	15. 06. 2019 21:31

#	Program:	/corina/corina34_cracker 3.40 0067  02.08.2006

@<TRIPOS>MOLECULE
ASD16360001
  19   20    0    0    0
SMALL
NO_CHARGES


@<TRIPOS>ATOM
   1 N1            -0.0162     1.3424     0.0094 N.2     
   2 C2             0.0021    -0.0041     0.0020 C.ar    
   3 C3            -1.0704    -0.9189     0.0069 C.ar    
   4 C4            -0.8330    -2.2598    -0.0030 C.ar    
   5 C5             0.4649    -2.7512    -0.0176 C.ar    
   6 C6             1.5317    -1.8813    -0.0222 C.ar    
   7 C7             1.3080    -0.5061    -0.0132 C.ar    
   8 S8             2.4167     0.8618    -0.0161 S.3     
   9 C9             1.1067     1.9553     0.0020 C.2     
  10 C10            1.2542     3.4551     0.0086 C.3     
  11 N11            1.3151     3.9350     1.3956 N.3     
  12 H12           -2.0868    -0.5541     0.0190 H       
  13 H13           -1.6645    -2.9490     0.0010 H       
  14 H14            0.6381    -3.8172    -0.0249 H       
  15 H15            2.5414    -2.2645    -0.0328 H       
  16 H16            2.1706     3.7323    -0.5124 H       
  17 H17            0.3992     3.9064    -0.4948 H       
  18 H18            2.0608     3.4821     1.9025 H       
  19 H19            1.4141     4.9387     1.4270 H       
@<TRIPOS>BOND
   1    1    2 1
   2    1    9 2
   3    2    3 ar
   4    2    7 ar
   5    3   12 1
   6    3    4 ar
   7    4   13 1
   8    4    5 ar
   9    5   14 1
  10    5    6 ar
  11    6    7 ar
  12    6   15 1
  13    7    8 1
  14    8    9 1
  15    9   10 1
  16   10   11 1
  17   10   16 1
  18   10   17 1
  19   11   18 1
  20   11   19 1

#	End of record

