#	Name: ASD13110067
#	Creating user name:	WinNT
#	Creation time:	15. 06. 2019 21:30

#	Modifying user name:	WinNT
#	Modification time:	15. 06. 2019 21:30

#	Program:	/corina/corina34_cracker 3.40 0067  02.08.2006

@<TRIPOS>MOLECULE
ASD13110067
  41   44    0    0    0
SMALL
NO_CHARGES


@<TRIPOS>ATOM
   1 C1            -0.0169     1.3928     0.0097 C.ar    
   2 C2             0.0021    -0.0041     0.0020 C.ar    
   3 C3             1.2349    -0.6787    -0.0134 C.ar    
   4 C4             2.4185     0.0459    -0.0215 C.ar    
   5 C5             2.3756     1.4242    -0.0143 C.ar    
   6 C6             1.1584     2.0897     0.0022 C.ar    
   7 N7             0.9319    -2.0257    -0.0170 N.pl3   
   8 C8            -0.4239    -2.1355    -0.0042 C.2     
   9 N9            -0.9683    -0.9539     0.0069 N.2     
  10 C10           -1.1846    -3.4364    -0.0026 C.3     
  11 N11           -1.5216    -3.8034     1.3751 N.am    
  12 C12           -2.7821    -3.3485     1.9669 C.3     
  13 C13           -0.6719    -4.5596     2.0980 C.2     
  14 O14            0.3717    -4.9362     1.6081 O.2     
  15 C15           -1.0185    -4.9371     3.5152 C.3     
  16 N16            0.0581    -5.7545     4.0801 N.am    
  17 C17            1.1749    -5.2845     4.7707 C.ar    
  18 C18            1.9273    -6.4055     5.1218 C.ar    
  19 O19            1.2707    -7.4943     4.6511 O.3     
  20 C20            0.1474    -7.0985     4.0322 C.2     
  21 C21            3.1100    -6.2468     5.8262 C.ar    
  22 C22            3.5385    -4.9812     6.1776 C.ar    
  23 C23            2.7914    -3.8687     5.8289 C.ar    
  24 C24            1.6097    -4.0179     5.1266 C.ar    
  25 O25           -0.6630    -7.8377     3.5073 O.2     
  26 Cl26           3.3388    -2.2831     6.2759 Cl      
  27 H27           -0.9589     1.9210     0.0170 H       
  28 H28            3.3688    -0.4672    -0.0329 H       
  29 H29            3.2959     1.9895    -0.0202 H       
  30 H30            1.1396     3.1695     0.0082 H       
  31 H31            1.5680    -2.7580    -0.0268 H       
  32 H32           -2.1004    -3.3225    -0.5826 H       
  33 H33           -0.5683    -4.2182    -0.4465 H       
  34 H34           -3.5614    -4.0856     1.7731 H       
  35 H35           -2.6557    -3.2277     3.0428 H       
  36 H36           -3.0672    -2.3937     1.5251 H       
  37 H37           -1.1402    -4.0335     4.1125 H       
  38 H38           -1.9484    -5.5056     3.5227 H       
  39 H39            3.6959    -7.1115     6.1007 H       
  40 H40            4.4603    -4.8591     6.7269 H       
  41 H41            1.0278    -3.1495     4.8552 H       
@<TRIPOS>BOND
   1    1    2 ar
   2    1    6 ar
   3    1   27 1
   4    2    9 1
   5    2    3 ar
   6    3    4 ar
   7    3    7 1
   8    4    5 ar
   9    4   28 1
  10    5    6 ar
  11    5   29 1
  12    6   30 1
  13    7    8 1
  14    7   31 1
  15    8   10 1
  16    8    9 2
  17   10   11 1
  18   10   32 1
  19   10   33 1
  20   11   12 1
  21   11   13 am
  22   12   34 1
  23   12   35 1
  24   12   36 1
  25   13   14 2
  26   13   15 1
  27   15   16 1
  28   15   37 1
  29   15   38 1
  30   16   17 1
  31   16   20 am
  32   17   24 ar
  33   17   18 ar
  34   18   19 1
  35   18   21 ar
  36   19   20 1
  37   20   25 2
  38   21   22 ar
  39   21   39 1
  40   22   23 ar
  41   22   40 1
  42   23   24 ar
  43   23   26 1
  44   24   41 1

#	End of record

