#	Name: ASD11710023
#	Creating user name:	WinNT
#	Creation time:	15. 06. 2019 21:29

#	Modifying user name:	WinNT
#	Modification time:	15. 06. 2019 21:29

#	Program:	/corina/corina34_cracker 3.40 0067  02.08.2006

@<TRIPOS>MOLECULE
ASD11710023
  39   40    0    0    0
SMALL
NO_CHARGES


@<TRIPOS>ATOM
   1 N1             0.4535     1.7610     1.2070 N.am    
   2 C2             0.9414     0.6079     0.7082 C.2     
   3 C3             2.2752     0.1283     1.1254 C.ar    
   4 O4             0.2843    -0.0372    -0.0846 O.2     
   5 C5             2.5401    -1.2412     1.1875 C.ar    
   6 C6             3.2780     1.0425     1.4538 C.ar    
   7 C7             4.5210     0.5879     1.8425 C.ar    
   8 C8             4.7751    -0.7707     1.9074 C.ar    
   9 C9             3.7875    -1.6821     1.5778 C.ar    
  10 S10            6.3657    -1.3427     2.4050 S.o2    
  11 N11            6.2884    -1.6544     4.0296 N.am    
  12 C12            6.0435    -0.6145     4.9293 C.ar    
  13 C13            5.1265    -0.7860     5.9586 C.ar    
  14 C14            6.7206     0.5916     4.8003 C.ar    
  15 C15            6.4760     1.6177     5.6917 C.ar    
  16 C16            5.5587     1.4455     6.7120 C.ar    
  17 C17            4.8867     0.2443     6.8464 C.ar    
  18 O18            6.5597    -2.5963     1.7647 O.2     
  19 O19            7.2539    -0.2445     2.2489 O.2     
  20 C20            1.1869     2.4736     2.2561 C.3     
  21 C21           -0.7062     2.2614     0.7367 C.2     
  22 O22           -1.2674     1.7206    -0.1919 O.2     
  23 C23           -1.3053     3.4931     1.3652 C.3     
  24 H24            1.7701    -1.9536     0.9308 H       
  25 H25            3.0811     2.1032     1.4032 H       
  26 H26            5.2978     1.2940     2.0965 H       
  27 H27            3.9924    -2.7412     1.6306 H       
  28 H28            6.4132    -2.5591     4.3563 H       
  29 H29            4.6014    -1.7238     6.0641 H       
  30 H30            7.4377     0.7265     4.0041 H       
  31 H31            7.0021     2.5556     5.5920 H       
  32 H32            5.3698     2.2493     7.4081 H       
  33 H33            4.1709     0.1131     7.6444 H       
  34 H34            1.8428     3.2157     1.8009 H       
  35 H35            0.4798     2.9718     2.9193 H       
  36 H36            1.7836     1.7636     2.8286 H       
  37 H37           -0.6209     3.8872     2.1165 H       
  38 H38           -1.4746     4.2474     0.5968 H       
  39 H39           -2.2536     3.2357     1.8369 H       
@<TRIPOS>BOND
   1    1    2 am
   2    1   20 1
   3    1   21 am
   4    2    3 1
   5    2    4 2
   6    3    5 ar
   7    3    6 ar
   8    5    9 ar
   9    5   24 1
  10    6    7 ar
  11    6   25 1
  12    7    8 ar
  13    7   26 1
  14    8    9 ar
  15    8   10 1
  16    9   27 1
  17   10   11 am
  18   10   18 2
  19   10   19 2
  20   11   12 1
  21   11   28 1
  22   12   13 ar
  23   12   14 ar
  24   13   17 ar
  25   13   29 1
  26   14   15 ar
  27   14   30 1
  28   15   16 ar
  29   15   31 1
  30   16   17 ar
  31   16   32 1
  32   17   33 1
  33   20   34 1
  34   20   35 1
  35   20   36 1
  36   21   22 2
  37   21   23 1
  38   23   37 1
  39   23   38 1
  40   23   39 1

#	End of record

