#	Name: ASD10420084
#	Creating user name:	WinNT
#	Creation time:	15. 06. 2019 21:27

#	Modifying user name:	WinNT
#	Modification time:	15. 06. 2019 21:27

#	Program:	/corina/corina34_cracker 3.40 0067  02.08.2006

@<TRIPOS>MOLECULE
ASD10420084
  17   17    0    0    0
SMALL
NO_CHARGES


@<TRIPOS>ATOM
   1 C1            -0.0167     1.3780     0.0096 C.ar    
   2 C2             0.0021    -0.0041     0.0020 C.ar    
   3 C3             1.2132    -0.6828    -0.0128 C.ar    
   4 O4             1.2314    -2.0419    -0.0203 O.3     
   5 C5             2.4041     0.0272    -0.0204 C.ar    
   6 C6             2.3821     1.4143    -0.0132 C.ar    
   7 O7             3.5480     2.1131    -0.0211 O.3     
   8 C8             1.1694     2.0877     0.0021 C.ar    
   9 C9             1.1452     3.5945     0.0100 C.3     
  10 Br10           4.0557    -0.8936    -0.0399 Br      
  11 Br11          -1.6229    -0.9711     0.0124 Br      
  12 H12           -0.9597     1.9043     0.0169 H       
  13 H13            1.2285    -2.4305    -0.9058 H       
  14 H14            3.8767     2.3197    -0.9067 H       
  15 H15            1.1489     3.9525     1.0395 H       
  16 H16            2.0243     3.9747    -0.5102 H       
  17 H17            0.2447     3.9460    -0.4937 H       
@<TRIPOS>BOND
   1    1    2 ar
   2    1    8 ar
   3    1   12 1
   4    2    3 ar
   5    2   11 1
   6    3    4 1
   7    3    5 ar
   8    4   13 1
   9    5    6 ar
  10    5   10 1
  11    6    7 1
  12    6    8 ar
  13    7   14 1
  14    8    9 1
  15    9   15 1
  16    9   16 1
  17    9   17 1

#	End of record

