#	Name: ASD10950072
#	Creating user name:	WinNT
#	Creation time:	15. 06. 2019 21:28

#	Modifying user name:	WinNT
#	Modification time:	15. 06. 2019 21:28

#	Program:	/corina/corina34_cracker 3.40 0067  02.08.2006

@<TRIPOS>MOLECULE
ASD10950072
  53   55    0    0    0
SMALL
NO_CHARGES


@<TRIPOS>ATOM
   1 C1            -0.0471     1.3746     0.0726 C.3     
   2 O2            -0.0308    -0.0543     0.0639 O.3     
   3 C3            -1.2340    -0.6848     0.0258 C.ar    
   4 C4            -2.4062     0.0563    -0.0025 C.ar    
   5 C5            -3.6283    -0.5871    -0.0411 C.ar    
   6 C6            -3.6835    -1.9684    -0.0515 C.ar    
   7 C7            -2.5164    -2.7096    -0.0229 C.ar    
   8 C8            -1.2920    -2.0711     0.0095 C.ar    
   9 C9            -2.5802    -4.2152    -0.0339 C.3     
  10 C10           -2.5609    -4.7159    -1.4795 C.3     
  11 N11           -2.6230    -6.1796    -1.4902 N.am    
  12 C12           -3.7432    -6.9236    -1.5270 C.2     
  13 O13           -4.8739    -6.4805    -1.5575 O.2     
  14 C14           -3.3944    -8.3615    -1.5257 C.2     
  15 C15           -2.0451    -8.4908    -1.4876 C.2     
  16 C16           -1.4740    -7.0922    -1.4690 C.3     
  17 C17           -0.6044    -6.8717    -2.6799 C.ar    
  18 C18            0.7720    -6.8363    -2.5421 C.ar    
  19 C19            1.5739    -6.6353    -3.6464 C.ar    
  20 C20            0.9937    -6.4674    -4.9053 C.ar    
  21 C21           -0.3959    -6.5043    -5.0371 C.ar    
  22 C22           -1.1857    -6.7113    -3.9253 C.ar    
  23 C23            1.8461    -6.2513    -6.0923 C.2     
  24 O24            3.0547    -6.2193    -5.9744 O.2     
  25 O25            1.2832    -6.0897    -7.3054 O.3     
  26 C26            2.1819    -5.8817    -8.4267 C.3     
  27 C27           -1.3131    -9.7018    -1.4738 C.2     
  28 O28           -0.1012    -9.6792    -1.5368 O.2     
  29 C29           -2.0383   -11.0196    -1.3810 C.3     
  30 O30           -4.2792    -9.3828    -1.5570 O.3     
  31 H31            0.9760     1.7494     0.1040 H       
  32 H32           -0.5397     1.7379    -0.8293 H       
  33 H33           -0.5899     1.7263     0.9500 H       
  34 H34           -2.3636     1.1355     0.0060 H       
  35 H35           -4.5412    -0.0104    -0.0628 H       
  36 H36           -4.6397    -2.4695    -0.0817 H       
  37 H37           -0.3808    -2.6504     0.0314 H       
  38 H38           -1.7214    -4.6192     0.5020 H       
  39 H39           -3.4990    -4.5434     0.4520 H       
  40 H40           -3.4197    -4.3119    -2.0155 H       
  41 H41           -1.6421    -4.3877    -1.9655 H       
  42 H42           -0.8957    -6.9357    -0.5584 H       
  43 H43            1.2194    -6.9659    -1.5678 H       
  44 H44            2.6480    -6.6075    -3.5374 H       
  45 H45           -0.8511    -6.3748    -6.0079 H       
  46 H46           -2.2606    -6.7400    -4.0258 H       
  47 H47            1.6007    -5.7662    -9.3416 H       
  48 H48            2.7735    -4.9822    -8.2562 H       
  49 H49            2.8461    -6.7404    -8.5242 H       
  50 H50           -2.3495   -11.3340    -2.3772 H       
  51 H51           -1.3739   -11.7707    -0.9539 H       
  52 H52           -2.9162   -10.9071    -0.7447 H       
  53 H53           -5.2040    -9.1014    -1.5820 H       
@<TRIPOS>BOND
   1    1    2 1
   2    1   31 1
   3    1   32 1
   4    1   33 1
   5    2    3 1
   6    3    4 ar
   7    3    8 ar
   8    4    5 ar
   9    4   34 1
  10    5    6 ar
  11    5   35 1
  12    6    7 ar
  13    6   36 1
  14    7    8 ar
  15    7    9 1
  16    8   37 1
  17    9   10 1
  18    9   38 1
  19    9   39 1
  20   10   11 1
  21   10   40 1
  22   10   41 1
  23   11   12 am
  24   11   16 1
  25   12   13 2
  26   12   14 1
  27   14   15 2
  28   14   30 1
  29   15   16 1
  30   15   27 1
  31   16   17 1
  32   16   42 1
  33   17   18 ar
  34   17   22 ar
  35   18   19 ar
  36   18   43 1
  37   19   20 ar
  38   19   44 1
  39   20   21 ar
  40   20   23 1
  41   21   22 ar
  42   21   45 1
  43   22   46 1
  44   23   24 2
  45   23   25 1
  46   25   26 1
  47   26   47 1
  48   26   48 1
  49   26   49 1
  50   27   28 2
  51   27   29 1
  52   29   50 1
  53   29   51 1
  54   29   52 1
  55   30   53 1

#	End of record

