#	Name: ASD14730001
#	Creating user name:	WinNT
#	Creation time:	15. 06. 2019 21:31

#	Modifying user name:	WinNT
#	Modification time:	15. 06. 2019 21:31

#	Program:	/corina/corina34_cracker 3.40 0067  02.08.2006

@<TRIPOS>MOLECULE
ASD14730001
  69   69    0    0    0
SMALL
NO_CHARGES


@<TRIPOS>ATOM
   1 O1            -2.5838    -0.4174    -0.5235 O.3     
   2 O2            -1.3675    -4.8200     2.5188 O.3     
   3 O3            -9.3573     4.2302     4.1738 O.3     
   4 O4            -8.4966     4.8893     6.1122 O.2     
   5 C5            -3.6778     1.5364     4.6133 C.3     
   6 C6            -4.2127     0.3911     5.4752 C.3     
   7 C7            -7.8233     0.6891     6.7419 C.3     
   8 C8            -6.5560     0.1604     6.1210 C.2     
   9 C9            -8.6338     1.4416     5.6846 C.3     
  10 C10           -2.4450     1.0781     3.8776 C.2     
  11 C11           -5.4455     0.8494     6.2108 C.2     
  12 C12           -1.3385     0.0298     1.9703 C.3     
  13 C13           -2.5445     0.6202     2.6543 C.2     
  14 C14           -9.9011     1.9703     6.3055 C.2     
  15 C15          -11.3689     3.8189     6.9955 C.3     
  16 C16          -10.1665     3.2739     6.2686 C.2     
  17 C17           -1.6726    -1.3504     1.4658 C.ar    
  18 C18           -6.5663    -1.1611     5.3967 C.3     
  19 C19          -10.9462     4.3156     8.3795 C.3     
  20 C20           -1.0977     1.1466     4.5493 C.3     
  21 C21           -2.2844    -1.5082     0.2313 C.ar    
  22 C22           -1.3641    -2.4588     2.2305 C.ar    
  23 C23           -2.5915    -2.7786    -0.2332 C.ar    
  24 C24          -12.1486     4.8606     9.1064 C.2     
  25 C25           -1.6715    -3.7289     1.7663 C.ar    
  26 C26           -2.2883    -3.8864     0.5338 C.ar    
  27 C27           -9.2871     4.1819     5.5191 C.2     
  28 C28          -12.5708     4.2794    10.2018 C.2     
  29 C29           -3.2565    -2.9501    -1.5747 C.3     
  30 C30          -11.9728     2.9662    10.6366 C.3     
  31 C31          -13.6545     4.9239    11.0273 C.3     
  32 H32           -4.4398     1.8363     3.8938 H       
  33 H33           -3.4264     2.3841     5.2507 H       
  34 H34           -4.4641    -0.4566     4.8377 H       
  35 H35           -3.4507     0.0913     6.1946 H       
  36 H36           -8.4130    -0.1422     7.1281 H       
  37 H37           -7.5727     1.3669     7.5579 H       
  38 H38           -8.0441     2.2729     5.2983 H       
  39 H39           -8.8844     0.7638     4.8686 H       
  40 H40           -5.4135     1.7460     6.8121 H       
  41 H41           -1.0501     0.6633     1.1315 H       
  42 H42           -0.5129    -0.0325     2.6792 H       
  43 H43           -3.4909     0.6658     2.1360 H       
  44 H44          -10.5938     1.2914     6.7804 H       
  45 H45          -11.7932     4.6461     6.4266 H       
  46 H46          -12.1152     3.0320     7.1042 H       
  47 H47           -6.7030    -0.9892     4.3290 H       
  48 H48           -5.6193    -1.6744     5.5637 H       
  49 H49           -7.3840    -1.7756     5.7734 H       
  50 H50          -10.5219     3.4884     8.9485 H       
  51 H51          -10.1999     5.1025     8.2709 H       
  52 H52           -0.8843     0.1936     5.0336 H       
  53 H53           -0.3303     1.3552     3.8038 H       
  54 H54           -1.1040     1.9404     5.2962 H       
  55 H55           -0.8836    -2.3362     3.1899 H       
  56 H56          -12.6622     5.7304     8.7242 H       
  57 H57           -2.5277    -4.8755     0.1722 H       
  58 H58           -2.4945    -3.0499    -2.3478 H       
  59 H59           -3.8787    -3.8449    -1.5601 H       
  60 H60           -3.8771    -2.0794    -1.7865 H       
  61 H61          -14.6285     4.5752    10.6841 H       
  62 H62          -13.5211     4.6556    12.0753 H       
  63 H63          -13.5976     6.0071    10.9195 H       
  64 H64          -11.2617     2.6241     9.8847 H       
  65 H65          -11.4593     3.0984    11.5889 H       
  66 H66          -12.7650     2.2263    10.7507 H       
  67 H67           -1.8776    -0.1519    -1.1284 H       
  68 H68           -2.0706    -5.0867     3.1268 H       
  69 H69           -8.7589     4.8428     3.7247 H       
@<TRIPOS>BOND
   1    1   21 1
   2    1   67 1
   3    2   25 1
   4    2   68 1
   5    3   27 1
   6    3   69 1
   7    4   27 2
   8    5    6 1
   9    5   10 1
  10    5   32 1
  11    5   33 1
  12    6   11 1
  13    6   34 1
  14    6   35 1
  15    7    8 1
  16    7    9 1
  17    7   36 1
  18    7   37 1
  19    8   11 2
  20    8   18 1
  21    9   14 1
  22    9   38 1
  23    9   39 1
  24   10   13 2
  25   10   20 1
  26   11   40 1
  27   12   13 1
  28   12   17 1
  29   12   41 1
  30   12   42 1
  31   13   43 1
  32   14   16 2
  33   14   44 1
  34   15   16 1
  35   15   19 1
  36   15   45 1
  37   15   46 1
  38   16   27 1
  39   17   21 ar
  40   17   22 ar
  41   18   47 1
  42   18   48 1
  43   18   49 1
  44   19   24 1
  45   19   50 1
  46   19   51 1
  47   20   52 1
  48   20   53 1
  49   20   54 1
  50   21   23 ar
  51   22   25 ar
  52   22   55 1
  53   23   26 ar
  54   23   29 1
  55   24   28 2
  56   24   56 1
  57   25   26 ar
  58   26   57 1
  59   28   30 1
  60   28   31 1
  61   29   58 1
  62   29   59 1
  63   29   60 1
  64   30   64 1
  65   30   65 1
  66   30   66 1
  67   31   61 1
  68   31   62 1
  69   31   63 1

#	End of record

