#	Name: ASD11920009
#	Creating user name:	WinNT
#	Creation time:	15. 06. 2019 21:29

#	Modifying user name:	WinNT
#	Modification time:	15. 06. 2019 21:29

#	Program:	/corina/corina34_cracker 3.40 0067  02.08.2006

@<TRIPOS>MOLECULE
ASD11920009
  33   35    0    0    0
SMALL
NO_CHARGES


@<TRIPOS>ATOM
   1 C1            -0.0167     1.3793     0.0096 C.ar    
   2 C2             0.0021    -0.0041     0.0020 C.ar    
   3 C3             1.2098    -0.6789    -0.0131 C.ar    
   4 C4             2.3967     0.0292    -0.0207 C.ar    
   5 C5             2.3773     1.4115    -0.0131 C.ar    
   6 C6             1.1709     2.0863     0.0021 C.ar    
   7 C7             3.6719     2.1830    -0.0208 C.3     
   8 C8             4.0903     2.4478    -1.4441 C.ar    
   9 C9             3.6669     3.6013    -2.0847 C.ar    
  10 C10            4.0502     3.8405    -3.3821 C.ar    
  11 C11            4.8645     2.9286    -4.0608 C.ar    
  12 C12            5.2871     1.7698    -3.4092 C.ar    
  13 C13            4.9007     1.5408    -2.1042 C.ar    
  14 C14            3.6118     5.0841    -4.1191 C.3     
  15 C15            4.0893     5.2513    -5.5453 C.2     
  16 N16            4.8713     4.3103    -6.1018 N.am    
  17 C17            5.2629     3.2049    -5.4528 C.2     
  18 O18            5.9708     2.4042    -6.0309 O.2     
  19 O19            5.3018     4.4954    -7.4380 O.3     
  20 O20            3.7673     6.2302    -6.1839 O.2     
  21 Cl21          -1.4892    -0.8928     0.0121 Cl      
  22 H22           -0.9592     1.9066     0.0170 H       
  23 H23            1.2250    -1.7588    -0.0187 H       
  24 H24            3.3395    -0.4974    -0.0321 H       
  25 H25            1.1564     3.1662     0.0080 H       
  26 H26            3.5331     3.1307     0.4994 H       
  27 H27            4.4442     1.6017     0.4829 H       
  28 H28            3.0376     4.3094    -1.5661 H       
  29 H29            5.9162     1.0574    -3.9220 H       
  30 H30            5.2266     0.6444    -1.5976 H       
  31 H31            2.5219     5.1016    -4.1269 H       
  32 H32            3.9522     5.9484    -3.5488 H       
  33 H33            5.8605     3.7811    -7.7738 H       
@<TRIPOS>BOND
   1    1    2 ar
   2    1    6 ar
   3    1   22 1
   4    2    3 ar
   5    2   21 1
   6    3    4 ar
   7    3   23 1
   8    4    5 ar
   9    4   24 1
  10    5    6 ar
  11    5    7 1
  12    6   25 1
  13    7    8 1
  14    7   26 1
  15    7   27 1
  16    8    9 ar
  17    8   13 ar
  18    9   10 ar
  19    9   28 1
  20   10   11 ar
  21   10   14 1
  22   11   12 ar
  23   11   17 1
  24   12   13 ar
  25   12   29 1
  26   13   30 1
  27   14   15 1
  28   14   31 1
  29   14   32 1
  30   15   16 am
  31   15   20 2
  32   16   17 am
  33   16   19 1
  34   17   18 2
  35   19   33 1

#	End of record

