#	Name: ASD13490039
#	Creating user name:	WinNT
#	Creation time:	15. 06. 2019 21:30

#	Modifying user name:	WinNT
#	Modification time:	15. 06. 2019 21:30

#	Program:	/corina/corina34_cracker 3.40 0067  02.08.2006

@<TRIPOS>MOLECULE
ASD13490039
  54   58    0    0    0
SMALL
NO_CHARGES


@<TRIPOS>ATOM
   1 C1            -0.0057     1.3886     0.1047 C.2     
   2 N2             0.0021    -0.0041     0.0020 N.pl3   
   3 C3            -1.1938    -0.7202     0.1152 C.ar    
   4 C4            -2.3678    -2.7223     0.7305 C.ar    
   5 C5            -3.5677    -2.1352     0.3361 C.ar    
   6 C6            -3.5737    -0.8443    -0.1716 C.ar    
   7 C7            -2.3916    -0.1390    -0.2824 C.ar    
   8 C8            -1.1829    -2.0139     0.6193 C.ar    
   9 N9            -4.7709    -2.8519     0.4479 N.pl3   
  10 C10           -5.0016    -4.1074     0.0026 C.2     
  11 N11           -6.2336    -4.4329     0.2876 N.2     
  12 C12           -6.8285    -3.4092     0.9182 C.2     
  13 C13           -5.9295    -2.4114     1.0345 C.2     
  14 Cl14          -8.4672    -3.3774     1.4904 Cl      
  15 O15           -2.3598    -3.9889     1.2242 O.3     
  16 C16           -1.0932    -4.5271     1.6093 C.3     
  17 N17           -0.6106     3.4581     0.4069 N.pl3   
  18 N18           -1.0484     2.1271     0.4083 N.2     
  19 N19            1.0488     2.1891    -0.0842 N.2     
  20 C20            0.6932     3.4365     0.0854 C.2     
  21 C21           -1.4077     4.6466     0.7121 C.3     
  22 C22            1.5772     4.6490    -0.0644 C.3     
  23 C23           -1.1659     5.7096    -0.3667 C.3     
  24 C24            1.0410     5.7764     0.8209 C.3     
  25 C25            0.0114     6.5933     0.0433 C.3     
  26 C26            2.9820     4.3029     0.3571 C.ar    
  27 C27            4.0228     4.4214    -0.5450 C.ar    
  28 C28            5.3116     4.1047    -0.1594 C.ar    
  29 C29            5.5601     3.6685     1.1310 C.ar    
  30 C30            4.5169     3.5501     2.0336 C.ar    
  31 C31            3.2297     3.8725     1.6473 C.ar    
  32 F32            6.8195     3.3582     1.5089 F       
  33 H33            0.8369    -0.4747    -0.1478 H       
  34 H34           -4.5041    -0.3893    -0.4776 H       
  35 H35           -2.3983     0.8658    -0.6782 H       
  36 H36           -0.2514    -2.4674     0.9242 H       
  37 H37           -4.2856    -4.7367    -0.5051 H       
  38 H38           -6.0914    -1.4495     1.4982 H       
  39 H39           -1.2285    -5.5413     1.9850 H       
  40 H40           -0.4284    -4.5452     0.7457 H       
  41 H41           -0.6567    -3.9053     2.3909 H       
  42 H42           -2.4645     4.3805     0.7309 H       
  43 H43           -1.1145     5.0409     1.6851 H       
  44 H44            1.5780     4.9726    -1.1053 H       
  45 H45           -0.9431     5.2204    -1.3149 H       
  46 H46           -2.0589     6.3247    -0.4768 H       
  47 H47            0.5714     5.3497     1.7072 H       
  48 H48            1.8645     6.4235     1.1229 H       
  49 H49            0.4794     7.0080    -0.8495 H       
  50 H50           -0.3504     7.4085     0.6699 H       
  51 H51            3.8287     4.7613    -1.5515 H       
  52 H52            6.1245     4.1970    -0.8644 H       
  53 H53            4.7096     3.2100     3.0404 H       
  54 H54            2.4164     3.7842     2.3524 H       
@<TRIPOS>BOND
   1    1    2 1
   2    1   19 1
   3    1   18 2
   4    2    3 1
   5    2   33 1
   6    3    8 ar
   7    3    7 ar
   8    4    8 ar
   9    4    5 ar
  10    4   15 1
  11    5    6 ar
  12    5    9 1
  13    6    7 ar
  14    6   34 1
  15    7   35 1
  16    8   36 1
  17    9   10 1
  18    9   13 1
  19   10   11 2
  20   10   37 1
  21   11   12 1
  22   12   13 2
  23   12   14 1
  24   13   38 1
  25   15   16 1
  26   16   39 1
  27   16   40 1
  28   16   41 1
  29   17   18 1
  30   17   20 1
  31   17   21 1
  32   19   20 2
  33   20   22 1
  34   21   23 1
  35   21   42 1
  36   21   43 1
  37   22   24 1
  38   22   26 1
  39   22   44 1
  40   23   25 1
  41   23   45 1
  42   23   46 1
  43   24   25 1
  44   24   47 1
  45   24   48 1
  46   25   49 1
  47   25   50 1
  48   26   27 ar
  49   26   31 ar
  50   27   28 ar
  51   27   51 1
  52   28   29 ar
  53   28   52 1
  54   29   30 ar
  55   29   32 1
  56   30   31 ar
  57   30   53 1
  58   31   54 1

#	End of record

