#	Name: ASD11000008
#	Creating user name:	WinNT
#	Creation time:	15. 06. 2019 21:28

#	Modifying user name:	WinNT
#	Modification time:	15. 06. 2019 21:28

#	Program:	/corina/corina34_cracker 3.40 0067  02.08.2006

@<TRIPOS>MOLECULE
ASD11000008
  46   48    0    0    0
SMALL
NO_CHARGES


@<TRIPOS>ATOM
   1 C1            -0.0167     1.3779     0.0096 C.ar    
   2 C2             0.0021    -0.0041     0.0020 C.ar    
   3 C3             1.2086    -0.6806    -0.0138 C.ar    
   4 C4             2.3932     0.0340    -0.0221 C.ar    
   5 C5             2.3745     1.4047    -0.0140 C.ar    
   6 C6             1.1712     2.0869     0.0021 C.ar    
   7 C7             3.7128    -0.7092    -0.0413 C.3     
   8 C8             4.3852    -0.5380     1.3232 C.3     
   9 C9             5.1873     0.7473     1.3742 C.3     
  10 C10            4.3502     2.0107     1.3405 C.3     
  11 C11            3.6739     2.1829    -0.0224 C.3     
  12 N12            5.9852     0.7499     2.6077 N.3     
  13 C13            7.1739     1.6010     2.4639 C.3     
  14 C14            7.9777     1.5783     3.7656 C.3     
  15 C15            9.2157     2.4648     3.6159 C.3     
  16 C16           10.0075     2.4425     4.8979 C.ar    
  17 C17           10.9946     1.4929     5.0842 C.ar    
  18 C18           11.7209     1.4724     6.2603 C.ar    
  19 C19           11.4603     2.4018     7.2498 C.ar    
  20 C20           10.4737     3.3520     7.0631 C.ar    
  21 C21            9.7505     3.3751     5.8853 C.ar    
  22 H22           -0.9594     1.9047     0.0170 H       
  23 H23           -0.9261    -0.5563     0.0088 H       
  24 H24            1.2257    -1.7605    -0.0194 H       
  25 H25            1.1592     3.1669     0.0082 H       
  26 H26            3.5345    -1.7675    -0.2316 H       
  27 H27            4.3542    -0.2968    -0.8201 H       
  28 H28            3.6200    -0.5138     2.0991 H       
  29 H29            5.0502    -1.3826     1.5033 H       
  30 H30            5.8704     0.7625     0.5250 H       
  31 H31            3.5857     1.9546     2.1153 H       
  32 H32            4.9918     2.8706     1.5331 H       
  33 H33            4.3264     1.7985    -0.8063 H       
  34 H34            3.4676     3.2386    -0.1982 H       
  35 H35            5.4280     1.0375     3.3982 H       
  36 H36            7.7924     1.2264     1.6483 H       
  37 H37            6.8646     2.6231     2.2456 H       
  38 H38            7.3591     1.9529     4.5812 H       
  39 H39            8.2869     0.5562     3.9839 H       
  40 H40            9.8343     2.0902     2.8003 H       
  41 H41            8.9065     3.4869     3.3975 H       
  42 H42           11.1982     0.7667     4.3111 H       
  43 H43           12.4916     0.7301     6.4061 H       
  44 H44           12.0272     2.3854     8.1689 H       
  45 H45           10.2699     4.0779     7.8364 H       
  46 H46            8.9823     4.1198     5.7379 H       
@<TRIPOS>BOND
   1    1    2 ar
   2    1    6 ar
   3    1   22 1
   4    2    3 ar
   5    2   23 1
   6    3    4 ar
   7    3   24 1
   8    4    5 ar
   9    4    7 1
  10    5    6 ar
  11    5   11 1
  12    6   25 1
  13    7    8 1
  14    7   26 1
  15    7   27 1
  16    8    9 1
  17    8   28 1
  18    8   29 1
  19    9   10 1
  20    9   12 1
  21    9   30 1
  22   10   11 1
  23   10   31 1
  24   10   32 1
  25   11   33 1
  26   11   34 1
  27   12   13 1
  28   12   35 1
  29   13   14 1
  30   13   36 1
  31   13   37 1
  32   14   15 1
  33   14   38 1
  34   14   39 1
  35   15   16 1
  36   15   40 1
  37   15   41 1
  38   16   17 ar
  39   16   21 ar
  40   17   18 ar
  41   17   42 1
  42   18   19 ar
  43   18   43 1
  44   19   20 ar
  45   19   44 1
  46   20   21 ar
  47   20   45 1
  48   21   46 1

#	End of record

