#	Name: ASD10090003
#	Creating user name:	WinNT
#	Creation time:	15. 06. 2019 21:24

#	Modifying user name:	WinNT
#	Modification time:	15. 06. 2019 21:24

#	Program:	/corina/corina34_cracker 3.40 0067  02.08.2006

@<TRIPOS>MOLECULE
ASD10090003
 154  155    0    0    0
SMALL
NO_CHARGES


@<TRIPOS>ATOM
   1 N1            -2.6366    -5.1882     2.9459 N.3     
   2 C2            -1.8445    -6.4065     2.7307 C.3     
   3 C3            -1.4358    -6.4908     1.2827 C.2     
   4 O4            -1.4407    -5.4937     0.5922 O.2     
   5 C5            -0.5944    -6.3642     3.6118 C.3     
   6 C6             0.1817    -5.0751     3.3346 C.3     
   7 C7            -1.0069    -6.4044     5.0846 C.3     
   8 N8            -1.0649    -7.6742     0.7549 N.am    
   9 C9            -0.6676    -7.7561    -0.6528 C.3     
  10 C10            0.2460    -8.9385    -0.8489 C.2     
  11 O11            0.3577    -9.7703     0.0267 O.2     
  12 C12           -1.9132    -7.9239    -1.5253 C.3     
  13 C13           -2.7344    -9.1114    -1.0190 C.3     
  14 C14           -2.7600    -6.6514    -1.4554 C.3     
  15 N15            0.9389    -9.0716    -1.9972 N.am    
  16 C16            1.9159   -10.1535    -2.1420 C.3     
  17 C17            2.0900   -10.4810    -3.6026 C.2     
  18 O18            1.4600    -9.8707    -4.4402 O.2     
  19 C19            3.2578    -9.7108    -1.5551 C.3     
  20 C20            3.1097    -9.4983    -0.0472 C.3     
  21 C21            4.4515    -9.0556     0.5396 C.3     
  22 N22            4.3097    -8.8521     1.9835 N.pl3   
  23 C23            5.3915    -8.4497     2.7305 C.2     
  24 N24            5.2584    -8.2588     4.0855 N.pl3   
  25 N25            6.5432    -8.2493     2.1541 N.2     
  26 N26            2.9458   -11.4521    -3.9782 N.am    
  27 C27            3.2113   -11.8723    -5.3618 C.3     
  28 C28            3.7826   -10.7197    -6.1468 C.2     
  29 O29            3.9548    -9.6461    -5.6094 O.2     
  30 C30            4.2353   -13.0253    -5.3021 C.3     
  31 C31            4.0627   -13.5689    -3.8591 C.3     
  32 C32            3.7756   -12.2645    -3.0700 C.3     
  33 N33            4.1022   -10.8818    -7.4461 N.am    
  34 C34            4.6576    -9.7614    -8.2092 C.3     
  35 C35            4.9260   -10.2020    -9.6251 C.2     
  36 O36            4.6778   -11.3399    -9.9635 O.2     
  37 N37            5.4419    -9.3315   -10.5154 N.am    
  38 C38            5.7028    -9.7598   -11.8919 C.3     
  39 C39            5.6743    -8.5612   -12.8049 C.2     
  40 O40            5.4574    -7.4579   -12.3505 O.2     
  41 C41            7.0784   -10.4254   -11.9668 C.3     
  42 O42            8.0909    -9.4608   -11.6726 O.3     
  43 N43            5.8899    -8.7154   -14.1263 N.am    
  44 C44            5.8622    -7.5502   -15.0139 C.3     
  45 C45            6.6934    -7.8321   -16.2390 C.2     
  46 O46            7.2537    -8.9010   -16.3589 O.2     
  47 C47            4.4190    -7.2618   -15.4320 C.3     
  48 C48            3.6038    -6.8541   -14.2032 C.3     
  49 C49            4.1380    -5.5301   -13.6531 C.3     
  50 C50            2.1351    -6.6867   -14.5981 C.3     
  51 N51            6.8140    -6.8963   -17.2014 N.am    
  52 C52            7.5281    -7.2090   -18.4418 C.3     
  53 C53            6.5887    -7.8884   -19.4046 C.2     
  54 O54            5.4362    -8.0914   -19.0860 O.2     
  55 C55            8.0528    -5.9155   -19.0682 C.3     
  56 C56            9.1174    -5.3235   -18.1810 C.2     
  57 O57            9.7826    -4.2252   -18.5720 O.3     
  58 O58            9.3722    -5.8375   -17.1176 O.2     
  59 N59            7.0292    -8.2704   -20.6196 N.am    
  60 C60            6.0914    -8.8297   -21.5963 C.3     
  61 C61            6.6287    -8.6161   -22.9880 C.2     
  62 O62            7.7389    -8.1539   -23.1451 O.2     
  63 C63            5.9213   -10.3284   -21.3398 C.3     
  64 C64            7.2944   -11.0034   -21.3307 C.3     
  65 C65            7.1513   -12.4439   -20.8356 C.3     
  66 C66            7.8706   -11.0061   -22.7481 C.3     
  67 N67            5.8754    -8.9387   -24.0580 N.am    
  68 C68            6.2739    -8.7832   -25.4647 C.3     
  69 C69            7.4875    -9.6298   -25.7502 C.2     
  70 O70            8.5091    -9.1113   -26.1321 O.2     
  71 C71            5.0881    -9.2562   -26.3317 C.3     
  72 C72            3.8783    -9.1205   -25.3698 C.3     
  73 C73            4.5180    -9.5119   -24.0118 C.3     
  74 H74           -2.1034    -4.3642     2.7117 H       
  75 H75           -3.4994    -5.2210     2.4239 H       
  76 H76           -2.4429    -7.2796     2.9908 H       
  77 H77            0.0372    -7.2239     3.3878 H       
  78 H78            1.0723    -5.0450     3.9623 H       
  79 H79            0.4755    -5.0465     2.2853 H       
  80 H80           -0.4499    -4.2155     3.5586 H       
  81 H81           -1.6385    -5.5448     5.3086 H       
  82 H82           -1.5597    -7.3228     5.2822 H       
  83 H83           -0.1163    -6.3743     5.7123 H       
  84 H84           -1.0610    -8.4716     1.3072 H       
  85 H85           -0.1455    -6.8425    -0.9367 H       
  86 H86           -1.6123    -8.1038    -2.5574 H       
  87 H87           -3.0353    -8.9314     0.0131 H       
  88 H88           -3.6218    -9.2309    -1.6406 H       
  89 H89           -2.1312   -10.0179    -1.0688 H       
  90 H90           -2.1541    -5.7951    -1.7516 H       
  91 H91           -3.6117    -6.7443    -2.1292 H       
  92 H92           -3.1174    -6.5084    -0.4357 H       
  93 H93            0.7906    -8.4509    -2.7278 H       
  94 H94            1.5610   -11.0370    -1.6113 H       
  95 H95            4.0074   -10.4798    -1.7418 H       
  96 H96            3.5696    -8.7779    -2.0247 H       
  97 H97            2.3601    -8.7293     0.1394 H       
  98 H98            2.7978   -10.4313     0.4223 H       
  99 H99            5.2011    -9.8246     0.3530 H       
 100 H100           4.7634    -8.1227     0.0701 H       
 101 H101           3.4526    -9.0013     2.4124 H       
 102 H102           4.4013    -8.4079     4.5145 H       
 103 H103           6.0216    -7.9749     4.6126 H       
 104 H104           7.3064    -7.9654     2.6812 H       
 105 H105           2.2883   -12.2168    -5.8282 H       
 106 H106           3.9931   -13.7945    -6.0354 H       
 107 H107           5.2474   -12.6506    -5.4545 H       
 108 H108           3.2209   -14.2588    -3.7996 H       
 109 H109           4.9795   -14.0423    -3.5077 H       
 110 H110           4.7075   -11.7496    -2.8363 H       
 111 H111           3.2250   -12.4874    -2.1561 H       
 112 H112           3.9644   -11.7404    -7.8759 H       
 113 H113           3.9450    -8.9366    -8.2142 H       
 114 H114           5.5892    -9.4338    -7.7478 H       
 115 H115           5.6403    -8.4214   -10.2448 H       
 116 H116           4.9376   -10.4713   -12.2023 H       
 117 H117           7.1290   -11.2378   -11.2418 H       
 118 H118           7.2356   -10.8229   -12.9695 H       
 119 H119           8.9907    -9.8137   -11.7018 H       
 120 H120           6.0634    -9.5979   -14.4897 H       
 121 H121           6.2686    -6.6849   -14.4903 H       
 122 H122           4.4069    -6.4517   -16.1612 H       
 123 H123           3.9836    -8.1570   -15.8762 H       
 124 H124           3.6887    -7.6260   -13.4384 H       
 125 H125           4.0531    -4.7582   -14.4180 H       
 126 H126           3.5573    -5.2396   -12.7777 H       
 127 H127           5.1844    -5.6494   -13.3718 H       
 128 H128           1.7545    -7.6299   -14.9900 H       
 129 H129           1.5543    -6.3962   -13.7226 H       
 130 H130           2.0502    -5.9148   -15.3629 H       
 131 H131           6.4281    -6.0157   -17.0727 H       
 132 H132           8.3650    -7.8718   -18.2220 H       
 133 H133           8.4763    -6.1324   -20.0488 H       
 134 H134           7.2330    -5.2052   -19.1755 H       
 135 H135          10.4565    -3.8822   -17.9693 H       
 136 H136           7.9673    -8.1751   -20.8474 H       
 137 H137           5.1262    -8.3326   -21.4992 H       
 138 H138           5.4360   -10.4792   -20.3755 H       
 139 H139           5.3072   -10.7645   -22.1277 H       
 140 H140           7.9640   -10.4559   -20.6673 H       
 141 H141           6.4817   -12.9913   -21.4989 H       
 142 H142           8.1295   -12.9248   -20.8291 H       
 143 H143           6.7407   -12.4420   -19.8258 H       
 144 H144           7.1126   -11.3582   -23.4478 H       
 145 H145           8.1735    -9.9947   -23.0191 H       
 146 H146           8.7362   -11.6674   -22.7870 H       
 147 H147           6.4947    -7.7365   -25.6738 H       
 148 H148           7.4435   -10.7001   -25.6133 H       
 149 H149           4.9641    -8.6103   -27.2009 H       
 150 H150           5.2235   -10.2938   -26.6372 H       
 151 H151           3.5050    -8.0968   -25.3452 H       
 152 H152           3.0860    -9.8172   -25.6437 H       
 153 H153           4.5617   -10.5964   -23.9116 H       
 154 H154           3.9538    -9.0763   -23.1872 H       
@<TRIPOS>BOND
   1    1    2 1
   2    1   74 1
   3    1   75 1
   4    2    3 1
   5    2    5 1
   6    2   76 1
   7    3    8 am
   8    3    4 2
   9    5    6 1
  10    5    7 1
  11    5   77 1
  12    6   78 1
  13    6   79 1
  14    6   80 1
  15    7   81 1
  16    7   82 1
  17    7   83 1
  18    8    9 1
  19    8   84 1
  20    9   12 1
  21    9   10 1
  22    9   85 1
  23   10   11 2
  24   10   15 am
  25   12   13 1
  26   12   14 1
  27   12   86 1
  28   13   87 1
  29   13   88 1
  30   13   89 1
  31   14   90 1
  32   14   91 1
  33   14   92 1
  34   15   16 1
  35   15   93 1
  36   16   17 1
  37   16   19 1
  38   16   94 1
  39   17   18 2
  40   17   26 am
  41   19   20 1
  42   19   95 1
  43   19   96 1
  44   20   21 1
  45   20   97 1
  46   20   98 1
  47   21   22 1
  48   21   99 1
  49   21  100 1
  50   22   23 1
  51   22  101 1
  52   23   24 1
  53   23   25 2
  54   24  102 1
  55   24  103 1
  56   25  104 1
  57   26   27 1
  58   26   32 1
  59   27   28 1
  60   27   30 1
  61   27  105 1
  62   28   33 am
  63   28   29 2
  64   30   31 1
  65   30  106 1
  66   30  107 1
  67   31   32 1
  68   31  108 1
  69   31  109 1
  70   32  110 1
  71   32  111 1
  72   33   34 1
  73   33  112 1
  74   34   35 1
  75   34  113 1
  76   34  114 1
  77   35   36 2
  78   35   37 am
  79   37   38 1
  80   37  115 1
  81   38   41 1
  82   38   39 1
  83   38  116 1
  84   39   40 2
  85   39   43 am
  86   41   42 1
  87   41  117 1
  88   41  118 1
  89   42  119 1
  90   43   44 1
  91   43  120 1
  92   44   45 1
  93   44   47 1
  94   44  121 1
  95   45   51 am
  96   45   46 2
  97   47   48 1
  98   47  122 1
  99   47  123 1
 100   48   49 1
 101   48   50 1
 102   48  124 1
 103   49  125 1
 104   49  126 1
 105   49  127 1
 106   50  128 1
 107   50  129 1
 108   50  130 1
 109   51   52 1
 110   51  131 1
 111   52   55 1
 112   52   53 1
 113   52  132 1
 114   53   54 2
 115   53   59 am
 116   55   56 1
 117   55  133 1
 118   55  134 1
 119   56   58 2
 120   56   57 1
 121   57  135 1
 122   59   60 1
 123   59  136 1
 124   60   61 1
 125   60   63 1
 126   60  137 1
 127   61   62 2
 128   61   67 am
 129   63   64 1
 130   63  138 1
 131   63  139 1
 132   64   65 1
 133   64   66 1
 134   64  140 1
 135   65  141 1
 136   65  142 1
 137   65  143 1
 138   66  144 1
 139   66  145 1
 140   66  146 1
 141   67   68 1
 142   67   73 1
 143   68   69 1
 144   68   71 1
 145   68  147 1
 146   69   70 2
 147   69  148 1
 148   71   72 1
 149   71  149 1
 150   71  150 1
 151   72   73 1
 152   72  151 1
 153   72  152 1
 154   73  153 1
 155   73  154 1

#	End of record

