#	Name: ASD11000094
#	Creating user name:	WinNT
#	Creation time:	15. 06. 2019 21:28

#	Modifying user name:	WinNT
#	Modification time:	15. 06. 2019 21:28

#	Program:	/corina/corina34_cracker 3.40 0067  02.08.2006

@<TRIPOS>MOLECULE
ASD11000094
  59   62    0    0    0
SMALL
NO_CHARGES


@<TRIPOS>ATOM
   1 C1             0.0965     1.2851     0.1373 C.3     
   2 C2            -0.4351    -0.1192    -0.1566 C.3     
   3 N3             0.0181    -0.5444    -1.4852 N.am    
   4 C4             0.0791    -1.0791     0.8871 C.ar    
   5 C5             0.6507    -2.2883     0.5578 C.ar    
   6 C6            -0.0409    -0.7087     2.2198 C.ar    
   7 C7             1.0917    -3.1373     1.5659 C.ar    
   8 C8             0.9708    -2.7750     2.8946 C.ar    
   9 C9             0.4026    -1.5484     3.2252 C.ar    
  10 C10           -0.0876    -1.9768    -1.8088 C.3     
  11 C11            0.8408    -2.7409    -0.8663 C.3     
  12 O12            0.2831    -1.1784     4.5284 O.3     
  13 C13           -0.3103     0.0950     4.7895 C.3     
  14 O14            1.4054    -3.6129     3.8736 O.3     
  15 C15            1.9779    -4.8545     3.4580 C.3     
  16 C16            0.5110     0.3406    -2.3742 C.2     
  17 O17            0.4797     1.5308    -2.1283 O.2     
  18 C18            1.0894    -0.1356    -3.6474 C.ar    
  19 C19            1.6823    -1.3977    -3.7188 C.ar    
  20 C20            1.0399     0.6728    -4.7852 C.ar    
  21 C21            1.5811     0.2229    -5.9714 C.ar    
  22 C22            2.1737    -1.0304    -6.0348 C.ar    
  23 C23            2.2203    -1.8380    -4.9094 C.ar    
  24 O24            1.5249     1.2708     0.1015 O.3     
  25 C25            2.1603     2.4484     0.3436 C.ar    
  26 C26            3.5460     2.5055     0.3243 C.ar    
  27 C27            1.4227     3.5936     0.6043 C.ar    
  28 C28            2.0681     4.7899     0.8503 C.ar    
  29 C29            3.4539     4.8456     0.8371 C.ar    
  30 C30            4.1915     3.7017     0.5703 C.ar    
  31 O31            4.0893     6.0234     1.0784 O.3     
  32 C32            5.5179     6.0078     1.0490 C.3     
  33 Cl33           1.5203     1.2256    -7.3873 Cl      
  34 F34            2.7025    -1.4669    -7.1989 F       
  35 H35           -0.2789     1.9802    -0.6136 H       
  36 H36           -0.2391     1.6012     1.1250 H       
  37 H37           -1.5248    -0.1070    -0.1318 H       
  38 H38           -0.4838     0.2430     2.4734 H       
  39 H39            1.5325    -4.0891     1.3090 H       
  40 H40           -1.1149    -2.3121    -1.6666 H       
  41 H41            0.2162    -2.1448    -2.8420 H       
  42 H42            1.8751    -2.5666    -1.1627 H       
  43 H43            0.6236    -3.8068    -0.9356 H       
  44 H44           -0.3451     0.2659     5.8654 H       
  45 H45            0.2842     0.8767     4.3164 H       
  46 H46           -1.3225     0.1138     4.3857 H       
  47 H47            2.2822    -5.4258     4.3350 H       
  48 H48            1.2403    -5.4232     2.8918 H       
  49 H49            2.8478    -4.6614     2.8303 H       
  50 H50            1.7196    -2.0279    -2.8425 H       
  51 H51            0.5785     1.6481    -4.7365 H       
  52 H52            2.6830    -2.8123    -4.9640 H       
  53 H53            4.1203     1.6146     0.1173 H       
  54 H54            0.3436     3.5502     0.6147 H       
  55 H55            1.4937     5.6818     1.0526 H       
  56 H56            5.2705     3.7451     0.5604 H       
  57 H57            5.8893     5.3146     1.8038 H       
  58 H58            5.8575     5.6883     0.0638 H       
  59 H59            5.8966     7.0085     1.2570 H       
@<TRIPOS>BOND
   1    1    2 1
   2    1   24 1
   3    1   35 1
   4    1   36 1
   5    2    3 1
   6    2    4 1
   7    2   37 1
   8    3   10 1
   9    3   16 am
  10    4    5 ar
  11    4    6 ar
  12    5    7 ar
  13    5   11 1
  14    6    9 ar
  15    6   38 1
  16    7    8 ar
  17    7   39 1
  18    8    9 ar
  19    8   14 1
  20    9   12 1
  21   10   11 1
  22   10   40 1
  23   10   41 1
  24   11   42 1
  25   11   43 1
  26   12   13 1
  27   13   44 1
  28   13   45 1
  29   13   46 1
  30   14   15 1
  31   15   47 1
  32   15   48 1
  33   15   49 1
  34   16   17 2
  35   16   18 1
  36   18   20 ar
  37   18   19 ar
  38   19   23 ar
  39   19   50 1
  40   20   21 ar
  41   20   51 1
  42   21   22 ar
  43   21   33 1
  44   22   23 ar
  45   22   34 1
  46   23   52 1
  47   24   25 1
  48   25   26 ar
  49   25   27 ar
  50   26   30 ar
  51   26   53 1
  52   27   28 ar
  53   27   54 1
  54   28   29 ar
  55   28   55 1
  56   29   30 ar
  57   29   31 1
  58   30   56 1
  59   31   32 1
  60   32   57 1
  61   32   58 1
  62   32   59 1

#	End of record

