#	Name: ASD10950032
#	Creating user name:	WinNT
#	Creation time:	15. 06. 2019 21:28

#	Modifying user name:	WinNT
#	Modification time:	15. 06. 2019 21:28

#	Program:	/corina/corina34_cracker 3.40 0067  02.08.2006

@<TRIPOS>MOLECULE
ASD10950032
  57   60    0    0    0
SMALL
NO_CHARGES


@<TRIPOS>ATOM
   1 C1             0.0061     1.2329    -1.6123 C.3     
   2 O2             0.0482    -0.1961    -1.3584 O.3     
   3 C3             0.5257    -0.5910    -0.1617 C.2     
   4 O4             0.8966     0.2362     0.6473 O.2     
   5 C5             0.5979    -2.0264     0.1657 C.ar    
   6 C6             0.1724    -2.9810    -0.7616 C.ar    
   7 C7             0.2431    -4.3214    -0.4493 C.ar    
   8 C8             0.7339    -4.7276     0.7807 C.ar    
   9 C9             1.1574    -3.7949     1.7068 C.ar    
  10 C10            1.0995    -2.4422     1.4075 C.ar    
  11 O11            1.5151    -1.5249     2.3162 O.3     
  12 C12            2.0021    -2.0224     3.5641 C.3     
  13 C13            0.8056    -6.1964     1.1104 C.3     
  14 N14           -0.4892    -6.8357     0.8492 N.am    
  15 C15           -1.7614    -6.4998     1.4934 C.3     
  16 C16           -2.4731    -5.4153     0.6821 C.3     
  17 C17           -3.7817    -5.0697     1.3447 C.2     
  18 C18           -4.9866    -5.5821     1.0485 C.2     
  19 N19           -5.9403    -5.0305     1.8598 N.pl3   
  20 C20           -5.3576    -4.1267     2.7197 C.ar    
  21 C21           -3.9793    -4.1157     2.4386 C.ar    
  22 C22           -3.1268    -3.2823     3.1655 C.ar    
  23 C23           -3.6366    -2.4808     4.1474 C.ar    
  24 C24           -4.9960    -2.4884     4.4290 C.ar    
  25 C25           -5.8545    -3.3051     3.7266 C.ar    
  26 C26           -0.3024    -7.7844    -0.0862 C.2     
  27 O27           -1.1732    -8.5038    -0.5333 O.2     
  28 C28            1.1204    -7.8212    -0.4905 C.2     
  29 C29            1.8051    -6.8827     0.2089 C.2     
  30 C30            3.1884    -6.6007     0.1130 C.2     
  31 O31            3.8640    -7.1557    -0.7288 O.2     
  32 C32            3.8228    -5.6111     1.0561 C.3     
  33 O33            1.6526    -8.6565    -1.4104 O.3     
  34 H34            1.0140     1.6430    -1.5493 H       
  35 H35           -0.3979     1.4131    -2.6085 H       
  36 H36           -0.6295     1.7153    -0.8697 H       
  37 H37           -0.2116    -2.6690    -1.7216 H       
  38 H38           -0.0860    -5.0586    -1.1667 H       
  39 H39            1.5385    -4.1196     2.6638 H       
  40 H40            2.3010    -1.1866     4.1968 H       
  41 H41            1.2156    -2.5908     4.0605 H       
  42 H42            2.8613    -2.6693     3.3870 H       
  43 H43            1.0866    -6.3322     2.1548 H       
  44 H44           -2.3901    -7.3889     1.5417 H       
  45 H45           -1.5721    -6.1334     2.5024 H       
  46 H46           -1.8444    -4.5262     0.6338 H       
  47 H47           -2.6624    -5.7818    -0.3269 H       
  48 H48           -5.1753    -6.3200     0.2828 H       
  49 H49           -6.8862    -5.2440     1.8330 H       
  50 H50           -2.0680    -3.2717     2.9524 H       
  51 H51           -2.9767    -1.8364     4.7094 H       
  52 H52           -5.3840    -1.8494     5.2085 H       
  53 H53           -6.9104    -3.3038     3.9531 H       
  54 H54            4.0943    -6.1156     1.9834 H       
  55 H55            4.7172    -5.1919     0.5952 H       
  56 H56            3.1157    -4.8101     1.2718 H       
  57 H57            1.0122    -9.2609    -1.8099 H       
@<TRIPOS>BOND
   1    1    2 1
   2    1   34 1
   3    1   35 1
   4    1   36 1
   5    2    3 1
   6    3    4 2
   7    3    5 1
   8    5    6 ar
   9    5   10 ar
  10    6    7 ar
  11    6   37 1
  12    7    8 ar
  13    7   38 1
  14    8    9 ar
  15    8   13 1
  16    9   10 ar
  17    9   39 1
  18   10   11 1
  19   11   12 1
  20   12   40 1
  21   12   41 1
  22   12   42 1
  23   13   14 1
  24   13   29 1
  25   13   43 1
  26   14   15 1
  27   14   26 am
  28   15   16 1
  29   15   44 1
  30   15   45 1
  31   16   17 1
  32   16   46 1
  33   16   47 1
  34   17   18 2
  35   17   21 1
  36   18   19 1
  37   18   48 1
  38   19   20 1
  39   19   49 1
  40   20   21 ar
  41   20   25 ar
  42   21   22 ar
  43   22   23 ar
  44   22   50 1
  45   23   24 ar
  46   23   51 1
  47   24   25 ar
  48   24   52 1
  49   25   53 1
  50   26   27 2
  51   26   28 1
  52   28   29 2
  53   28   33 1
  54   29   30 1
  55   30   31 2
  56   30   32 1
  57   32   54 1
  58   32   55 1
  59   32   56 1
  60   33   57 1

#	End of record

