#	Name: ASD10160439
#	Creating user name:	WinNT
#	Creation time:	15. 06. 2019 21:25

#	Modifying user name:	WinNT
#	Modification time:	15. 06. 2019 21:25

#	Program:	/corina/corina34_cracker 3.40 0067  02.08.2006

@<TRIPOS>MOLECULE
ASD10160439
  50   52    0    0    0
SMALL
NO_CHARGES


@<TRIPOS>ATOM
   1 C1             0.2255     1.4262     0.1392 C.2     
   2 C2             0.2086    -0.0441     0.0527 C.ar    
   3 C3             1.3968    -0.7706     0.2031 C.ar    
   4 C4             1.3749    -2.1480     0.1211 C.ar    
   5 C5             0.1776    -2.8127    -0.1104 C.ar    
   6 C6            -1.0050    -2.0941    -0.2607 C.ar    
   7 C7            -0.9948    -0.7198    -0.1740 C.ar    
   8 O8             1.2716     2.0111     0.3412 O.2     
   9 O9            -0.9182     2.1234    -0.0114 O.3     
  10 F10            2.5617    -0.1242     0.4274 F       
  11 O11            0.1606    -4.1673    -0.1907 O.3     
  12 C12            2.0309    -5.3419    -1.0896 C.ar    
  13 C13            1.3312    -4.8321    -0.0049 C.ar    
  14 C14            1.8453    -5.0109     1.2752 C.ar    
  15 C15            3.0432    -5.6955     1.4144 C.ar    
  16 C16            3.6822    -6.1742     0.2845 C.ar    
  17 N17            3.1668    -5.9871    -0.9148 N.ar    
  18 C18            4.9846    -6.9189     0.4262 C.3     
  19 C19            5.4842    -7.3404    -0.9572 C.3     
  20 C20            5.8177    -6.0946    -1.7804 C.3     
  21 C21            6.7391    -8.2024    -0.8054 C.3     
  22 F22            5.9335    -6.0879     1.0314 F       
  23 F23            4.7881    -8.0558     1.2174 F       
  24 Cl24           3.7330    -5.9484     2.9873 Cl      
  25 Cl25          -2.4971    -2.9326    -0.5510 Cl      
  26 C26           -0.8278     3.4781     0.0507 C.ar    
  27 C27           -0.3727     4.1951    -1.0463 C.ar    
  28 C28           -0.2822     5.5720    -0.9808 C.ar    
  29 C29           -0.6442     6.2355     0.1770 C.ar    
  30 C30           -1.0976     5.5232     1.2719 C.ar    
  31 C31           -1.1958     4.1466     1.2093 C.ar    
  32 C32           -0.5440     7.7376     0.2458 C.3     
  33 H33            2.2900    -2.7098     0.2368 H       
  34 H34           -1.9141    -0.1642    -0.2861 H       
  35 H35            1.6381    -5.2124    -2.0873 H       
  36 H36            1.3245    -4.6257     2.1394 H       
  37 H37            4.7084    -7.9141    -1.4643 H       
  38 H38            6.5934    -5.5209    -1.2732 H       
  39 H39            6.1736    -6.3949    -2.7659 H       
  40 H40            4.9237    -5.4805    -1.8885 H       
  41 H41            6.5015    -9.0900    -0.2190 H       
  42 H42            7.0950    -8.5027    -1.7909 H       
  43 H43            7.5148    -7.6288    -0.2982 H       
  44 H44           -0.0891     3.6773    -1.9507 H       
  45 H45            0.0720     6.1307    -1.8346 H       
  46 H46           -1.3795     6.0437     2.1752 H       
  47 H47           -1.5543     3.5910     2.0633 H       
  48 H48           -1.4837     8.1800    -0.0849 H       
  49 H49           -0.3409     8.0415     1.2727 H       
  50 H50            0.2651     8.0778    -0.4005 H       
@<TRIPOS>BOND
   1    1    2 1
   2    1    8 2
   3    1    9 1
   4    2    3 ar
   5    2    7 ar
   6    3    4 ar
   7    3   10 1
   8    4    5 ar
   9    4   33 1
  10    5    6 ar
  11    5   11 1
  12    6    7 ar
  13    6   25 1
  14    7   34 1
  15    9   26 1
  16   11   13 1
  17   12   13 ar
  18   12   17 ar
  19   12   35 1
  20   13   14 ar
  21   14   15 ar
  22   14   36 1
  23   15   16 ar
  24   15   24 1
  25   16   17 ar
  26   16   18 1
  27   18   19 1
  28   18   22 1
  29   18   23 1
  30   19   20 1
  31   19   21 1
  32   19   37 1
  33   20   38 1
  34   20   39 1
  35   20   40 1
  36   21   41 1
  37   21   42 1
  38   21   43 1
  39   26   27 ar
  40   26   31 ar
  41   27   28 ar
  42   27   44 1
  43   28   29 ar
  44   28   45 1
  45   29   30 ar
  46   29   32 1
  47   30   31 ar
  48   30   46 1
  49   31   47 1
  50   32   48 1
  51   32   49 1
  52   32   50 1

#	End of record

