#	Name: ASD10610136
#	Creating user name:	WinNT
#	Creation time:	15. 06. 2019 21:28

#	Modifying user name:	WinNT
#	Modification time:	15. 06. 2019 21:28

#	Program:	/corina/corina34_cracker 3.40 0067  02.08.2006

@<TRIPOS>MOLECULE
ASD10610136
  18   19    0    0    0
SMALL
NO_CHARGES


@<TRIPOS>ATOM
   1 O1            -0.0174     1.4334     0.0099 O.3     
   2 C2             0.0021    -0.0041     0.0020 C.3     
   3 C3             1.3372    -0.3249    -0.7107 C.3     
   4 C4             2.1512     0.9228    -0.4267 C.ar    
   5 C5             1.2612     1.9005     0.0002 C.ar    
   6 C6             3.4988     1.1891    -0.5222 C.ar    
   7 C7             3.9822     2.4407    -0.1838 C.ar    
   8 C8             3.1072     3.4205     0.2498 C.ar    
   9 C9             1.7553     3.1564     0.3423 C.ar    
  10 O10            1.9563    -1.4795    -0.1401 O.3     
  11 Br11           3.7661     5.1300     0.7181 Br      
  12 H12            0.0035    -0.3958     1.0192 H       
  13 H13           -0.8421    -0.3986    -0.5636 H       
  14 H14            1.1853    -0.4554    -1.7822 H       
  15 H15            4.1784     0.4210    -0.8609 H       
  16 H16            5.0388     2.6517    -0.2576 H       
  17 H17            1.0786     3.9267     0.6816 H       
  18 H18            1.4285    -2.2863    -0.2150 H       
@<TRIPOS>BOND
   1    1    2 1
   2    1    5 1
   3    2    3 1
   4    2   12 1
   5    2   13 1
   6    3    4 1
   7    3   10 1
   8    3   14 1
   9    4    5 ar
  10    4    6 ar
  11    5    9 ar
  12    6    7 ar
  13    6   15 1
  14    7    8 ar
  15    7   16 1
  16    8    9 ar
  17    8   11 1
  18    9   17 1
  19   10   18 1

#	End of record

