#	Name: ASD10420055
#	Creating user name:	WinNT
#	Creation time:	15. 06. 2019 21:27

#	Modifying user name:	WinNT
#	Modification time:	15. 06. 2019 21:27

#	Program:	/corina/corina34_cracker 3.40 0067  02.08.2006

@<TRIPOS>MOLECULE
ASD10420055
  42   45    0    0    0
SMALL
NO_CHARGES


@<TRIPOS>ATOM
   1 C1             0.2887     1.4711     0.9978 C.ar    
   2 C2             0.4828     0.1772     1.4568 C.ar    
   3 C3             1.7315    -0.4005     1.3979 C.ar    
   4 C4             2.8139     0.3160     0.8749 C.ar    
   5 C5             2.6204     1.6230     0.4105 C.ar    
   6 O6             3.6629     2.3252    -0.0944 O.3     
   7 C7             3.4296     3.4494    -0.8129 C.ar    
   8 C8             4.4479     4.0043    -1.5983 C.ar    
   9 C9             4.1986     5.1679    -2.3345 C.ar    
  10 C10            2.9583     5.7646    -2.2869 C.ar    
  11 C11            1.9481     5.2165    -1.5112 C.ar    
  12 C12            2.1799     4.0653    -0.7797 C.ar    
  13 N13            1.1585     3.4991     0.0014 N.pl3   
  14 C14            1.3492     2.1904     0.4762 C.ar    
  15 C15            4.1507    -0.3016     0.8135 C.2     
  16 O16            5.0884     0.3232     0.3588 O.2     
  17 O17            4.3331    -1.5593     1.2618 O.3     
  18 C18            5.7756     3.3661    -1.6486 C.2     
  19 O19            5.9889     2.3560    -1.0077 O.2     
  20 O20            6.7529     3.9029    -2.4053 O.3     
  21 C21           -0.0054     4.2127     0.2971 C.ar    
  22 C22           -0.0651     5.0070     1.4360 C.ar    
  23 C23           -1.2171     5.7110     1.7251 C.ar    
  24 C24           -2.3112     5.6260     0.8830 C.ar    
  25 C25           -2.2554     4.8367    -0.2510 C.ar    
  26 C26           -1.1042     4.1347    -0.5498 C.ar    
  27 C27           -1.2828     6.5725     2.9598 C.3     
  28 F28           -0.8494     7.8660     2.6495 F       
  29 F29           -2.6014     6.6214     3.4246 F       
  30 F30           -0.4586     6.0298     3.9515 F       
  31 H31           -0.6939     1.9171     1.0434 H       
  32 H32           -0.3488    -0.3797     1.8626 H       
  33 H33            1.8760    -1.4089     1.7566 H       
  34 H34            4.9809     5.5993    -2.9414 H       
  35 H35            2.7718     6.6634    -2.8558 H       
  36 H36            0.9778     5.6894    -1.4781 H       
  37 H37            5.2276    -1.9217     1.2009 H       
  38 H38            7.6067     3.4489    -2.4065 H       
  39 H39            0.7885     5.0732     2.0943 H       
  40 H40           -3.2113     6.1772     1.1120 H       
  41 H41           -3.1116     4.7725    -0.9061 H       
  42 H42           -1.0596     3.5222    -1.4382 H       
@<TRIPOS>BOND
   1    1    2 ar
   2    1   14 ar
   3    1   31 1
   4    2    3 ar
   5    2   32 1
   6    3    4 ar
   7    3   33 1
   8    4    5 ar
   9    4   15 1
  10    5    6 1
  11    5   14 ar
  12    6    7 1
  13    7    8 ar
  14    7   12 ar
  15    8    9 ar
  16    8   18 1
  17    9   10 ar
  18    9   34 1
  19   10   11 ar
  20   10   35 1
  21   11   12 ar
  22   11   36 1
  23   12   13 1
  24   13   14 1
  25   13   21 1
  26   15   16 2
  27   15   17 1
  28   17   37 1
  29   18   19 2
  30   18   20 1
  31   20   38 1
  32   21   22 ar
  33   21   26 ar
  34   22   23 ar
  35   22   39 1
  36   23   24 ar
  37   23   27 1
  38   24   25 ar
  39   24   40 1
  40   25   26 ar
  41   25   41 1
  42   26   42 1
  43   27   28 1
  44   27   29 1
  45   27   30 1

#	End of record

