#	Name: ASD10950028
#	Creating user name:	WinNT
#	Creation time:	15. 06. 2019 21:28

#	Modifying user name:	WinNT
#	Modification time:	15. 06. 2019 21:28

#	Program:	/corina/corina34_cracker 3.40 0067  02.08.2006

@<TRIPOS>MOLECULE
ASD10950028
  63   67    0    0    0
SMALL
NO_CHARGES


@<TRIPOS>ATOM
   1 C1             1.1117     1.4634     1.9538 C.3     
   2 N2             0.9037     0.0138     1.9931 N.am    
   3 C3             0.2428    -0.5995     0.9913 C.2     
   4 O4            -0.2445     0.0580     0.0926 O.2     
   5 C5             0.1104    -2.0720     0.9856 C.ar    
   6 C6            -0.0134    -2.7693     2.1884 C.ar    
   7 C7            -0.1370    -4.1433     2.1760 C.ar    
   8 C8            -0.1379    -4.8301     0.9749 C.ar    
   9 C9            -0.0155    -4.1449    -0.2209 C.ar    
  10 C10            0.1030    -2.7704    -0.2228 C.ar    
  11 C11           -0.2723    -6.3310     0.9691 C.3     
  12 N12           -1.2922    -6.7425    -0.0027 N.am    
  13 C13           -2.7083    -6.3683     0.0232 C.3     
  14 C14           -2.9084    -5.0741    -0.7681 C.3     
  15 C15           -4.3651    -4.6891    -0.7415 C.2     
  16 C16           -5.2857    -4.9823    -1.6734 C.2     
  17 N17           -6.4998    -4.4681    -1.3077 N.pl3   
  18 C18           -6.3872    -3.8150    -0.1008 C.ar    
  19 C19           -5.0465    -3.9294     0.3095 C.ar    
  20 C20           -4.6352    -3.3555     1.5141 C.ar    
  21 C21           -5.5386    -2.6848     2.2891 C.ar    
  22 C22           -6.8629    -2.5694     1.8889 C.ar    
  23 C23           -7.2908    -3.1308     0.7060 C.ar    
  24 C24           -0.6965    -7.5237    -0.9220 C.2     
  25 O25           -1.2567    -8.0347    -1.8712 O.2     
  26 C26            0.7406    -7.6678    -0.6065 C.2     
  27 C27            1.0216    -6.9667     0.5168 C.2     
  28 C28            2.3292    -6.8468     1.1684 C.2     
  29 O29            3.2394    -6.2696     0.6041 O.2     
  30 C30            2.5418    -7.4274     2.5115 C.ar    
  31 C31            3.8021    -7.3723     3.1198 C.ar    
  32 C32            3.9480    -7.9300     4.3776 C.ar    
  33 C33            2.8551    -8.5185     4.9885 C.ar    
  34 N34            1.6789    -8.5560     4.3914 N.ar    
  35 C35            1.4881    -8.0348     3.1976 C.ar    
  36 O36            1.6327    -8.3869    -1.3255 O.3     
  37 C37            1.4140    -0.7691     3.1213 C.3     
  38 H38            0.2761     1.9638     2.4431 H       
  39 H39            2.0379     1.7117     2.4721 H       
  40 H40            1.1760     1.7933     0.9169 H       
  41 H41           -0.0121    -2.2345     3.1266 H       
  42 H42           -0.2329    -4.6840     3.1059 H       
  43 H43           -0.0169    -4.6869    -1.1550 H       
  44 H44            0.1981    -2.2367    -1.1569 H       
  45 H45           -0.5379    -6.6870     1.9645 H       
  46 H46           -3.3028    -7.1641    -0.4256 H       
  47 H47           -3.0251    -6.2159     1.0550 H       
  48 H48           -2.3139    -4.2783    -0.3193 H       
  49 H49           -2.5916    -5.2265    -1.7999 H       
  50 H50           -5.0960    -5.5407    -2.5782 H       
  51 H51           -7.3179    -4.5511    -1.8222 H       
  52 H52           -3.6068    -3.4418     1.8322 H       
  53 H53           -5.2200    -2.2411     3.2208 H       
  54 H54           -7.5654    -2.0364     2.5125 H       
  55 H55           -8.3232    -3.0356     0.4033 H       
  56 H56            4.6387    -6.9068     2.6198 H       
  57 H57            4.9052    -7.9064     4.8773 H       
  58 H58            2.9666    -8.9548     5.9701 H       
  59 H59            0.5104    -8.0849     2.7415 H       
  60 H60            1.2527    -8.8239    -2.1000 H       
  61 H61            0.6466    -0.8382     3.8922 H       
  62 H62            1.6768    -1.7702     2.7794 H       
  63 H63            2.2983    -0.2815     3.5315 H       
@<TRIPOS>BOND
   1    1    2 1
   2    1   38 1
   3    1   39 1
   4    1   40 1
   5    2    3 am
   6    2   37 1
   7    3    4 2
   8    3    5 1
   9    5    6 ar
  10    5   10 ar
  11    6    7 ar
  12    6   41 1
  13    7    8 ar
  14    7   42 1
  15    8    9 ar
  16    8   11 1
  17    9   10 ar
  18    9   43 1
  19   10   44 1
  20   11   12 1
  21   11   27 1
  22   11   45 1
  23   12   13 1
  24   12   24 am
  25   13   14 1
  26   13   46 1
  27   13   47 1
  28   14   15 1
  29   14   48 1
  30   14   49 1
  31   15   16 2
  32   15   19 1
  33   16   17 1
  34   16   50 1
  35   17   18 1
  36   17   51 1
  37   18   19 ar
  38   18   23 ar
  39   19   20 ar
  40   20   21 ar
  41   20   52 1
  42   21   22 ar
  43   21   53 1
  44   22   23 ar
  45   22   54 1
  46   23   55 1
  47   24   25 2
  48   24   26 1
  49   26   27 2
  50   26   36 1
  51   27   28 1
  52   28   29 2
  53   28   30 1
  54   30   31 ar
  55   30   35 ar
  56   31   32 ar
  57   31   56 1
  58   32   33 ar
  59   32   57 1
  60   33   34 ar
  61   33   58 1
  62   34   35 ar
  63   35   59 1
  64   36   60 1
  65   37   61 1
  66   37   62 1
  67   37   63 1

#	End of record

