#	Name: ASD14640016
#	Creating user name:	WinNT
#	Creation time:	15. 06. 2019 21:31

#	Modifying user name:	WinNT
#	Modification time:	15. 06. 2019 21:31

#	Program:	/corina/corina34_cracker 3.40 0067  02.08.2006

@<TRIPOS>MOLECULE
ASD14640016
  37   39    0    0    0
SMALL
NO_CHARGES


@<TRIPOS>ATOM
   1 C1            -0.0080     1.4654     0.0021 C.3     
   2 N2             0.0044    -0.0038     0.0001 N.am    
   3 C3             0.7830    -0.7051     1.0299 C.3     
   4 C4             2.2203    -0.1756     1.0073 C.3     
   5 C5             2.2013     1.3469     1.1618 C.3     
   6 C6             1.4382     1.9707    -0.0090 C.3     
   7 C7             3.0114    -0.7960     2.1606 C.3     
   8 C8             3.1312    -2.2827     1.9450 C.ar    
   9 C9             4.1537    -2.7918     1.1539 C.ar    
  10 C10            2.2300    -3.1417     2.5367 C.ar    
  11 C11            2.3287    -4.5125     2.3465 C.ar    
  12 C12            3.3245    -5.0334     1.5675 C.ar    
  13 C13           -0.6858    -0.6950    -0.9285 C.2     
  14 N14           -1.4808    -0.0438    -1.8004 N.am    
  15 O15           -0.5913    -1.9062    -0.9795 O.2     
  16 C16            5.9043    -3.1585    -0.1570 C.2     
  17 O17            5.1638    -2.2243     0.4647 O.3     
  18 C18            4.2483    -4.1807     0.9651 C.ar    
  19 C19            5.4142    -4.3797     0.0960 C.2     
  20 H20           -0.5284     1.8277    -0.8844 H       
  21 H21           -0.5139     1.8253     0.8980 H       
  22 H22            0.3416    -0.5222     2.0096 H       
  23 H23            0.7845    -1.7750     0.8215 H       
  24 H24            2.6903    -0.4392     0.0598 H       
  25 H25            1.7091     1.6108     2.0978 H       
  26 H26            3.2240     1.7238     1.1707 H       
  27 H27            1.9155     1.6868    -0.9469 H       
  28 H28            1.4451     3.0562     0.0893 H       
  29 H29            4.0066    -0.3530     2.1983 H       
  30 H30            2.4932    -0.6058     3.1004 H       
  31 H31            1.4390    -2.7436     3.1550 H       
  32 H32            1.6148    -5.1723     2.8170 H       
  33 H33            3.3975    -6.1012     1.4230 H       
  34 H34           -1.6149     0.9129    -1.7133 H       
  35 H35           -1.9189    -0.5318    -2.5152 H       
  36 H36            6.7689    -2.9543    -0.7711 H       
  37 H37            5.7993    -5.3211    -0.2672 H       
@<TRIPOS>BOND
   1    1    2 1
   2    1    6 1
   3    1   20 1
   4    1   21 1
   5    2    3 1
   6    2   13 am
   7    3    4 1
   8    3   22 1
   9    3   23 1
  10    4    5 1
  11    4    7 1
  12    4   24 1
  13    5    6 1
  14    5   25 1
  15    5   26 1
  16    6   27 1
  17    6   28 1
  18    7    8 1
  19    7   29 1
  20    7   30 1
  21    8   10 ar
  22    8    9 ar
  23    9   18 ar
  24    9   17 1
  25   10   11 ar
  26   10   31 1
  27   11   12 ar
  28   11   32 1
  29   12   18 ar
  30   12   33 1
  31   13   14 am
  32   13   15 2
  33   14   34 1
  34   14   35 1
  35   16   17 1
  36   16   19 2
  37   16   36 1
  38   18   19 1
  39   19   37 1

#	End of record

