#	Name: ASD16760001
#	Creating user name:	WinNT
#	Creation time:	15. 06. 2019 21:31

#	Modifying user name:	WinNT
#	Modification time:	15. 06. 2019 21:31

#	Program:	/corina/corina34_cracker 3.40 0067  02.08.2006

@<TRIPOS>MOLECULE
ASD16760001
  27   27    0    0    0
SMALL
NO_CHARGES


@<TRIPOS>ATOM
   1 C1            -0.0169     1.3948     0.0097 C.3     
   2 C2             2.9264     3.7609     0.0160 C.ar    
   3 C3             3.7598     1.5136    -0.0257 C.ar    
   4 C4             3.9915     2.8812    -0.0095 C.ar    
   5 C5             3.2441     5.7693    -1.4033 C.3     
   6 C6             1.3969     1.9164    -0.0010 C.ar    
   7 C7             3.1774     5.2467     0.0331 C.3     
   8 C8             3.6220     7.2518    -1.3897 C.3     
   9 C9             1.6306     3.2792     0.0200 C.ar    
  10 C10            2.4584     1.0327    -0.0159 C.ar    
  11 F11           -0.6717     1.8460     1.1607 F       
  12 F12           -0.6935     1.8582    -1.1237 F       
  13 F13            0.0021    -0.0041     0.0020 F       
  14 N14            1.9335     5.6039    -2.0459 N.3     
  15 O15            4.8058     0.6464    -0.0512 O.3     
  16 H16            5.0036     3.2580    -0.0171 H       
  17 H17            3.9949     5.2081    -1.9596 H       
  18 H18            2.3669     5.7460     0.5641 H       
  19 H19            4.1219     5.4499     0.5379 H       
  20 H20            4.5944     7.3745    -0.9129 H       
  21 H21            3.6695     7.6241    -2.4130 H       
  22 H22            2.8712     7.8130    -0.8334 H       
  23 H23            0.7994     3.9685     0.0399 H       
  24 H24            2.2755    -0.0317    -0.0202 H       
  25 H25            1.2092     6.0617    -1.5131 H       
  26 H26            1.9516     5.9419    -2.9964 H       
  27 H27            5.1198     0.3830     0.8246 H       
@<TRIPOS>BOND
   1    1   13 1
   2    1    6 1
   3    1   11 1
   4    1   12 1
   5    2    4 ar
   6    2    7 1
   7    2    9 ar
   8    3   15 1
   9    3    4 ar
  10    3   10 ar
  11    4   16 1
  12    5    7 1
  13    5    8 1
  14    5   17 1
  15    5   14 1
  16    6   10 ar
  17    6    9 ar
  18    7   18 1
  19    7   19 1
  20    8   20 1
  21    8   21 1
  22    8   22 1
  23    9   23 1
  24   10   24 1
  25   14   25 1
  26   14   26 1
  27   15   27 1

#	End of record

