#	Name: ASD10160391
#	Creating user name:	WinNT
#	Creation time:	15. 06. 2019 21:25

#	Modifying user name:	WinNT
#	Modification time:	15. 06. 2019 21:25

#	Program:	/corina/corina34_cracker 3.40 0067  02.08.2006

@<TRIPOS>MOLECULE
ASD10160391
  41   42    0    0    0
SMALL
NO_CHARGES


@<TRIPOS>ATOM
   1 C1            -0.0168     1.3889     0.0097 C.ar    
   2 C2             0.0021    -0.0041     0.0020 C.ar    
   3 C3             1.2158    -0.6614    -0.0131 C.ar    
   4 C4             2.3884     0.1057    -0.0201 C.ar    
   5 C5             2.2879     1.4955    -0.0117 C.ar    
   6 N6             1.1101     2.0839     0.0027 N.ar    
   7 O7             5.0836     0.0406    -0.0456 O.3     
   8 B8             3.7953    -0.5908    -0.0368 Du      
   9 O9             4.0744    -1.9980    -0.0460 O.3     
  10 C10            5.2090    -2.1512     0.8327 C.3     
  11 C11            5.8932    -0.7690     0.8329 C.3     
  12 C12            7.3198    -0.8802     0.2914 C.3     
  13 C13            5.9020    -0.1787     2.2445 C.3     
  14 C14            4.7448    -2.5165     2.2440 C.3     
  15 C15            6.1626    -3.2180     0.2910 C.3     
  16 O16           -1.2044     2.0411     0.0188 O.3     
  17 C17           -1.1600     3.4694     0.0264 C.3     
  18 C18           -2.5859     4.0240     0.0361 C.3     
  19 C19           -3.3168     3.5298     1.2861 C.3     
  20 F20           -2.6377     3.9692     2.4276 F       
  21 F21           -4.6206     4.0369     1.2950 F       
  22 F22           -3.3602     2.1315     1.2787 F       
  23 F23           -2.5424     5.4223     0.0435 F       
  24 F24           -3.2649     3.5845    -1.1054 F       
  25 Cl25          -1.4833    -0.9026     0.0119 Cl      
  26 H26            1.2606    -1.7405    -0.0189 H       
  27 H27            3.1854     2.0962    -0.0170 H       
  28 H28            7.7688     0.1119     0.2438 H       
  29 H29            7.9106    -1.5151     0.9518 H       
  30 H30            7.2965    -1.3168    -0.7070 H       
  31 H31            4.8806    -0.1215     2.6207 H       
  32 H32            6.4958    -0.8151     2.9007 H       
  33 H33            6.3358     0.8208     2.2176 H       
  34 H34            4.2130    -3.4676     2.2168 H       
  35 H35            5.6107    -2.6031     2.9003 H       
  36 H36            4.0799    -1.7391     2.6204 H       
  37 H37            6.4957    -2.9344    -0.7073 H       
  38 H38            7.0255    -3.3031     0.9515 H       
  39 H39            5.6459    -4.1766     0.2430 H       
  40 H40           -0.6309     3.8118     0.9157 H       
  41 H41           -0.6393     3.8215    -0.8642 H       
@<TRIPOS>BOND
   1    1    2 ar
   2    1    6 ar
   3    1   16 1
   4    2    3 ar
   5    2   25 1
   6    3    4 ar
   7    3   26 1
   8    4    5 ar
   9    4    8 1
  10    5    6 ar
  11    5   27 1
  12    7    8 1
  13    7   11 1
  14    8    9 1
  15    9   10 1
  16   10   11 1
  17   10   14 1
  18   10   15 1
  19   11   12 1
  20   11   13 1
  21   12   28 1
  22   12   29 1
  23   12   30 1
  24   13   31 1
  25   13   32 1
  26   13   33 1
  27   14   34 1
  28   14   35 1
  29   14   36 1
  30   15   37 1
  31   15   38 1
  32   15   39 1
  33   16   17 1
  34   17   18 1
  35   17   40 1
  36   17   41 1
  37   18   19 1
  38   18   23 1
  39   18   24 1
  40   19   20 1
  41   19   21 1
  42   19   22 1

#	End of record

