#	Name: ASD10410220
#	Creating user name:	WinNT
#	Creation time:	15. 06. 2019 21:27

#	Modifying user name:	WinNT
#	Modification time:	15. 06. 2019 21:27

#	Program:	/corina/corina34_cracker 3.40 0067  02.08.2006

@<TRIPOS>MOLECULE
ASD10410220
  56   60    0    0    0
SMALL
NO_CHARGES


@<TRIPOS>ATOM
   1 C1            -0.0310     1.3870    -0.1229 C.ar    
   2 C2            -0.0092     0.0057     0.0022 C.ar    
   3 C3             1.2002    -0.6606     0.1347 C.ar    
   4 C4             2.3837     0.0509     0.1425 C.ar    
   5 C5             2.3629     1.4338     0.0173 C.ar    
   6 C6             1.1516     2.1000    -0.1157 C.ar    
   7 O7            -1.1743    -0.6957    -0.0045 O.3     
   8 N8             3.5621     2.1559     0.0252 N.pl3   
   9 C9             3.6609     3.3512    -0.6861 C.2     
  10 N10            4.6931     4.1601    -0.6736 N.2     
  11 N11            2.7199     3.8528    -1.4946 N.2     
  12 C12            3.1350     4.9919    -2.0058 C.2     
  13 N13            4.3813     5.2368    -1.5193 N.pl3   
  14 C14            5.1872     6.3353    -1.8037 C.ar    
  15 N15            2.4316     5.7945    -2.8830 N.pl3   
  16 C16            5.8205     7.0393    -0.7573 C.ar    
  17 C17           -1.0778    -2.1152     0.1285 C.3     
  18 C18           -2.4800    -2.7267     0.0995 C.3     
  19 N19           -3.0858    -2.5002    -1.2195 N.3     
  20 C20           -4.3320    -3.2739    -1.3684 C.3     
  21 C21           -5.4558    -2.2706    -1.7030 C.3     
  22 C22           -4.6808    -1.0587    -2.2840 C.3     
  23 C23           -3.3934    -1.0685    -1.4225 C.3     
  24 N24            5.3665     6.7192    -3.0525 N.ar    
  25 C25            6.1229     7.7575    -3.3804 C.ar    
  26 C26            6.7703     8.5026    -2.4428 C.ar    
  27 C27            6.6340     8.1535    -1.0856 C.ar    
  28 C28            7.2685     8.8717    -0.0624 C.ar    
  29 C29            7.0981     8.4853     1.2332 C.ar    
  30 C30            6.3035     7.3874     1.5556 C.ar    
  31 C31            5.6682     6.6706     0.5861 C.ar    
  32 H32           -0.9728     1.9045    -0.2304 H       
  33 H33            1.2162    -1.7361     0.2320 H       
  34 H34            3.3252    -0.4680     0.2464 H       
  35 H35            1.1345     3.1755    -0.2135 H       
  36 H36            4.3243     1.8247     0.5255 H       
  37 H37            1.5448     5.5323    -3.1756 H       
  38 H38            2.8246     6.6203    -3.2063 H       
  39 H39           -0.4886    -2.5181    -0.6953 H       
  40 H40           -0.5944    -2.3595     1.0744 H       
  41 H41           -2.4132    -3.7979     0.2896 H       
  42 H42           -3.0962    -2.2591     0.8674 H       
  43 H43           -4.2259    -3.9955    -2.1785 H       
  44 H44           -4.5614    -3.7904    -0.4364 H       
  45 H45           -6.1348    -2.6866    -2.4473 H       
  46 H46           -5.9983    -1.9850    -0.8018 H       
  47 H47           -4.4470    -1.2134    -3.3373 H       
  48 H48           -5.2391    -0.1335    -2.1413 H       
  49 H49           -3.5738    -0.5796    -0.4651 H       
  50 H50           -2.5781    -0.5766    -1.9530 H       
  51 H51            6.2291     8.0198    -4.4227 H       
  52 H52            7.3812     9.3438    -2.7352 H       
  53 H53            7.8877     9.7244    -0.2990 H       
  54 H54            7.5866     9.0383     2.0219 H       
  55 H55            6.1859     7.1021     2.5905 H       
  56 H56            5.0553     5.8217     0.8510 H       
@<TRIPOS>BOND
   1    1    2 ar
   2    1    6 ar
   3    1   32 1
   4    2    3 ar
   5    2    7 1
   6    3    4 ar
   7    3   33 1
   8    4    5 ar
   9    4   34 1
  10    5    6 ar
  11    5    8 1
  12    6   35 1
  13    7   17 1
  14    8    9 1
  15    8   36 1
  16    9   10 2
  17    9   11 1
  18   10   13 1
  19   11   12 2
  20   12   13 1
  21   12   15 1
  22   13   14 1
  23   14   16 ar
  24   14   24 ar
  25   15   37 1
  26   15   38 1
  27   16   27 ar
  28   16   31 ar
  29   17   18 1
  30   17   39 1
  31   17   40 1
  32   18   19 1
  33   18   41 1
  34   18   42 1
  35   19   20 1
  36   19   23 1
  37   20   21 1
  38   20   43 1
  39   20   44 1
  40   21   22 1
  41   21   45 1
  42   21   46 1
  43   22   23 1
  44   22   47 1
  45   22   48 1
  46   23   49 1
  47   23   50 1
  48   24   25 ar
  49   25   26 ar
  50   25   51 1
  51   26   27 ar
  52   26   52 1
  53   27   28 ar
  54   28   29 ar
  55   28   53 1
  56   29   30 ar
  57   29   54 1
  58   30   31 ar
  59   30   55 1
  60   31   56 1

#	End of record

