#	Name: ASD10410207
#	Creating user name:	WinNT
#	Creation time:	15. 06. 2019 21:27

#	Modifying user name:	WinNT
#	Modification time:	15. 06. 2019 21:27

#	Program:	/corina/corina34_cracker 3.40 0067  02.08.2006

@<TRIPOS>MOLECULE
ASD10410207
  53   57    0    0    0
SMALL
NO_CHARGES


@<TRIPOS>ATOM
   1 C1            -0.0184     1.3920    -0.0796 C.ar    
   2 C2            -0.0058     0.0095     0.0246 C.ar    
   3 C3             1.2019    -0.6696     0.1144 C.ar    
   4 C4             2.3919     0.0323     0.0995 C.ar    
   5 C5             2.3792     1.4173    -0.0054 C.ar    
   6 C6             1.1707     2.0951    -0.0947 C.ar    
   7 O7            -1.1771    -0.6818     0.0394 O.3     
   8 Cl8            1.2167    -2.4005     0.2461 Cl      
   9 N9             3.5842     2.1294    -0.0202 N.pl3   
  10 C10            3.6705     3.3396    -0.7076 C.2     
  11 N11            4.7087     4.1406    -0.7087 N.2     
  12 N12            2.7091     3.8656    -1.4757 N.2     
  13 C13            3.1170     5.0129    -1.9741 C.2     
  14 N14            4.3796     5.2382    -1.5205 N.pl3   
  15 C15            5.1830     6.3346    -1.8042 C.2     
  16 N16            2.3934     5.8396    -2.8114 N.pl3   
  17 N17            6.3760     6.5083    -1.3521 N.2     
  18 C18           -2.3817     0.0809    -0.0561 C.3     
  19 C19           -3.5862    -0.8620    -0.0235 C.3     
  20 N20           -3.6509    -1.5287     1.2839 N.3     
  21 C21           -4.9216    -2.2597     1.4419 C.3     
  22 C22           -4.5681    -3.7318     1.7407 C.3     
  23 C23           -3.1229    -3.6382     2.2970 C.3     
  24 C24           -2.5347    -2.4843     1.4472 C.3     
  25 S25            4.7181     7.6789    -2.8375 S.3     
  26 C26            6.2801     8.4468    -2.5636 C.ar    
  27 C27            7.0327     7.6263    -1.7171 C.ar    
  28 C28            6.8093     9.6446    -3.0377 C.ar    
  29 C29            8.0791    10.0334    -2.6725 C.ar    
  30 C30            8.8344     9.2312    -1.8299 C.ar    
  31 C31            8.3315     8.0452    -1.3580 C.ar    
  32 H32           -0.9581     1.9191    -0.1535 H       
  33 H33            3.3314    -0.4956     0.1696 H       
  34 H34            1.1603     3.1719    -0.1766 H       
  35 H35            4.3592     1.7811     0.4477 H       
  36 H36            1.4961     5.5901    -3.0825 H       
  37 H37            2.7826     6.6697    -3.1282 H       
  38 H38           -2.4403     0.7742     0.7829 H       
  39 H39           -2.3840     0.6410    -0.9912 H       
  40 H40           -4.4999    -0.2901    -0.1853 H       
  41 H41           -3.4826    -1.6111    -0.8086 H       
  42 H42           -5.4906    -1.8393     2.2712 H       
  43 H43           -5.5023    -2.1972     0.5216 H       
  44 H44           -5.2432    -4.1459     2.4896 H       
  45 H45           -4.5919    -4.3268     0.8278 H       
  46 H46           -3.1280    -3.3799     3.3559 H       
  47 H47           -2.5777    -4.5664     2.1257 H       
  48 H48           -2.2085    -2.8563     0.4760 H       
  49 H49           -1.7043    -2.0117     1.9719 H       
  50 H50            6.2225    10.2702    -3.6938 H       
  51 H51            8.4867    10.9625    -3.0425 H       
  52 H52            9.8297     9.5406    -1.5469 H       
  53 H53            8.9312     7.4311    -0.7026 H       
@<TRIPOS>BOND
   1    1    2 ar
   2    1    6 ar
   3    1   32 1
   4    2    3 ar
   5    2    7 1
   6    3    4 ar
   7    3    8 1
   8    4    5 ar
   9    4   33 1
  10    5    6 ar
  11    5    9 1
  12    6   34 1
  13    7   18 1
  14    9   10 1
  15    9   35 1
  16   10   11 2
  17   10   12 1
  18   11   14 1
  19   12   13 2
  20   13   14 1
  21   13   16 1
  22   14   15 1
  23   15   17 2
  24   15   25 1
  25   16   36 1
  26   16   37 1
  27   17   27 1
  28   18   19 1
  29   18   38 1
  30   18   39 1
  31   19   20 1
  32   19   40 1
  33   19   41 1
  34   20   21 1
  35   20   24 1
  36   21   22 1
  37   21   42 1
  38   21   43 1
  39   22   23 1
  40   22   44 1
  41   22   45 1
  42   23   24 1
  43   23   46 1
  44   23   47 1
  45   24   48 1
  46   24   49 1
  47   25   26 1
  48   26   27 ar
  49   26   28 ar
  50   27   31 ar
  51   28   29 ar
  52   28   50 1
  53   29   30 ar
  54   29   51 1
  55   30   31 ar
  56   30   52 1
  57   31   53 1

#	End of record

