#	Name: ASD11000078
#	Creating user name:	WinNT
#	Creation time:	15. 06. 2019 21:28

#	Modifying user name:	WinNT
#	Modification time:	15. 06. 2019 21:28

#	Program:	/corina/corina34_cracker 3.40 0067  02.08.2006

@<TRIPOS>MOLECULE
ASD11000078
  56   59    0    0    0
SMALL
NO_CHARGES


@<TRIPOS>ATOM
   1 C1             2.1381     1.7767    -0.1746 C.ar    
   2 C2             1.5734     0.5317     0.0227 C.ar    
   3 C3             2.3531    -0.6096    -0.0923 C.ar    
   4 C4             3.6999    -0.5007    -0.4051 C.ar    
   5 C5             4.2647     0.7444    -0.6025 C.ar    
   6 C6             3.4848     1.8856    -0.4879 C.ar    
   7 O7             4.0407     3.1113    -0.6826 O.3     
   8 C8             3.1787     4.2432    -0.5488 C.3     
   9 O9             1.7972    -1.8353     0.1020 O.3     
  10 C10            2.6590    -2.9672    -0.0323 C.3     
  11 C11            1.8614    -4.2483     0.2201 C.3     
  12 N12            1.0883    -4.5863    -0.9796 N.am    
  13 C13            2.8105    -5.3741     0.5470 C.ar    
  14 C14            2.7284    -6.6069    -0.0619 C.ar    
  15 C15            3.7917    -5.1352     1.4999 C.ar    
  16 C16            3.6226    -7.6098     0.2934 C.ar    
  17 C17            4.5988    -7.3783     1.2445 C.ar    
  18 C18            4.6870    -6.1290     1.8512 C.ar    
  19 C19            0.5376    -5.9489    -1.0669 C.3     
  20 C20            1.7103    -6.9265    -1.1249 C.3     
  21 C21            0.8896    -3.6856    -1.9623 C.2     
  22 O22            1.2534    -2.5336    -1.8146 O.2     
  23 C23            0.2354    -4.0934    -3.2090 C.2     
  24 C24           -0.5667    -3.2998    -3.9798 C.2     
  25 O25            5.6463    -5.8874     2.7843 O.3     
  26 C26            5.6742    -4.5811     3.3630 C.3     
  27 O27            5.4689    -8.3664     1.5853 O.3     
  28 C28            5.3175    -9.6220     0.9201 C.3     
  29 C29           -1.0498    -3.9376    -5.0977 C.2     
  30 C30           -0.6584    -5.2094    -5.2394 C.2     
  31 S31            0.3630    -5.6800    -3.9563 S.3     
  32 H32            1.5300     2.6651    -0.0894 H       
  33 H33            0.5248     0.4469     0.2670 H       
  34 H34            4.3072    -1.3893    -0.4940 H       
  35 H35            5.3135     0.8292    -0.8457 H       
  36 H36            3.7469     5.1558    -0.7290 H       
  37 H37            2.3683     4.1705    -1.2741 H       
  38 H38            2.7636     4.2666     0.4588 H       
  39 H39            3.0741    -2.9903    -1.0399 H       
  40 H40            3.4694    -2.8949     0.6929 H       
  41 H41            1.1816    -4.0931     1.0579 H       
  42 H42            3.8566    -4.1652     1.9702 H       
  43 H43            3.5538    -8.5793    -0.1776 H       
  44 H44           -0.0728    -6.1570    -0.1882 H       
  45 H45           -0.0675    -6.0450    -1.9684 H       
  46 H46            2.1828    -6.8617    -2.1050 H       
  47 H47            1.3396    -7.9403    -0.9730 H       
  48 H48           -0.7982    -2.2737    -3.7350 H       
  49 H49            4.7249    -4.3840     3.8611 H       
  50 H50            6.4847    -4.5227     4.0895 H       
  51 H51            5.8342    -3.8401     2.5798 H       
  52 H52            6.0724   -10.3192     1.2837 H       
  53 H53            4.3245   -10.0233     1.1230 H       
  54 H54            5.4400    -9.4814    -0.1538 H       
  55 H55           -1.6983    -3.4482    -5.8093 H       
  56 H56           -0.9471    -5.8510    -6.0588 H       
@<TRIPOS>BOND
   1    1    2 ar
   2    1    6 ar
   3    1   32 1
   4    2    3 ar
   5    2   33 1
   6    3    4 ar
   7    3    9 1
   8    4    5 ar
   9    4   34 1
  10    5    6 ar
  11    5   35 1
  12    6    7 1
  13    7    8 1
  14    8   36 1
  15    8   37 1
  16    8   38 1
  17    9   10 1
  18   10   11 1
  19   10   39 1
  20   10   40 1
  21   11   12 1
  22   11   13 1
  23   11   41 1
  24   12   19 1
  25   12   21 am
  26   13   14 ar
  27   13   15 ar
  28   14   16 ar
  29   14   20 1
  30   15   18 ar
  31   15   42 1
  32   16   17 ar
  33   16   43 1
  34   17   18 ar
  35   17   27 1
  36   18   25 1
  37   19   20 1
  38   19   44 1
  39   19   45 1
  40   20   46 1
  41   20   47 1
  42   21   22 2
  43   21   23 1
  44   23   24 2
  45   23   31 1
  46   24   29 1
  47   24   48 1
  48   25   26 1
  49   26   49 1
  50   26   50 1
  51   26   51 1
  52   27   28 1
  53   28   52 1
  54   28   53 1
  55   28   54 1
  56   29   30 2
  57   29   55 1
  58   30   31 1
  59   30   56 1

#	End of record

