#	Name: ASD10100016
#	Creating user name:	WinNT
#	Creation time:	15. 06. 2019 21:24

#	Modifying user name:	WinNT
#	Modification time:	15. 06. 2019 21:24

#	Program:	/corina/corina34_cracker 3.40 0067  02.08.2006

@<TRIPOS>MOLECULE
ASD10100016
  64   66    0    0    0
SMALL
NO_CHARGES


@<TRIPOS>ATOM
   1 P1            -2.5128    -0.4572    -2.0237 P.3     
   2 O2            -1.2303    -0.2228    -1.0790 O.3     
   3 O3            -2.3255     0.3634    -3.3961 O.3     
   4 O4            -2.6575    -2.0267    -2.3523 O.3     
   5 O5            -3.7307     0.0156    -1.3284 O.2     
   6 C6            -3.3396     0.4433    -4.3997 C.3     
   7 C7            -2.8367     1.2962    -5.5662 C.3     
   8 C8            -3.9602     1.5005    -6.6065 C.3     
   9 C9            -3.2268     1.4517    -7.9656 C.3     
  10 C10           -1.7470     1.2236    -7.5856 C.3     
  11 O11           -1.7922     0.6022    -6.2826 O.3     
  12 O12           -4.5885     2.7707    -6.4220 O.3     
  13 N13           -1.1035     0.3320    -8.5537 N.am    
  14 C14           -1.5143    -0.9447    -8.6595 C.2     
  15 C15           -0.0939     0.8072    -9.3458 C.2     
  16 C16            0.4991    -0.0146   -10.2380 C.2     
  17 C17            0.0610    -1.3573   -10.3350 C.2     
  18 N18           -0.9405    -1.7855    -9.5401 N.am    
  19 O19           -2.4165    -1.3448    -7.9493 O.2     
  20 C20            1.6122     0.4909   -11.1192 C.3     
  21 O21            0.5803    -2.1172   -11.1325 O.2     
  22 P22           -1.4596    -0.7266     0.5495 P.3     
  23 O23           -0.8385    -2.2815     0.1560 O.3     
  24 O24           -2.9491    -1.4423     1.0267 O.3     
  25 O25           -2.0808     0.8283     0.9431 O.3     
  26 C26           -0.8026    -3.1892     1.2590 C.3     
  27 C27           -0.9757    -4.6217     0.7472 C.3     
  28 O28            0.4532    -3.0734     1.9310 O.3     
  29 C29            0.5853    -3.9240     3.0717 C.3     
  30 C30            0.4680    -5.3859     2.6327 C.3     
  31 C31           -0.8760    -5.5929     1.9276 C.3     
  32 C32            1.9504    -3.6949     3.7236 C.3     
  33 O33            0.5418    -6.2361     3.7789 O.3     
  34 O34           -0.9631    -6.9367     1.4495 O.3     
  35 O35           -2.2555    -4.7553     0.1257 O.3     
  36 O36            2.0161    -2.3626     4.2360 O.3     
  37 H37           -1.8937    -2.4050    -2.8090 H       
  38 H38           -3.5763    -0.5586    -4.7577 H       
  39 H39           -4.2348     0.8987    -3.9762 H       
  40 H40           -2.4756     2.2586    -5.2036 H       
  41 H41           -4.6938     0.6971    -6.5393 H       
  42 H42           -3.5978     0.6241    -8.5703 H       
  43 H43           -3.3435     2.3964    -8.4967 H       
  44 H44           -1.2175     2.1749    -7.5342 H       
  45 H45           -5.3021     2.9513    -7.0491 H       
  46 H46            0.2268     1.8347    -9.2580 H       
  47 H47           -1.2462    -2.7041    -9.6006 H       
  48 H48            2.5690     0.3371   -10.6202 H       
  49 H49            1.6035    -0.0531   -12.0637 H       
  50 H50            1.4693     1.5543   -11.3111 H       
  51 H51           -0.3827    -0.5454     1.5335 H       
  52 H52           -2.9706    -2.4046     0.9337 H       
  53 H53           -1.5982     1.2771     1.6508 H       
  54 H54           -1.6093    -2.9510     1.9523 H       
  55 H55           -0.1934    -4.8464     0.0223 H       
  56 H56           -0.2031    -3.6954     3.7888 H       
  57 H57            1.2801    -5.6265     1.9466 H       
  58 H58           -1.6887    -5.4002     2.6279 H       
  59 H59            2.0873    -4.4050     4.5391 H       
  60 H60            2.7360    -3.8380     2.9816 H       
  61 H61            0.4742    -7.1788     3.5744 H       
  62 H62           -1.7904    -7.1383     0.9913 H       
  63 H63           -2.3900    -4.1651    -0.6285 H       
  64 H64            2.8558    -2.1468     4.6643 H       
@<TRIPOS>BOND
   1    1    2 1
   2    1    3 1
   3    1    4 1
   4    1    5 2
   5    2   22 1
   6    3    6 1
   7    4   37 1
   8    6    7 1
   9    6   38 1
  10    6   39 1
  11    7    8 1
  12    7   11 1
  13    7   40 1
  14    8    9 1
  15    8   12 1
  16    8   41 1
  17    9   10 1
  18    9   42 1
  19    9   43 1
  20   10   11 1
  21   10   13 1
  22   10   44 1
  23   12   45 1
  24   13   14 am
  25   13   15 1
  26   14   19 2
  27   14   18 am
  28   15   16 2
  29   15   46 1
  30   16   17 1
  31   16   20 1
  32   17   18 am
  33   17   21 2
  34   18   47 1
  35   20   48 1
  36   20   49 1
  37   20   50 1
  38   22   23 1
  39   22   24 1
  40   22   25 1
  41   22   51 1
  42   23   26 1
  43   24   52 1
  44   25   53 1
  45   26   27 1
  46   26   28 1
  47   26   54 1
  48   27   35 1
  49   27   31 1
  50   27   55 1
  51   28   29 1
  52   29   30 1
  53   29   32 1
  54   29   56 1
  55   30   31 1
  56   30   33 1
  57   30   57 1
  58   31   34 1
  59   31   58 1
  60   32   36 1
  61   32   59 1
  62   32   60 1
  63   33   61 1
  64   34   62 1
  65   35   63 1
  66   36   64 1

#	End of record

