#	Name: ASD10410072
#	Creating user name:	WinNT
#	Creation time:	15. 06. 2019 21:26

#	Modifying user name:	WinNT
#	Modification time:	15. 06. 2019 21:26

#	Program:	/corina/corina34_cracker 3.40 0067  02.08.2006

@<TRIPOS>MOLECULE
ASD10410072
  63   67    0    0    0
SMALL
NO_CHARGES


@<TRIPOS>ATOM
   1 C1             0.0267     1.0414     1.2178 C.ar    
   2 C2            -0.0322    -0.2113     0.6241 C.ar    
   3 C3             1.1419    -0.8826     0.2993 C.ar    
   4 C4             2.3665    -0.3012     0.5683 C.ar    
   5 C5             2.4237     0.9531     1.1628 C.ar    
   6 C6             1.2512     1.6222     1.4866 C.ar    
   7 F7             1.0853    -2.1025    -0.2785 F       
   8 N8             3.6643     1.5423     1.4360 N.pl3   
   9 C9             3.7956     2.9301     1.4192 C.2     
  10 N10            4.8748     3.5954     1.7542 N.2     
  11 N11            2.8420     3.7950     1.0531 N.2     
  12 C12            3.2962     5.0255     1.1542 C.2     
  13 N13            4.5820     4.9596     1.5953 N.pl3   
  14 C14            5.4345     6.0282     1.8392 C.ar    
  15 N15            2.5947     6.1784     0.8612 N.pl3   
  16 N16           -1.2743    -0.8003     0.3521 N.3     
  17 C17           -2.0521    -0.9820     1.5850 C.3     
  18 C18           -3.4648    -1.4568     1.2286 C.3     
  19 N19           -3.3554    -2.6533     0.3802 N.am    
  20 C20           -2.4825    -2.5907    -0.8019 C.3     
  21 C21           -1.1085    -2.0713    -0.3655 C.3     
  22 C22           -4.0372    -3.7771     0.6780 C.2     
  23 N23            5.0261     7.0791     2.5363 N.ar    
  24 C24            5.8277     8.1043     2.7761 C.ar    
  25 N25            7.0671     8.1561     2.3485 N.ar    
  26 C26            7.5816     7.1450     1.6333 C.ar    
  27 C27            6.7621     6.0216     1.3558 C.ar    
  28 C28            8.9004     7.1678     1.1621 C.ar    
  29 C29            9.3775     6.1116     0.4376 C.ar    
  30 C30            8.5636     5.0039     0.1586 C.ar    
  31 C31            7.2759     4.9521     0.6106 C.ar    
  32 O32           -3.8584    -4.7851     0.0277 O.2     
  33 C33           -5.0218    -3.7811     1.8188 C.3     
  34 O34            9.0641     3.9675    -0.5654 O.3     
  35 C35            8.1864     2.8681    -0.8167 C.3     
  36 O36           10.6568     6.1352    -0.0187 O.3     
  37 C37           11.4369     7.2901     0.2967 C.3     
  38 H38           -0.8850     1.5645     1.4659 H       
  39 H39            3.2786    -0.8219     0.3168 H       
  40 H40            1.2962     2.5974     1.9485 H       
  41 H41            4.4323     0.9849     1.6369 H       
  42 H42            1.6782     6.1221     0.5487 H       
  43 H43            3.0185     7.0443     0.9678 H       
  44 H44           -1.5661    -1.7269     2.2151 H       
  45 H45           -2.1111    -0.0346     2.1208 H       
  46 H46           -4.0093    -1.7028     2.1402 H       
  47 H47           -3.9895    -0.6702     0.6863 H       
  48 H48           -2.3776    -3.5864    -1.2327 H       
  49 H49           -2.9128    -1.9131    -1.5393 H       
  50 H50           -0.4832    -1.9138    -1.2444 H       
  51 H51           -0.6357    -2.8010     0.2917 H       
  52 H52            5.4446     8.9357     3.3491 H       
  53 H53            9.5367     8.0154     1.3699 H       
  54 H54            6.6565     4.0951     0.3909 H       
  55 H55           -5.1166    -2.7722     2.2205 H       
  56 H56           -5.9929    -4.1218     1.4595 H       
  57 H57           -4.6682    -4.4521     2.6016 H       
  58 H58            8.7093     2.1122    -1.4026 H       
  59 H59            7.8654     2.4355     0.1309 H       
  60 H60            7.3149     3.2181    -1.3700 H       
  61 H61           12.4356     7.1806    -0.1261 H       
  62 H62           10.9601     8.1762    -0.1224 H       
  63 H63           11.5101     7.3946     1.3792 H       
@<TRIPOS>BOND
   1    1    2 ar
   2    1    6 ar
   3    1   38 1
   4    2    3 ar
   5    2   16 1
   6    3    4 ar
   7    3    7 1
   8    4    5 ar
   9    4   39 1
  10    5    6 ar
  11    5    8 1
  12    6   40 1
  13    8    9 1
  14    8   41 1
  15    9   10 2
  16    9   11 1
  17   10   13 1
  18   11   12 2
  19   12   13 1
  20   12   15 1
  21   13   14 1
  22   14   23 ar
  23   14   27 ar
  24   15   42 1
  25   15   43 1
  26   16   17 1
  27   16   21 1
  28   17   18 1
  29   17   44 1
  30   17   45 1
  31   18   19 1
  32   18   46 1
  33   18   47 1
  34   19   20 1
  35   19   22 am
  36   20   21 1
  37   20   48 1
  38   20   49 1
  39   21   50 1
  40   21   51 1
  41   22   32 2
  42   22   33 1
  43   23   24 ar
  44   24   25 ar
  45   24   52 1
  46   25   26 ar
  47   26   27 ar
  48   26   28 ar
  49   27   31 ar
  50   28   29 ar
  51   28   53 1
  52   29   30 ar
  53   29   36 1
  54   30   31 ar
  55   30   34 1
  56   31   54 1
  57   33   55 1
  58   33   56 1
  59   33   57 1
  60   34   35 1
  61   35   58 1
  62   35   59 1
  63   35   60 1
  64   36   37 1
  65   37   61 1
  66   37   62 1
  67   37   63 1

#	End of record

