#	Name: ASD11990004
#	Creating user name:	WinNT
#	Creation time:	15. 06. 2019 21:29

#	Modifying user name:	WinNT
#	Modification time:	15. 06. 2019 21:29

#	Program:	/corina/corina34_cracker 3.40 0067  02.08.2006

@<TRIPOS>MOLECULE
ASD11990004
  32   33    0    0    0
SMALL
NO_CHARGES


@<TRIPOS>ATOM
   1 C1            -0.0167     1.3780     0.0096 C.ar    
   2 C2            -1.2251     2.0533     0.0190 C.ar    
   3 C3            -2.4140     1.3430     0.0208 C.ar    
   4 C4            -2.3927    -0.0385     0.0132 C.ar    
   5 C5            -1.1851    -0.7119     0.0043 C.ar    
   6 C6             0.0021    -0.0041     0.0020 C.ar    
   7 C7             1.3174    -0.7394    -0.0150 C.3     
   8 C8             1.6868    -1.0903    -1.4577 C.3     
   9 C9            -1.1633    -2.2187    -0.0035 C.3     
  10 C10           -1.0258    -2.7264     1.4087 C.2     
  11 O11           -2.3799    -2.7098    -0.5699 O.3     
  12 N12           -1.8567    -3.6016     2.0148 N.pl3   
  13 C13           -1.3819    -3.7983     3.2836 C.2     
  14 C14           -0.2781    -3.0371     3.4089 C.2     
  15 N15           -0.0810    -2.3975     2.2466 N.2     
  16 F16           -1.2447     3.4041     0.0269 F       
  17 C17            3.0222    -1.8369    -1.4750 C.3     
  18 H18            0.9111     1.9309     0.0037 H       
  19 H19           -3.3573     1.8688     0.0285 H       
  20 H20           -3.3198    -0.5926     0.0146 H       
  21 H21            2.0933    -0.1061     0.4150 H       
  22 H22            1.2296    -1.6547     0.5704 H       
  23 H23            0.9109    -1.7236    -1.8877 H       
  24 H24            1.7746    -0.1751    -2.0432 H       
  25 H25           -0.3191    -2.5668    -0.5986 H       
  26 H26           -3.1747    -2.4384    -0.0905 H       
  27 H27           -2.6431    -4.0137     1.6242 H       
  28 H28           -1.8104    -4.4403     4.0389 H       
  29 H29            0.3419    -2.9584     4.2897 H       
  30 H30            3.7981    -1.2036    -1.0450 H       
  31 H31            2.9344    -2.7521    -0.8896 H       
  32 H32            3.2854    -2.0869    -2.5028 H       
@<TRIPOS>BOND
   1    1    6 ar
   2    1   18 1
   3    1    2 ar
   4    2    3 ar
   5    2   16 1
   6    3    4 ar
   7    3   19 1
   8    4    5 ar
   9    4   20 1
  10    5    9 1
  11    5    6 ar
  12    6    7 1
  13    7   21 1
  14    7   22 1
  15    7    8 1
  16    8   17 1
  17    8   23 1
  18    8   24 1
  19    9   25 1
  20    9   10 1
  21    9   11 1
  22   10   15 2
  23   10   12 1
  24   11   26 1
  25   12   13 1
  26   12   27 1
  27   13   14 2
  28   13   28 1
  29   14   15 1
  30   14   29 1
  31   17   30 1
  32   17   31 1
  33   17   32 1

#	End of record

