#	Name: ASD13110027
#	Creating user name:	WinNT
#	Creation time:	15. 06. 2019 21:30

#	Modifying user name:	WinNT
#	Modification time:	15. 06. 2019 21:30

#	Program:	/corina/corina34_cracker 3.40 0067  02.08.2006

@<TRIPOS>MOLECULE
ASD13110027
  48   50    0    0    0
SMALL
NO_CHARGES


@<TRIPOS>ATOM
   1 C1            -0.0187     1.5258     0.0104 C.3     
   2 C2             0.0021    -0.0041     0.0020 C.3     
   3 C3             0.7421    -0.5109     1.2415 C.3     
   4 C4            -1.4333    -0.5336     0.0129 C.3     
   5 C5             0.7182    -0.4975    -1.2568 C.3     
   6 C6            -0.0150     0.0181    -2.4987 C.3     
   7 C7             0.5464    -0.6798    -3.7396 C.3     
   8 C8             2.0623    -0.5649    -3.7218 C.2     
   9 C9             2.7666    -0.2507    -2.6282 C.2     
  10 C10            2.1549     0.0316    -1.2693 C.3     
  11 S11            4.4857    -0.2104    -2.9839 S.3     
  12 C12            4.2401    -0.6205    -4.6179 C.2     
  13 N13            5.2514    -0.7709    -5.5526 N.am    
  14 C14            6.5367    -0.5892    -5.1900 C.2     
  15 O15            6.8085    -0.2935    -4.0431 O.2     
  16 C16            7.6177    -0.7499    -6.1893 C.ar    
  17 C17            7.3266    -1.0840    -7.5157 C.ar    
  18 C18            8.3659    -1.2235    -8.4148 C.ar    
  19 N19            9.6163    -1.0465    -8.0368 N.ar    
  20 C20            9.9345    -0.7310    -6.7971 C.ar    
  21 C21            8.9578    -0.5660    -5.8342 C.ar    
  22 C22            2.9082    -0.7812    -4.8812 C.2     
  23 C23            2.3860    -1.1378    -6.2040 C.2     
  24 N24            2.2295    -2.4336    -6.5398 N.am    
  25 O25            2.0939    -0.2636    -6.9988 O.2     
  26 H26            1.0039     1.9031     0.0027 H       
  27 H27           -0.5459     1.8868    -0.8726 H       
  28 H28           -0.5289     1.8773     0.9072 H       
  29 H29            0.2319    -0.1594     2.1383 H       
  30 H30            0.7568    -1.6008     1.2356 H       
  31 H31            1.7647    -0.1336     1.2338 H       
  32 H32           -1.9605    -0.1726    -0.8702 H       
  33 H33           -1.4185    -1.6235     0.0069 H       
  34 H34           -1.9435    -0.1821     0.9097 H       
  35 H35            0.7309    -1.5874    -1.2655 H       
  36 H36           -1.0795    -0.1984    -2.4093 H       
  37 H37            0.1324     1.0944    -2.5881 H       
  38 H38            0.2595    -1.7313    -3.7287 H       
  39 H39            0.1541    -0.2011    -4.6369 H       
  40 H40            2.1503     1.1062    -1.0867 H       
  41 H41            2.7360    -0.4703    -0.4956 H       
  42 H42            5.0345    -1.0069    -6.4682 H       
  43 H43            6.3045    -1.2312    -7.8322 H       
  44 H44            8.1512    -1.4813    -9.4413 H       
  45 H45           10.9725    -0.5955    -6.5316 H       
  46 H46            9.2254    -0.3033    -4.8214 H       
  47 H47            2.4623    -3.1304    -5.9063 H       
  48 H48            1.8840    -2.6695    -7.4149 H       
@<TRIPOS>BOND
   1    1    2 1
   2    1   26 1
   3    1   27 1
   4    1   28 1
   5    2    3 1
   6    2    4 1
   7    2    5 1
   8    3   29 1
   9    3   30 1
  10    3   31 1
  11    4   32 1
  12    4   33 1
  13    4   34 1
  14    5   10 1
  15    5    6 1
  16    5   35 1
  17    6    7 1
  18    6   36 1
  19    6   37 1
  20    7    8 1
  21    7   38 1
  22    7   39 1
  23    8   22 1
  24    8    9 2
  25    9   10 1
  26    9   11 1
  27   10   40 1
  28   10   41 1
  29   11   12 1
  30   12   13 1
  31   12   22 2
  32   13   14 am
  33   13   42 1
  34   14   15 2
  35   14   16 1
  36   16   21 ar
  37   16   17 ar
  38   17   18 ar
  39   17   43 1
  40   18   19 ar
  41   18   44 1
  42   19   20 ar
  43   20   21 ar
  44   20   45 1
  45   21   46 1
  46   22   23 1
  47   23   24 am
  48   23   25 2
  49   24   47 1
  50   24   48 1

#	End of record

