#	Name: ASD15280018
#	Creating user name:	WinNT
#	Creation time:	15. 06. 2019 21:31

#	Modifying user name:	WinNT
#	Modification time:	15. 06. 2019 21:31

#	Program:	/corina/corina34_cracker 3.40 0067  02.08.2006

@<TRIPOS>MOLECULE
ASD15280018
  51   55    0    0    0
SMALL
NO_CHARGES


@<TRIPOS>ATOM
   1 Cl1            0.0021    -0.0041     0.0020 Cl      
   2 C2            -0.0215     1.7317     0.0116 C.ar    
   3 C3            -1.2230     2.4041     0.0324 C.ar    
   4 C4            -1.2411     3.8019     0.0406 C.ar    
   5 C5            -0.0398     4.5165     0.0276 C.ar    
   6 C6             1.1608     3.8445     0.0068 C.ar    
   7 C7             1.1799     2.4476     0.0039 C.ar    
   8 C8             2.4690     1.7268    -0.0128 C.2     
   9 N9             2.6109     0.4317    -0.0272 N.2     
  10 C10            3.8374    -0.0342    -0.0413 C.2     
  11 C11            4.8105     0.8846    -0.0391 C.2     
  12 C12            6.2910     0.6037    -0.0539 C.3     
  13 N13            6.7598     0.5275    -1.4397 N.am    
  14 C14            8.0596     0.2832    -1.6990 C.2     
  15 O15            8.8429     0.1259    -0.7829 O.2     
  16 C16            8.5327     0.2063    -3.0978 C.ar    
  17 C17            7.6350     0.3925    -4.1503 C.ar    
  18 C18            8.0870     0.3253    -5.4524 C.ar    
  19 C19            9.4188     0.0696    -5.7170 C.ar    
  20 C20           10.3240    -0.1277    -4.6828 C.ar    
  21 N21           11.6572    -0.4101    -4.9168 N.am    
  22 C22           12.5215     0.1233    -5.7374 C.2     
  23 O23           13.6433    -0.3418    -5.6816 O.2     
  24 C24           12.3402     1.1979    -6.7151 C.ar    
  25 C25           13.3117     2.1996    -6.8320 C.ar    
  26 C26           13.1539     3.2121    -7.7534 C.ar    
  27 C27           12.0377     3.2471    -8.5698 C.ar    
  28 C28           11.0698     2.2630    -8.4616 C.ar    
  29 C29           11.2163     1.2492    -7.5415 C.ar    
  30 S30            9.9769     0.0033    -7.3904 S.o2    
  31 O31           10.6369    -1.2452    -7.5480 O.2     
  32 O32            8.8843     0.4189    -8.1984 O.2     
  33 C33            9.8753    -0.0461    -3.3665 C.ar    
  34 S34            4.0615     2.4801    -0.0240 S.3     
  35 C35           -2.4903     4.5017     0.0618 C.1     
  36 N36           -3.4813     5.0569     0.0786 N.1     
  37 H37           -2.1510     1.8518     0.0421 H       
  38 H38           -0.0539     5.5964     0.0335 H       
  39 H39            2.0886     4.3970    -0.0033 H       
  40 H40            4.0486    -1.0933    -0.0535 H       
  41 H41            6.8180     1.4047     0.4645 H       
  42 H42            6.4860    -0.3439     0.4482 H       
  43 H43            6.1347     0.6530    -2.1708 H       
  44 H44            6.5925     0.5876    -3.9467 H       
  45 H45            7.3959     0.4732    -6.2690 H       
  46 H46           12.0135    -1.1318    -4.3754 H       
  47 H47           14.1861     2.1789    -6.1985 H       
  48 H48           13.9058     3.9827    -7.8384 H       
  49 H49           11.9210     4.0422    -9.2913 H       
  50 H50           10.1985     2.2910    -9.0991 H       
  51 H51           10.5705    -0.1836    -2.5516 H       
@<TRIPOS>BOND
   1    1    2 1
   2    2    7 ar
   3    2    3 ar
   4    3    4 ar
   5    3   37 1
   6    4    5 ar
   7    4   35 1
   8    5    6 ar
   9    5   38 1
  10    6    7 ar
  11    6   39 1
  12    7    8 1
  13    8   34 1
  14    8    9 2
  15    9   10 1
  16   10   11 2
  17   10   40 1
  18   11   12 1
  19   11   34 1
  20   12   13 1
  21   12   41 1
  22   12   42 1
  23   13   14 am
  24   13   43 1
  25   14   15 2
  26   14   16 1
  27   16   33 ar
  28   16   17 ar
  29   17   18 ar
  30   17   44 1
  31   18   19 ar
  32   18   45 1
  33   19   30 1
  34   19   20 ar
  35   20   21 1
  36   20   33 ar
  37   21   22 am
  38   21   46 1
  39   22   23 2
  40   22   24 1
  41   24   29 ar
  42   24   25 ar
  43   25   26 ar
  44   25   47 1
  45   26   27 ar
  46   26   48 1
  47   27   28 ar
  48   27   49 1
  49   28   29 ar
  50   28   50 1
  51   29   30 1
  52   30   31 2
  53   30   32 2
  54   33   51 1
  55   35   36 3

#	End of record

