#	Name: ASD10420114
#	Creating user name:	WinNT
#	Creation time:	15. 06. 2019 21:27

#	Modifying user name:	WinNT
#	Modification time:	15. 06. 2019 21:27

#	Program:	/corina/corina34_cracker 3.40 0067  02.08.2006

@<TRIPOS>MOLECULE
ASD10420114
  84   89    0    0    0
SMALL
NO_CHARGES


@<TRIPOS>ATOM
   1 N1            -0.1864     0.2305    -0.6576 N.pl3   
   2 C2            -0.6089    -0.9973    -1.0923 C.2     
   3 C3            -2.0166    -0.9821    -1.1453 C.2     
   4 C4            -2.4336     0.2821    -0.7329 C.2     
   5 C5            -1.3003     1.0204    -0.4296 C.2     
   6 C6             1.1462     0.4909    -0.5135 C.2     
   7 C7             2.0717    -0.4481    -0.7944 C.2     
   8 C8             1.6736    -1.7235    -1.2443 C.2     
   9 C9             0.3258    -1.9954    -1.3929 C.2     
  10 C10           -1.2842     2.3586     0.0277 C.2     
  11 O11           -1.3095     2.5943     1.2228 O.2     
  12 C12           -3.8595     0.7590    -0.6305 C.3     
  13 C13           -4.3859     0.4755     0.7528 C.ar    
  14 C14           -4.5609     1.5114     1.6510 C.ar    
  15 C15           -4.6988    -0.8195     1.1210 C.ar    
  16 C16           -5.1818    -1.0811     2.3898 C.ar    
  17 C17           -5.3528    -0.0478     3.2912 C.ar    
  18 C18           -2.8911    -2.1017    -1.5620 C.ar    
  19 C19           -2.9371    -3.2735    -0.8061 C.ar    
  20 C20           -3.7544    -4.3130    -1.1994 C.ar    
  21 C21           -4.5274    -4.1953    -2.3409 C.ar    
  22 C22           -4.4863    -3.0359    -3.0948 C.ar    
  23 C23           -3.6771    -1.9872    -2.7091 C.ar    
  24 C24           -4.2260     2.9241     1.2471 C.3     
  25 C25           -5.0445     1.2507     2.9217 C.ar    
  26 F26           -5.2109     2.2617     3.8023 F       
  27 N27            2.6235    -2.6948    -1.5358 N.pl3   
  28 C28            4.0800    -2.5308    -1.4206 C.3     
  29 C29            4.7275    -3.8566    -1.8728 C.3     
  30 C30            3.6242    -4.4994    -2.7541 C.3     
  31 C31            2.3375    -4.0626    -2.0058 C.3     
  32 N32           -1.2408     3.3731    -0.8585 N.am    
  33 C33           -1.3393     4.7708    -0.4112 C.3     
  34 C34           -0.1751     5.5598    -1.0198 C.3     
  35 N35           -0.1697     5.3727    -2.4769 N.3     
  36 C36            0.0607     3.9662    -2.8327 C.3     
  37 C37           -1.0877     3.1122    -2.2978 C.3     
  38 C38           -0.3413     7.0460    -0.6965 C.3     
  39 C39            0.8642     7.8049    -1.1883 C.2     
  40 N40            0.9387     9.1390    -1.0119 N.am    
  41 O41            1.7674     7.2151    -1.7428 O.2     
  42 C42            2.1107     9.8767    -1.4899 C.3     
  43 C43            1.9445    11.3629    -1.1666 C.3     
  44 C44            3.1220    12.1042    -1.6470 C.1     
  45 N45            4.0308    12.6763    -2.0176 N.1     
  46 H46            1.4637     1.4642    -0.1696 H       
  47 H47            3.1211    -0.2227    -0.6749 H       
  48 H48           -0.0016    -2.9656    -1.7361 H       
  49 H49           -3.8985     1.8314    -0.8215 H       
  50 H50           -4.4710     0.2364    -1.3661 H       
  51 H51           -4.5661    -1.6276     0.4169 H       
  52 H52           -5.4260    -2.0933     2.6764 H       
  53 H53           -5.7308    -0.2523     4.2820 H       
  54 H54           -2.3338    -3.3667     0.0849 H       
  55 H55           -3.7906    -5.2208    -0.6154 H       
  56 H56           -5.1654    -5.0121    -2.6448 H       
  57 H57           -5.0921    -2.9501    -3.9848 H       
  58 H58           -3.6459    -1.0827    -3.2985 H       
  59 H59           -5.0776     3.3655     0.7293 H       
  60 H60           -3.9970     3.5116     2.1361 H       
  61 H61           -3.3612     2.9169     0.5836 H       
  62 H62            4.4134    -1.7169    -2.0644 H       
  63 H63            4.3486    -2.3212    -0.3852 H       
  64 H64            5.6269    -3.6664    -2.4585 H       
  65 H65            4.9520    -4.4888    -1.0137 H       
  66 H66            3.6478    -4.0953    -3.7662 H       
  67 H67            3.7173    -5.5854    -2.7664 H       
  68 H68            2.1456    -4.7221    -1.1594 H       
  69 H69            1.4859    -4.0596    -2.6861 H       
  70 H70           -2.2851     5.1967    -0.7463 H       
  71 H71           -1.2808     4.8122     0.6764 H       
  72 H72            0.7655     5.1995    -0.6034 H       
  73 H73           -1.0252     5.7144    -2.8885 H       
  74 H74            0.1133     3.8693    -3.9171 H       
  75 H75            0.9980     3.6281    -2.3910 H       
  76 H76           -0.8629     2.0575    -2.4569 H       
  77 H77           -2.0088     3.3756    -2.8177 H       
  78 H78           -1.2361     7.4270    -1.1886 H       
  79 H79           -0.4368     7.1748     0.3816 H       
  80 H80            0.2164     9.6107    -0.5684 H       
  81 H81            3.0055     9.4957    -0.9978 H       
  82 H82            2.2061     9.7479    -2.5681 H       
  83 H83            1.0497    11.7440    -1.6587 H       
  84 H84            1.8490    11.4917    -0.0885 H       
@<TRIPOS>BOND
   1    1    2 1
   2    1    6 1
   3    1    5 1
   4    2    3 2
   5    2    9 1
   6    3    4 1
   7    3   18 1
   8    4    5 2
   9    4   12 1
  10    5   10 1
  11    6    7 2
  12    6   46 1
  13    7    8 1
  14    7   47 1
  15    8    9 2
  16    8   27 1
  17    9   48 1
  18   10   11 2
  19   10   32 am
  20   12   13 1
  21   12   49 1
  22   12   50 1
  23   13   14 ar
  24   13   15 ar
  25   14   24 1
  26   14   25 ar
  27   15   16 ar
  28   15   51 1
  29   16   17 ar
  30   16   52 1
  31   17   25 ar
  32   17   53 1
  33   18   19 ar
  34   18   23 ar
  35   19   20 ar
  36   19   54 1
  37   20   21 ar
  38   20   55 1
  39   21   22 ar
  40   21   56 1
  41   22   23 ar
  42   22   57 1
  43   23   58 1
  44   24   59 1
  45   24   60 1
  46   24   61 1
  47   25   26 1
  48   27   28 1
  49   27   31 1
  50   28   29 1
  51   28   62 1
  52   28   63 1
  53   29   30 1
  54   29   64 1
  55   29   65 1
  56   30   31 1
  57   30   66 1
  58   30   67 1
  59   31   68 1
  60   31   69 1
  61   32   33 1
  62   32   37 1
  63   33   34 1
  64   33   70 1
  65   33   71 1
  66   34   35 1
  67   34   38 1
  68   34   72 1
  69   35   36 1
  70   35   73 1
  71   36   37 1
  72   36   74 1
  73   36   75 1
  74   37   76 1
  75   37   77 1
  76   38   39 1
  77   38   78 1
  78   38   79 1
  79   39   40 am
  80   39   41 2
  81   40   42 1
  82   40   80 1
  83   42   43 1
  84   42   81 1
  85   42   82 1
  86   43   44 1
  87   43   83 1
  88   43   84 1
  89   44   45 3

#	End of record

