#	Name: ASD14940001
#	Creating user name:	WinNT
#	Creation time:	15. 06. 2019 21:31

#	Modifying user name:	WinNT
#	Modification time:	15. 06. 2019 21:31

#	Program:	/corina/corina34_cracker 3.40 0067  02.08.2006

@<TRIPOS>MOLECULE
ASD14940001
  42   45    0    0    0
SMALL
NO_CHARGES


@<TRIPOS>ATOM
   1 S1             0.4208     1.4218    -0.4497 S.o2    
   2 O2            -3.4295     3.5787    -3.3168 O.3     
   3 O3             0.4227     0.0014    -0.4102 O.2     
   4 O4             1.5097     2.1870    -0.9476 O.2     
   5 N5            -0.9056     1.8632    -1.3375 N.am    
   6 C6            -1.2093     3.2812    -1.5451 C.3     
   7 C7            -1.0651     3.6111    -3.0060 C.ar    
   8 C8            -2.6112     3.5616    -1.0766 C.ar    
   9 C9            -2.1811     3.7429    -3.8163 C.ar    
  10 C10           -3.6486     3.6960    -1.9851 C.ar    
  11 C11           -2.8611     3.6872     0.2782 C.ar    
  12 C12            0.1990     3.7851    -3.5404 C.ar    
  13 C13            0.1459     1.9651     1.2038 C.ar    
  14 C14           -4.9358     3.9547    -1.5288 C.ar    
  15 C15           -2.0233     4.0479    -5.1633 C.ar    
  16 C16            0.3524     4.0886    -4.8799 C.ar    
  17 C17           -4.1419     3.9453     0.7285 C.ar    
  18 C18           -5.1793     4.0790    -0.1755 C.ar    
  19 C19           -0.7593     4.2199    -5.6912 C.ar    
  20 C20           -0.5799     1.1781     2.0783 C.ar    
  21 C21            0.6609     3.1757     1.6282 C.ar    
  22 C22           -0.2850     2.8173     3.7983 C.ar    
  23 C23           -0.7955     1.6043     3.3755 C.ar    
  24 C24            0.4453     3.6019     2.9254 C.ar    
  25 C25           -0.5205     3.2822     5.2124 C.3     
  26 H26           -0.5098     3.8869    -0.9690 H       
  27 H27           -1.4814     1.1828    -1.7201 H       
  28 H28            1.0690     3.6838    -2.9085 H       
  29 H29           -2.0523     3.5837     0.9865 H       
  30 H30           -2.8911     4.1502    -5.7981 H       
  31 H31           -5.7470     4.0591    -2.2342 H       
  32 H32            1.3411     4.2239    -5.2929 H       
  33 H33           -4.3325     4.0425     1.7871 H       
  34 H34           -0.6389     4.4567    -6.7381 H       
  35 H35           -6.1800     4.2809     0.1769 H       
  36 H36           -0.9787     0.2303     1.7479 H       
  37 H37            1.2320     3.7884     0.9464 H       
  38 H38           -1.3632     0.9897     4.0585 H       
  39 H39            0.8479     4.5476     3.2571 H       
  40 H40            0.2878     2.9263     5.8512 H       
  41 H41           -0.5500     4.3715     5.2365 H       
  42 H42           -1.4697     2.8850     5.5721 H       
@<TRIPOS>BOND
   1    1    3 2
   2    1    4 2
   3    1    5 am
   4    1   13 1
   5    2    9 1
   6    2   10 1
   7    5    6 1
   8    5   27 1
   9    6    7 1
  10    6    8 1
  11    6   26 1
  12    7    9 ar
  13    7   12 ar
  14    8   10 ar
  15    8   11 ar
  16    9   15 ar
  17   10   14 ar
  18   11   17 ar
  19   11   29 1
  20   12   16 ar
  21   12   28 1
  22   13   20 ar
  23   13   21 ar
  24   14   18 ar
  25   14   31 1
  26   15   19 ar
  27   15   30 1
  28   16   19 ar
  29   16   32 1
  30   17   18 ar
  31   17   33 1
  32   18   35 1
  33   19   34 1
  34   20   23 ar
  35   20   36 1
  36   21   24 ar
  37   21   37 1
  38   22   23 ar
  39   22   24 ar
  40   22   25 1
  41   23   38 1
  42   24   39 1
  43   25   40 1
  44   25   41 1
  45   25   42 1

#	End of record

