#	Name: ASD10220016
#	Creating user name:	WinNT
#	Creation time:	15. 06. 2019 21:26

#	Modifying user name:	WinNT
#	Modification time:	15. 06. 2019 21:26

#	Program:	/corina/corina34_cracker 3.40 0067  02.08.2006

@<TRIPOS>MOLECULE
ASD10220016
  31   33    0    0    0
SMALL
NO_CHARGES


@<TRIPOS>ATOM
   1 C1            -0.0063     1.4628    -0.1713 C.2     
   2 C2             0.0236     0.0552    -0.3199 C.2     
   3 C3            -1.1115    -0.6716    -0.3767 C.2     
   4 C4            -2.4336    -0.0559    -0.2891 C.2     
   5 C5            -2.5493     1.3178    -0.1426 C.2     
   6 C6            -1.3376     2.1501    -0.0696 C.2     
   7 O7            -3.6757    -0.5756    -0.3218 O.3     
   8 C8            -4.6061     0.3738    -0.2056 C.2     
   9 C9            -3.9869     1.6013    -0.0874 C.2     
  10 O10           -1.4121     3.3540     0.0589 O.2     
  11 O11            1.0256     2.1019    -0.1219 O.2     
  12 C12           -4.6330     2.9172     0.0632 C.2     
  13 O13           -3.9563     3.9074     0.2666 O.2     
  14 C14           -6.1008     3.0338    -0.0329 C.ar    
  15 C15           -6.7706     4.0460     0.6613 C.ar    
  16 C16           -8.1401     4.1511     0.5690 C.ar    
  17 C17           -8.8572     3.2526    -0.2131 C.ar    
  18 C18           -8.1951     2.2443    -0.9046 C.ar    
  19 C19           -6.8252     2.1359    -0.8228 C.ar    
  20 O20          -10.2070     3.3598    -0.3014 O.3     
  21 C21          -10.8814     2.4040    -1.1221 C.3     
  22 H22            0.9766    -0.4480    -0.3897 H       
  23 H23           -1.0406    -1.7432    -0.4911 H       
  24 H24           -5.6733     0.2080    -0.2045 H       
  25 H25           -6.2144     4.7441     1.2693 H       
  26 H26           -8.6583     4.9324     1.1051 H       
  27 H27           -8.7559     1.5482    -1.5107 H       
  28 H28           -6.3117     1.3524    -1.3602 H       
  29 H29          -10.5140     2.4803    -2.1455 H       
  30 H30          -10.6915     1.4002    -0.7419 H       
  31 H31          -11.9531     2.6022    -1.1051 H       
@<TRIPOS>BOND
   1    1    2 1
   2    1   11 2
   3    1    6 1
   4    2    3 2
   5    2   22 1
   6    3    4 1
   7    3   23 1
   8    4    5 2
   9    4    7 1
  10    5    6 1
  11    5    9 1
  12    6   10 2
  13    7    8 1
  14    8    9 2
  15    8   24 1
  16    9   12 1
  17   12   13 2
  18   12   14 1
  19   14   15 ar
  20   14   19 ar
  21   15   16 ar
  22   15   25 1
  23   16   17 ar
  24   16   26 1
  25   17   18 ar
  26   17   20 1
  27   18   19 ar
  28   18   27 1
  29   19   28 1
  30   20   21 1
  31   21   29 1
  32   21   30 1
  33   21   31 1

#	End of record

