#	Name: ASD10160454
#	Creating user name:	WinNT
#	Creation time:	15. 06. 2019 21:26

#	Modifying user name:	WinNT
#	Modification time:	15. 06. 2019 21:26

#	Program:	/corina/corina34_cracker 3.40 0067  02.08.2006

@<TRIPOS>MOLECULE
ASD10160454
  32   34    0    0    0
SMALL
NO_CHARGES


@<TRIPOS>ATOM
   1 C1            -0.0250     1.4695    -0.1119 C.2     
   2 C2            -0.0030    -0.0046    -0.0884 C.ar    
   3 C3             0.0529    -0.6865     1.1329 C.ar    
   4 C4             0.0734    -2.0666     1.1497 C.ar    
   5 C5             0.0386    -2.7779    -0.0423 C.ar    
   6 C6            -0.0171    -2.1032    -1.2593 C.ar    
   7 C7            -0.0437    -0.7257    -1.2857 C.ar    
   8 O8             0.0054     2.0947     0.9306 O.2     
   9 N9            -0.0733     2.1240    -1.2891 N.am    
  10 F10           -0.0508    -2.8005    -2.4160 F       
  11 F11            0.0873     0.0049     2.2930 F       
  12 O12            0.0593    -4.1349    -0.0213 O.3     
  13 N13            0.2564    -6.9057     0.1562 N.ar    
  14 C14            0.3292    -8.2118     0.2426 C.ar    
  15 C15            1.5422    -8.8872     0.1256 C.ar    
  16 C16            2.6952    -8.1860    -0.0846 C.ar    
  17 C17            2.6126    -6.7837    -0.1767 C.ar    
  18 C18            3.7569    -5.9976    -0.3925 C.ar    
  19 C19            3.6427    -4.6421    -0.4773 C.ar    
  20 C20            2.4041    -4.0193    -0.3530 C.ar    
  21 C21            1.2613    -4.7562    -0.1411 C.ar    
  22 C22            1.3467    -6.1612    -0.0487 C.ar    
  23 Cl23           5.3129    -6.7510    -0.5502 Cl      
  24 H24            0.1169    -2.5939     2.0912 H       
  25 H25           -0.0918    -0.2038    -2.2299 H       
  26 H26           -0.0936     1.6253    -2.1208 H       
  27 H27           -0.0878     3.0938    -1.3046 H       
  28 H28           -0.5746    -8.7790     0.4090 H       
  29 H29            1.5707    -9.9641     0.2015 H       
  30 H30            3.6442    -8.6933    -0.1773 H       
  31 H31            4.5257    -4.0427    -0.6429 H       
  32 H32            2.3390    -2.9436    -0.4235 H       
@<TRIPOS>BOND
   1    1    2 1
   2    1    8 2
   3    1    9 am
   4    2    3 ar
   5    2    7 ar
   6    3    4 ar
   7    3   11 1
   8    4    5 ar
   9    4   24 1
  10    5    6 ar
  11    5   12 1
  12    6    7 ar
  13    6   10 1
  14    7   25 1
  15    9   26 1
  16    9   27 1
  17   12   21 1
  18   13   14 ar
  19   13   22 ar
  20   14   15 ar
  21   14   28 1
  22   15   16 ar
  23   15   29 1
  24   16   17 ar
  25   16   30 1
  26   17   18 ar
  27   17   22 ar
  28   18   19 ar
  29   18   23 1
  30   19   20 ar
  31   19   31 1
  32   20   21 ar
  33   20   32 1
  34   21   22 ar

#	End of record

