#	Name: ASD10160459
#	Creating user name:	WinNT
#	Creation time:	15. 06. 2019 21:26

#	Modifying user name:	WinNT
#	Modification time:	15. 06. 2019 21:26

#	Program:	/corina/corina34_cracker 3.40 0067  02.08.2006

@<TRIPOS>MOLECULE
ASD10160459
  33   34    0    0    0
SMALL
NO_CHARGES


@<TRIPOS>ATOM
   1 C1             4.5109     8.5889     0.8719 C.1     
   2 C2             3.3300     7.8080     0.6562 C.ar    
   3 C3             2.7080     7.1666     1.7310 C.ar    
   4 C4             1.5726     6.4165     1.5192 C.ar    
   5 C5             1.0454     6.2966     0.2387 C.ar    
   6 C6             1.6609     6.9328    -0.8329 C.ar    
   7 C7             2.7931     7.6899    -0.6288 C.ar    
   8 N8             5.4476     9.2083     1.0431 N.1     
   9 O9            -0.0733     5.5556     0.0341 O.3     
  10 C10           -2.4530     5.4432     0.0623 C.ar    
  11 C11           -1.2787     6.1732     0.1540 C.ar    
  12 C12           -1.3484     7.5466     0.3709 C.ar    
  13 C13           -2.5974     8.1330     0.4873 C.ar    
  14 C14           -3.7315     7.3366     0.3844 C.ar    
  15 N15           -3.6267     6.0349     0.1781 N.ar    
  16 O16           -4.9610     7.9015     0.4970 O.3     
  17 C17           -6.0881     7.0306     0.3822 C.3     
  18 C18           -6.4626     6.4962     1.7661 C.3     
  19 C19           -7.2718     7.8028    -0.2037 C.3     
  20 Cl20          -2.7446     9.8414     0.7588 Cl      
  21 H21            3.1174     7.2588     2.7261 H       
  22 H22            1.0913     5.9206     2.3492 H       
  23 H23            1.2483     6.8368    -1.8263 H       
  24 H24            3.2682     8.1876    -1.4612 H       
  25 H25           -2.4071     4.3780    -0.1103 H       
  26 H26           -0.4496     8.1405     0.4470 H       
  27 H27           -5.8377     6.1968    -0.2737 H       
  28 H28           -5.6193     5.9460     2.1835 H       
  29 H29           -6.7130     7.3299     2.4220 H       
  30 H30           -7.3223     5.8318     1.6786 H       
  31 H31           -7.0050     8.1836    -1.1896 H       
  32 H32           -8.1315     7.1385    -0.2912 H       
  33 H33           -7.5222     8.6366     0.4522 H       
@<TRIPOS>BOND
   1    1    2 1
   2    1    8 3
   3    2    3 ar
   4    2    7 ar
   5    3    4 ar
   6    3   21 1
   7    4    5 ar
   8    4   22 1
   9    5    6 ar
  10    5    9 1
  11    6    7 ar
  12    6   23 1
  13    7   24 1
  14    9   11 1
  15   10   11 ar
  16   10   15 ar
  17   10   25 1
  18   11   12 ar
  19   12   13 ar
  20   12   26 1
  21   13   14 ar
  22   13   20 1
  23   14   15 ar
  24   14   16 1
  25   16   17 1
  26   17   18 1
  27   17   19 1
  28   17   27 1
  29   18   28 1
  30   18   29 1
  31   18   30 1
  32   19   31 1
  33   19   32 1
  34   19   33 1

#	End of record

