#	Name: ASD11360004
#	Creating user name:	WinNT
#	Creation time:	15. 06. 2019 21:29

#	Modifying user name:	WinNT
#	Modification time:	15. 06. 2019 21:29

#	Program:	/corina/corina34_cracker 3.40 0067  02.08.2006

@<TRIPOS>MOLECULE
ASD11360004
  53   57    0    0    0
SMALL
NO_CHARGES


@<TRIPOS>ATOM
   1 C1             0.0529     1.2363     0.2630 C.3     
   2 C2             0.4540    -0.0217     1.0432 C.3     
   3 N3             1.4658    -0.7528     0.2675 N.am    
   4 C4             2.6870    -0.0475    -0.1462 C.3     
   5 C5             2.2858     1.2105    -0.9265 C.3     
   6 N6             1.2740     1.9416    -0.1507 N.am    
   7 C7            -0.7763     2.1349     1.1439 C.ar    
   8 C8            -1.9513     2.6814     0.6624 C.ar    
   9 C9            -2.7122     3.5056     1.4699 C.ar    
  10 C10           -2.2978     3.7836     2.7602 C.ar    
  11 C11           -1.1218     3.2364     3.2415 C.ar    
  12 C12           -0.3646     2.4078     2.4350 C.ar    
  13 C13            1.4625     3.2357     0.1750 C.2     
  14 O14            0.6639     3.8040     0.8940 O.2     
  15 C15            2.6401     3.9640    -0.3420 C.ar    
  16 C16            1.2774    -2.0469    -0.0582 C.2     
  17 C17            0.1051    -2.7667     0.4475 C.2     
  18 O18            2.0807    -2.6179    -0.7724 O.2     
  19 C19           -0.3153    -2.8469     1.7863 C.2     
  20 N20           -1.3993    -3.5757     1.8432 N.2     
  21 N21           -1.7433    -4.0075     0.5565 N.pl3   
  22 Cl22          -3.2527     4.8192     3.7748 Cl      
  23 C23            3.2671     3.5398    -1.5150 C.ar    
  24 C24            3.1266     5.0822     0.3376 C.ar    
  25 C25            4.2258     5.7576    -0.1497 C.ar    
  26 C26            4.8466     5.3288    -1.3109 C.ar    
  27 C27            4.3655     4.2235    -1.9924 C.ar    
  28 Br28           6.3529     6.2609    -1.9727 Br      
  29 C29           -0.8200    -3.5058    -0.3157 C.2     
  30 C30           -2.7700    -4.7765     0.0969 C.2     
  31 C31           -2.8855    -5.0581    -1.2211 C.2     
  32 C32           -1.9464    -4.5603    -2.1357 C.2     
  33 C33           -0.9233    -3.7774    -1.6861 C.2     
  34 Br34          -4.3194    -6.1284    -1.8328 Br      
  35 H35           -0.5220     0.9523    -0.6185 H       
  36 H36            0.8699     0.2641     2.0094 H       
  37 H37           -0.4209    -0.6547     1.1916 H       
  38 H38            3.2618     0.2366     0.7353 H       
  39 H39            3.2867    -0.6974    -0.7834 H       
  40 H40            3.1608     1.8435    -1.0748 H       
  41 H41            1.8700     0.9247    -1.8926 H       
  42 H42           -2.2746     2.4645    -0.3450 H       
  43 H43           -3.6300     3.9327     1.0935 H       
  44 H44           -0.7978     3.4531     4.2487 H       
  45 H45            0.5512     1.9770     2.8121 H       
  46 H46            0.1763    -2.3835     2.6289 H       
  47 H47            2.8928     2.6779    -2.0474 H       
  48 H48            2.6428     5.4180     1.2430 H       
  49 H49            4.6030     6.6228     0.3751 H       
  50 H50            4.8514     3.8963    -2.8998 H       
  51 H51           -3.4990    -5.1657     0.7923 H       
  52 H52           -2.0382    -4.7857    -3.1879 H       
  53 H53           -0.1927    -3.3837    -2.3773 H       
@<TRIPOS>BOND
   1    1    2 1
   2    1    6 1
   3    1    7 1
   4    1   35 1
   5    2    3 1
   6    2   36 1
   7    2   37 1
   8    3    4 1
   9    3   16 am
  10    4    5 1
  11    4   38 1
  12    4   39 1
  13    5    6 1
  14    5   40 1
  15    5   41 1
  16    6   13 am
  17    7    8 ar
  18    7   12 ar
  19    8    9 ar
  20    8   42 1
  21    9   10 ar
  22    9   43 1
  23   10   11 ar
  24   10   22 1
  25   11   12 ar
  26   11   44 1
  27   12   45 1
  28   13   14 2
  29   13   15 1
  30   15   24 ar
  31   15   23 ar
  32   16   17 1
  33   16   18 2
  34   17   19 1
  35   17   29 2
  36   19   20 2
  37   19   46 1
  38   20   21 1
  39   21   30 1
  40   21   29 1
  41   23   27 ar
  42   23   47 1
  43   24   25 ar
  44   24   48 1
  45   25   26 ar
  46   25   49 1
  47   26   27 ar
  48   26   28 1
  49   27   50 1
  50   29   33 1
  51   30   31 2
  52   30   51 1
  53   31   32 1
  54   31   34 1
  55   32   33 2
  56   32   52 1
  57   33   53 1

#	End of record

