#	Name: ASD10160470
#	Creating user name:	WinNT
#	Creation time:	15. 06. 2019 21:26

#	Modifying user name:	WinNT
#	Modification time:	15. 06. 2019 21:26

#	Program:	/corina/corina34_cracker 3.40 0067  02.08.2006

@<TRIPOS>MOLECULE
ASD10160470
  35   36    0    0    0
SMALL
NO_CHARGES


@<TRIPOS>ATOM
   1 C1             0.2755    -0.3684    -0.0117 C.1     
   2 C2             0.7223     0.2541     1.1980 C.ar    
   3 C3             1.7763     1.1828     1.1653 C.ar    
   4 C4             2.2087     1.7861     2.3400 C.ar    
   5 C5             1.6084     1.4788     3.5393 C.ar    
   6 C6             0.5558     0.5539     3.5851 C.ar    
   7 C7             0.1102    -0.0542     2.4091 C.ar    
   8 N8            -0.0789    -0.8623    -0.9714 N.1     
   9 C9            -0.0813     0.2283     4.8680 C.2     
  10 O10            0.3033     0.7597     5.8882 O.2     
  11 O11            2.3716     1.4898    -0.0121 O.3     
  12 C12            3.3042     3.6799    -0.1125 C.ar    
  13 C13            3.4568     2.3085     0.0156 C.ar    
  14 C14            4.7348     1.7794     0.1736 C.ar    
  15 C15            5.8107     2.6508     0.1966 C.ar    
  16 C16            5.5803     4.0146     0.0621 C.ar    
  17 N17            4.3522     4.4812    -0.0857 N.ar    
  18 O18            6.6282     4.8777     0.0833 O.3     
  19 C19            6.3271     6.2673    -0.0596 C.3     
  20 C20            7.3721     7.0954     0.6909 C.3     
  21 C21            6.3472     6.6436    -1.5425 C.3     
  22 Cl22           7.4268     2.0473     0.3915 Cl      
  23 H23            3.0196     2.4989     2.3116 H       
  24 H24            1.9495     1.9514     4.4486 H       
  25 H25           -0.7034    -0.7638     2.4403 H       
  26 H26           -0.8921    -0.4843     4.9028 H       
  27 H27            2.3164     4.0973    -0.2399 H       
  28 H28            4.8836     0.7146     0.2762 H       
  29 H29            5.3387     6.4692     0.3532 H       
  30 H30            8.3605     6.8934     0.2781 H       
  31 H31            7.1425     8.1553     0.5819 H       
  32 H32            7.3579     6.8273     1.7473 H       
  33 H33            7.3356     6.4417    -1.9552 H       
  34 H34            5.6027     6.0537    -2.0771 H       
  35 H35            6.1175     7.7036    -1.6515 H       
@<TRIPOS>BOND
   1    1    2 1
   2    1    8 3
   3    2    3 ar
   4    2    7 ar
   5    3    4 ar
   6    3   11 1
   7    4    5 ar
   8    4   23 1
   9    5    6 ar
  10    5   24 1
  11    6    7 ar
  12    6    9 1
  13    7   25 1
  14    9   10 2
  15    9   26 1
  16   11   13 1
  17   12   13 ar
  18   12   17 ar
  19   12   27 1
  20   13   14 ar
  21   14   15 ar
  22   14   28 1
  23   15   16 ar
  24   15   22 1
  25   16   17 ar
  26   16   18 1
  27   18   19 1
  28   19   20 1
  29   19   21 1
  30   19   29 1
  31   20   30 1
  32   20   31 1
  33   20   32 1
  34   21   33 1
  35   21   34 1
  36   21   35 1

#	End of record

