#	Name: ASD13110075
#	Creating user name:	WinNT
#	Creation time:	15. 06. 2019 21:30

#	Modifying user name:	WinNT
#	Modification time:	15. 06. 2019 21:30

#	Program:	/corina/corina34_cracker 3.40 0067  02.08.2006

@<TRIPOS>MOLECULE
ASD13110075
  40   43    0    0    0
SMALL
NO_CHARGES


@<TRIPOS>ATOM
   1 C1            -0.0167     1.3821     0.0096 C.ar    
   2 C2             0.0021    -0.0041     0.0020 C.ar    
   3 C3             1.2286    -0.6859    -0.0134 C.ar    
   4 C4             2.4216     0.0380    -0.0211 C.ar    
   5 C5             2.3850     1.4158    -0.0137 C.ar    
   6 C6             1.1697     2.0857     0.0021 C.ar    
   7 N7             0.9330    -2.0140    -0.0169 N.2     
   8 C8            -0.3583    -2.1555    -0.0049 C.2     
   9 O9            -0.9582    -0.9548     0.0068 O.3     
  10 C10           -1.0797    -3.4787    -0.0051 C.3     
  11 N11           -1.2997    -3.9150     1.3760 N.am    
  12 C12           -2.5237    -3.5259     2.0809 C.3     
  13 C13           -0.3763    -4.6744     1.9981 C.2     
  14 O14            0.6370    -4.9965     1.4146 O.2     
  15 C15           -0.6026    -5.1232     3.4188 C.3     
  16 N16            0.5366    -5.9298     3.8635 N.am    
  17 C17            1.6263    -5.3357     4.4744 C.ar    
  18 C18            2.6367    -6.2242     4.8453 C.ar    
  19 S19            2.0803    -7.8306     4.3562 S.3     
  20 C20            0.5420    -7.2553     3.6923 C.2     
  21 C21            3.7923    -5.7875     5.4669 C.ar    
  22 C22            3.9657    -4.4430     5.7339 C.ar    
  23 C23            2.9750    -3.5444     5.3740 C.ar    
  24 C24            1.8232    -3.9754     4.7556 C.ar    
  25 O25           -0.3327    -7.9305     3.1818 O.2     
  26 Cl26           3.1879    -1.8542     5.7080 Cl      
  27 Cl27           3.8678     2.3185    -0.0233 Cl      
  28 H28           -0.9588     1.9102     0.0170 H       
  29 H29            3.3697    -0.4792    -0.0326 H       
  30 H30            1.1527     3.1656     0.0081 H       
  31 H31           -2.0400    -3.3689    -0.5088 H       
  32 H32           -0.4773    -4.2208    -0.5289 H       
  33 H33           -3.2944    -4.2782     1.9131 H       
  34 H34           -2.3187    -3.4476     3.1486 H       
  35 H35           -2.8685    -2.5625     1.7055 H       
  36 H36           -0.7038    -4.2504     4.0638 H       
  37 H37           -1.5129    -5.7206     3.4704 H       
  38 H38            4.5584    -6.4967     5.7436 H       
  39 H39            4.8657    -4.0957     6.2194 H       
  40 H40            1.0631    -3.2582     4.4828 H       
@<TRIPOS>BOND
   1    1    2 ar
   2    1    6 ar
   3    1   28 1
   4    2    9 1
   5    2    3 ar
   6    3    4 ar
   7    3    7 1
   8    4    5 ar
   9    4   29 1
  10    5    6 ar
  11    5   27 1
  12    6   30 1
  13    7    8 2
  14    8   10 1
  15    8    9 1
  16   10   11 1
  17   10   31 1
  18   10   32 1
  19   11   12 1
  20   11   13 am
  21   12   33 1
  22   12   34 1
  23   12   35 1
  24   13   14 2
  25   13   15 1
  26   15   16 1
  27   15   36 1
  28   15   37 1
  29   16   17 1
  30   16   20 am
  31   17   24 ar
  32   17   18 ar
  33   18   19 1
  34   18   21 ar
  35   19   20 1
  36   20   25 2
  37   21   22 ar
  38   21   38 1
  39   22   23 ar
  40   22   39 1
  41   23   24 ar
  42   23   26 1
  43   24   40 1

#	End of record

