#	Name: ASD10160104
#	Creating user name:	WinNT
#	Creation time:	15. 06. 2019 21:25

#	Modifying user name:	WinNT
#	Modification time:	15. 06. 2019 21:25

#	Program:	/corina/corina34_cracker 3.40 0067  02.08.2006

@<TRIPOS>MOLECULE
ASD10160104
  43   46    0    0    0
SMALL
NO_CHARGES


@<TRIPOS>ATOM
   1 C1            -2.1968     2.2929    -1.9181 C.3     
   2 C2            -1.0156     5.9011     0.6163 C.ar    
   3 C3            -0.1494     6.7720    -0.0520 C.ar    
   4 C4            -1.7882     6.3723     1.6841 C.ar    
   5 C5            -1.6914     7.6937     2.0722 C.ar    
   6 C6            -0.8299     8.5536     1.4044 C.ar    
   7 C7            -0.0598     8.0881     0.3422 C.ar    
   8 C8            -1.1192     4.4923     0.1935 C.2     
   9 N9            -0.3784     4.0422    -0.8385 N.am    
  10 O10           -1.8731     3.7365     0.7760 O.2     
  11 S11           -0.4948     2.4599    -1.3133 S.o2    
  12 O12           -0.3171     1.7200    -0.1132 O.2     
  13 O13            0.4292     2.3474    -2.3869 O.2     
  14 O14           -0.7384     9.8521     1.7884 O.3     
  15 C15           -1.4237    10.2398     2.8959 C.ar    
  16 Cl16           1.0155     9.1695    -0.4873 Cl      
  17 C17           -0.8389    10.1489     4.1552 C.ar    
  18 C18           -2.7142    10.7371     2.7865 C.ar    
  19 N19           -3.3831    11.1153     3.8577 N.ar    
  20 C20           -2.8610    11.0380     5.0659 C.ar    
  21 C21           -1.5774    10.5570     5.2553 C.ar    
  22 Cl22          -0.9022    10.4601     6.8517 Cl      
  23 C23           -3.6709    11.4846     6.2558 C.3     
  24 C24           -4.1368    12.9416     6.2866 C.3     
  25 C25           -5.1447    11.8216     6.0209 C.3     
  26 F26           -2.6272     5.5358     2.3334 F       
  27 C27           -2.6666     0.8960    -2.3291 C.3     
  28 C28           -3.1877     1.5291    -1.0374 C.3     
  29 H29           -2.5786     3.1401    -2.4878 H       
  30 H30            0.4488     6.4126    -0.8763 H       
  31 H31           -2.2867     8.0590     2.8959 H       
  32 H32            0.2229     4.6450    -1.3032 H       
  33 H33            0.1654     9.7695     4.2729 H       
  34 H34           -3.1757    10.8155     1.8132 H       
  35 H35           -3.4055    11.0209     7.2058 H       
  36 H36           -4.1783    13.4363     7.2570 H       
  37 H37           -3.8576    13.5772     5.4462 H       
  38 H38           -5.5286    11.7203     5.0058 H       
  39 H39           -5.8493    11.5795     6.8165 H       
  40 H40           -3.3577     0.8242    -3.1689 H       
  41 H41           -1.9529     0.0774    -2.2360 H       
  42 H42           -2.8169     1.1271    -0.0945 H       
  43 H43           -4.2217     1.8739    -1.0274 H       
@<TRIPOS>BOND
   1    1   27 1
   2    1   11 1
   3    1   28 1
   4    1   29 1
   5    2    3 ar
   6    2    4 ar
   7    2    8 1
   8    3    7 ar
   9    3   30 1
  10    4    5 ar
  11    4   26 1
  12    5    6 ar
  13    5   31 1
  14    6    7 ar
  15    6   14 1
  16    7   16 1
  17    8    9 am
  18    8   10 2
  19    9   11 am
  20    9   32 1
  21   11   12 2
  22   11   13 2
  23   14   15 1
  24   15   17 ar
  25   15   18 ar
  26   17   21 ar
  27   17   33 1
  28   18   19 ar
  29   18   34 1
  30   19   20 ar
  31   20   21 ar
  32   20   23 1
  33   21   22 1
  34   23   24 1
  35   23   25 1
  36   23   35 1
  37   24   25 1
  38   24   36 1
  39   24   37 1
  40   25   38 1
  41   25   39 1
  42   27   28 1
  43   27   40 1
  44   27   41 1
  45   28   42 1
  46   28   43 1

#	End of record

