#	Name: ASD13300001
#	Creating user name:	WinNT
#	Creation time:	15. 06. 2019 21:30

#	Modifying user name:	WinNT
#	Modification time:	15. 06. 2019 21:30

#	Program:	/corina/corina34_cracker 3.40 0067  02.08.2006

@<TRIPOS>MOLECULE
ASD13300001
   4    3    0    0    0
SMALL
NO_CHARGES


@<TRIPOS>ATOM
   1 C1            -0.0143     1.2034     0.0087 C.2     
   2 O2             0.0021    -0.0041     0.0020 O.2     
   3 H3             0.9136     1.7561     0.0028 H       
   4 H4            -0.9568     1.7306     0.0160 H       
@<TRIPOS>BOND
   1    1    2 2
   2    1    3 1
   3    1    4 1

#	End of record

