#	Name: ASD17000001
#	Creating user name:	WinNT
#	Creation time:	15. 06. 2019 21:31

#	Modifying user name:	WinNT
#	Modification time:	15. 06. 2019 21:31

#	Program:	/corina/corina34_cracker 3.40 0067  02.08.2006

@<TRIPOS>MOLECULE
ASD17000001
  65   68    0    0    0
SMALL
NO_CHARGES


@<TRIPOS>ATOM
   1 C1            -0.7771     3.1224    -1.2246 C.3     
   2 C2             1.1446     0.4151    -2.3614 C.ar    
   3 C3            -4.5217     1.4651    -1.0677 C.ar    
   4 C4            -4.7579     0.1032    -1.1860 C.ar    
   5 C5             1.2504     0.2210    -4.7484 C.ar    
   6 C6            -6.1998    -1.7836    -1.3015 C.3     
   7 C7            -7.6684    -2.1197    -1.2696 C.ar    
   8 C8            -9.6390    -2.6890    -0.0345 C.ar    
   9 C9           -10.3172    -2.9790     1.2796 C.3     
  10 C10           -9.7407    -2.4699    -2.4166 C.ar    
  11 O11           -6.0318    -0.3701    -1.1754 O.3     
  12 O12            1.8897    -0.2113    -5.8670 O.3     
  13 O13          -10.2307    -4.3772     1.5620 O.3     
  14 N14          -12.5248    -7.4232     6.6519 N.2     
  15 N15          -13.1911    -5.2612     7.1766 N.pl3   
  16 C16           -0.7527     1.5927    -1.2315 C.3     
  17 C17           -2.1653     1.0677    -1.2189 C.ar    
  18 C18           -0.0474     1.1071    -2.4716 C.ar    
  19 C19           -0.0103     1.0888     0.0078 C.3     
  20 C20           -3.2261     1.9442    -1.0845 C.ar    
  21 C21           -2.3976    -0.2911    -1.3263 C.ar    
  22 C22           -0.5932     1.3546    -3.7176 C.ar    
  23 C23           -3.6915    -0.7747    -1.3154 C.ar    
  24 C24            1.7961    -0.0258    -3.4970 C.ar    
  25 C25            0.0514     0.9106    -4.8559 C.ar    
  26 C26           -8.2916    -2.3806    -0.0638 C.ar    
  27 C27           -8.3937    -2.1616    -2.4459 C.ar    
  28 C28          -10.3630    -2.7360    -1.2109 C.ar    
  29 C29          -10.7967    -4.8087     2.7182 C.ar    
  30 C30          -11.4283    -3.9026     3.5610 C.ar    
  31 C31          -10.7480    -6.1561     3.0529 C.ar    
  32 C32          -11.9521    -5.6893     5.0772 C.ar    
  33 C33          -12.0038    -4.3371     4.7352 C.ar    
  34 C34          -11.3218    -6.5976     4.2253 C.ar    
  35 C35          -12.5692    -6.1595     6.3366 C.2     
  36 H36           -1.2872     3.4737    -0.3277 H       
  37 H37            0.2446     3.5021    -1.2338 H       
  38 H38           -1.3060     3.4814    -2.1075 H       
  39 H39            1.5688     0.2230    -1.3870 H       
  40 H40           -5.3501     2.1506    -0.9672 H       
  41 H41           -5.6943    -2.2846    -0.4759 H       
  42 H42           -5.7710    -2.1176    -2.2463 H       
  43 H43           -9.8260    -2.4169     2.0739 H       
  44 H44          -11.3650    -2.6844     1.2206 H       
  45 H45          -10.3073    -2.5026    -3.3355 H       
  46 H46            1.6324    -1.1000    -6.1484 H       
  47 H47          -12.9294    -7.7316     7.4778 H       
  48 H48          -13.5958    -5.5695     8.0025 H       
  49 H49          -13.2242    -4.3206     6.9419 H       
  50 H50            0.0071    -0.0010     0.0029 H       
  51 H51            1.0114     1.4685    -0.0014 H       
  52 H52           -0.5204     1.4401     0.9047 H       
  53 H53           -3.0417     3.0044    -0.9928 H       
  54 H54           -1.5667    -0.9749    -1.4189 H       
  55 H55           -1.5243     1.8954    -3.8011 H       
  56 H56           -3.8728    -1.8355    -1.4073 H       
  57 H57            2.7294    -0.5624    -3.4106 H       
  58 H58           -0.3754     1.1039    -5.8290 H       
  59 H59           -7.7259    -2.3439     0.8555 H       
  60 H60           -7.9079    -1.9530    -3.3876 H       
  61 H61          -11.4146    -2.9809    -1.1885 H       
  62 H62          -11.4679    -2.8565     3.2957 H       
  63 H63          -10.2602    -6.8585     2.3933 H       
  64 H64          -12.4939    -3.6321     5.3902 H       
  65 H65          -11.2839    -7.6453     4.4847 H       
@<TRIPOS>BOND
   1    1   36 1
   2    1   37 1
   3    1   38 1
   4    1   16 1
   5    2   39 1
   6    2   18 ar
   7    2   24 ar
   8    3    4 ar
   9    3   40 1
  10    3   20 ar
  11    4   23 ar
  12    4   11 1
  13    5   24 ar
  14    5   12 1
  15    5   25 ar
  16    6   11 1
  17    6    7 1
  18    6   41 1
  19    6   42 1
  20    7   27 ar
  21    7   26 ar
  22    8   28 ar
  23    8    9 1
  24    8   26 ar
  25    9   43 1
  26    9   44 1
  27    9   13 1
  28   10   45 1
  29   10   27 ar
  30   10   28 ar
  31   12   46 1
  32   13   29 1
  33   14   35 2
  34   14   47 1
  35   15   48 1
  36   15   49 1
  37   15   35 1
  38   16   17 1
  39   16   18 1
  40   16   19 1
  41   17   21 ar
  42   17   20 ar
  43   18   22 ar
  44   19   50 1
  45   19   51 1
  46   19   52 1
  47   20   53 1
  48   21   23 ar
  49   21   54 1
  50   22   55 1
  51   22   25 ar
  52   23   56 1
  53   24   57 1
  54   25   58 1
  55   26   59 1
  56   27   60 1
  57   28   61 1
  58   29   31 ar
  59   29   30 ar
  60   30   33 ar
  61   30   62 1
  62   31   34 ar
  63   31   63 1
  64   32   35 1
  65   32   34 ar
  66   32   33 ar
  67   33   64 1
  68   34   65 1

#	End of record

