#	Name: ASD10160396
#	Creating user name:	WinNT
#	Creation time:	15. 06. 2019 21:25

#	Modifying user name:	WinNT
#	Modification time:	15. 06. 2019 21:25

#	Program:	/corina/corina34_cracker 3.40 0067  02.08.2006

@<TRIPOS>MOLECULE
ASD10160396
  38   39    0    0    0
SMALL
NO_CHARGES


@<TRIPOS>ATOM
   1 C1            -0.0168     1.3889     0.0097 C.ar    
   2 C2             0.0021    -0.0041     0.0020 C.ar    
   3 C3             1.2158    -0.6614    -0.0131 C.ar    
   4 C4             2.3884     0.1057    -0.0201 C.ar    
   5 C5             2.2879     1.4955    -0.0117 C.ar    
   6 N6             1.1101     2.0839     0.0027 N.ar    
   7 O7            -1.2044     2.0412     0.0188 O.3     
   8 C8            -1.1600     3.4695     0.0264 C.3     
   9 C9            -2.5859     4.0240     0.0361 C.3     
  10 F10           -3.2542     3.5721     1.1791 F       
  11 F11           -2.5424     5.4223     0.0435 F       
  12 F12           -3.2649     3.5846    -1.1054 F       
  13 O13            5.0836     0.0406    -0.0456 O.3     
  14 B14            3.7953    -0.5908    -0.0368 Du      
  15 O15            4.0744    -1.9980    -0.0460 O.3     
  16 C16            5.2090    -2.1512     0.8327 C.3     
  17 C17            5.8932    -0.7690     0.8329 C.3     
  18 C18            7.3198    -0.8802     0.2914 C.3     
  19 C19            5.9020    -0.1788     2.2445 C.3     
  20 C20            4.7447    -2.5165     2.2440 C.3     
  21 C21            6.1626    -3.2180     0.2910 C.3     
  22 Cl22          -1.4833    -0.9026     0.0119 Cl      
  23 H23            1.2605    -1.7405    -0.0189 H       
  24 H24            3.1854     2.0962    -0.0167 H       
  25 H25           -0.6309     3.8118     0.9157 H       
  26 H26           -0.6393     3.8215    -0.8642 H       
  27 H27            7.7688     0.1119     0.2438 H       
  28 H28            7.9106    -1.5151     0.9518 H       
  29 H29            7.2965    -1.3168    -0.7070 H       
  30 H30            4.8806    -0.1215     2.6207 H       
  31 H31            6.4958    -0.8151     2.9007 H       
  32 H32            6.3358     0.8208     2.2176 H       
  33 H33            4.2130    -3.4676     2.2168 H       
  34 H34            5.6107    -2.6031     2.9003 H       
  35 H35            4.0799    -1.7391     2.6204 H       
  36 H36            6.4957    -2.9344    -0.7073 H       
  37 H37            7.0255    -3.3031     0.9515 H       
  38 H38            5.6459    -4.1766     0.2430 H       
@<TRIPOS>BOND
   1    1    2 ar
   2    1    6 ar
   3    1    7 1
   4    2    3 ar
   5    2   22 1
   6    3    4 ar
   7    3   23 1
   8    4    5 ar
   9    4   14 1
  10    5    6 ar
  11    5   24 1
  12    7    8 1
  13    8    9 1
  14    8   25 1
  15    8   26 1
  16    9   10 1
  17    9   11 1
  18    9   12 1
  19   13   14 1
  20   13   17 1
  21   14   15 1
  22   15   16 1
  23   16   17 1
  24   16   20 1
  25   16   21 1
  26   17   18 1
  27   17   19 1
  28   18   27 1
  29   18   28 1
  30   18   29 1
  31   19   30 1
  32   19   31 1
  33   19   32 1
  34   20   33 1
  35   20   34 1
  36   20   35 1
  37   21   36 1
  38   21   37 1
  39   21   38 1

#	End of record

