#	Name: ASD13680022
#	Creating user name:	WinNT
#	Creation time:	15. 06. 2019 21:30

#	Modifying user name:	WinNT
#	Modification time:	15. 06. 2019 21:30

#	Program:	/corina/corina34_cracker 3.40 0067  02.08.2006

@<TRIPOS>MOLECULE
ASD13680022
  49   52    0    0    0
SMALL
NO_CHARGES


@<TRIPOS>ATOM
   1 C1            -0.0193     1.5123     0.0250 C.3     
   2 C2             0.0023    -0.0020     0.0103 C.2     
   3 C3             0.7555    -0.7679     0.8052 C.2     
   4 C4             1.7291    -0.2383     1.8439 C.3     
   5 C5             1.8869     2.2209     1.4608 C.3     
   6 C6             1.4085     2.0562     0.0211 C.3     
   7 C7             1.2751     1.1316     2.3387 C.3     
   8 C8             0.5453    -2.1873     0.5659 C.2     
   9 C9            -0.3624    -2.4431    -0.4222 C.2     
  10 S10           -0.9724    -0.9919    -1.0682 S.3     
  11 N11           -0.7351    -3.7100    -0.8409 N.am    
  12 C12            1.2401    -3.2402     1.3121 C.2     
  13 O13            0.7533    -3.6830     2.3360 O.2     
  14 N14            2.4180    -3.7181     0.8644 N.am    
  15 C15           -1.6422    -3.8540    -1.8272 C.2     
  16 C16           -2.0396    -5.2050    -2.2737 C.ar    
  17 C17           -1.4775    -6.3350    -1.6761 C.ar    
  18 C18           -1.8532    -7.5932    -2.0973 C.ar    
  19 C19           -2.7855    -7.7382    -3.1102 C.ar    
  20 C20           -3.3464    -6.6242    -3.7074 C.ar    
  21 C21           -2.9838    -5.3581    -3.2918 C.ar    
  22 O22           -2.1334    -2.8722    -2.3494 O.2     
  23 C23            3.1309    -4.6402     1.6275 C.ar    
  24 C24            4.2901    -5.2108     1.1131 C.ar    
  25 C25            4.9886    -6.1246     1.8817 C.ar    
  26 C26            4.5019    -6.4379     3.1439 C.ar    
  27 C27            3.3443    -5.8330     3.5913 C.ar    
  28 N28            2.7017    -4.9611     2.8379 N.ar    
  29 Br29          -3.7576    -3.8357    -4.1040 Br      
  30 H30           -0.5469     1.8751    -0.8571 H       
  31 H31           -0.5355     1.8579     0.9206 H       
  32 H32            1.7721    -0.9303     2.6849 H       
  33 H33            2.7204    -0.1515     1.3989 H       
  34 H34            2.9737     2.1437     1.4924 H       
  35 H35            1.5836     3.1992     1.8336 H       
  36 H36            2.0624     1.3587    -0.5024 H       
  37 H37            1.4285     3.0229    -0.4821 H       
  38 H38            0.1880     1.1935     2.2893 H       
  39 H39            1.5999     1.2711     3.3698 H       
  40 H40           -0.3431    -4.4933    -0.4242 H       
  41 H41            2.7695    -3.4201     0.0108 H       
  42 H42           -0.7497    -6.2238    -0.8859 H       
  43 H43           -1.4187    -8.4677    -1.6360 H       
  44 H44           -3.0758    -8.7262    -3.4359 H       
  45 H45           -4.0730    -6.7446    -4.4974 H       
  46 H46            4.6401    -4.9444     0.1267 H       
  47 H47            5.8918    -6.5843     1.5084 H       
  48 H48            5.0233    -7.1477     3.7690 H       
  49 H49            2.9620    -6.0736     4.5723 H       
@<TRIPOS>BOND
   1    1    2 1
   2    1    6 1
   3    1   30 1
   4    1   31 1
   5    2   10 1
   6    2    3 2
   7    3    4 1
   8    3    8 1
   9    4    7 1
  10    4   32 1
  11    4   33 1
  12    5    6 1
  13    5    7 1
  14    5   34 1
  15    5   35 1
  16    6   36 1
  17    6   37 1
  18    7   38 1
  19    7   39 1
  20    8    9 2
  21    8   12 1
  22    9   10 1
  23    9   11 1
  24   11   15 am
  25   11   40 1
  26   12   13 2
  27   12   14 am
  28   14   23 1
  29   14   41 1
  30   15   16 1
  31   15   22 2
  32   16   17 ar
  33   16   21 ar
  34   17   18 ar
  35   17   42 1
  36   18   19 ar
  37   18   43 1
  38   19   20 ar
  39   19   44 1
  40   20   21 ar
  41   20   45 1
  42   21   29 1
  43   23   24 ar
  44   23   28 ar
  45   24   25 ar
  46   24   46 1
  47   25   26 ar
  48   25   47 1
  49   26   27 ar
  50   26   48 1
  51   27   28 ar
  52   27   49 1

#	End of record

