#	Name: ASD11000019
#	Creating user name:	WinNT
#	Creation time:	15. 06. 2019 21:28

#	Modifying user name:	WinNT
#	Modification time:	15. 06. 2019 21:28

#	Program:	/corina/corina34_cracker 3.40 0067  02.08.2006

@<TRIPOS>MOLECULE
ASD11000019
  59   62    0    0    0
SMALL
NO_CHARGES


@<TRIPOS>ATOM
   1 C1            -1.4280    -0.0258    -0.5450 C.ar    
   2 C2            -0.9201    -1.2902    -0.3181 C.ar    
   3 C3             0.4503    -1.5021    -0.3447 C.ar    
   4 C4             1.3108    -0.4444    -0.5987 C.ar    
   5 C5             0.8029     0.8200    -0.8256 C.ar    
   6 C6            -0.5676     1.0318    -0.7995 C.ar    
   7 O7            -1.0676     2.2764    -1.0234 O.3     
   8 C8            -2.4886     2.4218    -0.9815 C.3     
   9 O9             0.9503    -2.7468    -0.1212 O.3     
  10 C10            2.3712    -2.8923    -0.1636 C.3     
  11 C11            2.7428    -4.3513     0.1090 C.3     
  12 N12            2.2490    -4.7412     1.4340 N.am    
  13 C13            2.1208    -5.2330    -0.9449 C.ar    
  14 C14            1.4181    -6.3748    -0.6291 C.ar    
  15 C15            2.2772    -4.8600    -2.2731 C.ar    
  16 C16            0.8814    -7.1550    -1.6464 C.ar    
  17 C17            1.0379    -6.7902    -2.9706 C.ar    
  18 C18            1.7391    -5.6307    -3.2875 C.ar    
  19 C19            2.1943    -6.1808     1.7379 C.3     
  20 C20            1.1830    -6.8229     0.7897 C.3     
  21 C21            1.8614    -3.8189     2.3370 C.2     
  22 O22            2.0264    -2.6367     2.1075 O.2     
  23 C23            1.2354    -4.2450     3.6068 C.ar    
  24 C24            1.3676    -3.4582     4.7521 C.ar    
  25 C25            0.5047    -5.4328     3.6641 C.ar    
  26 C26           -0.0773    -5.8245     4.8520 C.ar    
  27 C27            0.0621    -5.0426     5.9850 C.ar    
  28 C28            0.7806    -3.8614     5.9337 C.ar    
  29 O29            1.8951    -5.2585    -4.5862 O.3     
  30 C30            2.6269    -4.0562    -4.8331 C.3     
  31 O31            0.5089    -7.5605    -3.9587 O.3     
  32 C32           -0.1980    -8.7357    -3.5570 C.3     
  33 H33           -2.4954     0.1383    -0.5287 H       
  34 H34           -1.5901    -2.1137    -0.1196 H       
  35 H35            2.3779    -0.6092    -0.6187 H       
  36 H36            1.4729     1.6437    -1.0231 H       
  37 H37           -2.9417     1.7834    -1.7399 H       
  38 H38           -2.8546     2.1319     0.0035 H       
  39 H39           -2.7533     3.4611    -1.1760 H       
  40 H40            2.7370    -2.6022    -1.1486 H       
  41 H41            2.8246    -2.2541     0.5948 H       
  42 H42            3.8268    -4.4611     0.0792 H       
  43 H43            2.8234    -3.9605    -2.5161 H       
  44 H44            0.3373    -8.0548    -1.4000 H       
  45 H45            3.1770    -6.6273     1.5864 H       
  46 H46            1.8769    -6.3279     2.7702 H       
  47 H47            0.1757    -6.5377     1.0934 H       
  48 H48            1.2794    -7.9073     0.8437 H       
  49 H49            1.9286    -2.5361     4.7135 H       
  50 H50            0.3949    -6.0438     2.7803 H       
  51 H51           -0.6432    -6.7432     4.8976 H       
  52 H52           -0.3955    -5.3537     6.9124 H       
  53 H53            0.8860    -3.2558     6.8217 H       
  54 H54            2.1255    -3.2194    -4.3469 H       
  55 H55            3.6362    -4.1567    -4.4339 H       
  56 H56            2.6772    -3.8754    -5.9068 H       
  57 H57           -0.5674    -9.2571    -4.4400 H       
  58 H58            0.4729    -9.3913    -3.0019 H       
  59 H59           -1.0388    -8.4549    -2.9226 H       
@<TRIPOS>BOND
   1    1    2 ar
   2    1    6 ar
   3    1   33 1
   4    2    3 ar
   5    2   34 1
   6    3    4 ar
   7    3    9 1
   8    4    5 ar
   9    4   35 1
  10    5    6 ar
  11    5   36 1
  12    6    7 1
  13    7    8 1
  14    8   37 1
  15    8   38 1
  16    8   39 1
  17    9   10 1
  18   10   11 1
  19   10   40 1
  20   10   41 1
  21   11   12 1
  22   11   13 1
  23   11   42 1
  24   12   19 1
  25   12   21 am
  26   13   14 ar
  27   13   15 ar
  28   14   16 ar
  29   14   20 1
  30   15   18 ar
  31   15   43 1
  32   16   17 ar
  33   16   44 1
  34   17   18 ar
  35   17   31 1
  36   18   29 1
  37   19   20 1
  38   19   45 1
  39   19   46 1
  40   20   47 1
  41   20   48 1
  42   21   22 2
  43   21   23 1
  44   23   24 ar
  45   23   25 ar
  46   24   28 ar
  47   24   49 1
  48   25   26 ar
  49   25   50 1
  50   26   27 ar
  51   26   51 1
  52   27   28 ar
  53   27   52 1
  54   28   53 1
  55   29   30 1
  56   30   54 1
  57   30   55 1
  58   30   56 1
  59   31   32 1
  60   32   57 1
  61   32   58 1
  62   32   59 1

#	End of record

