#	Name: ASD12630005
#	Creating user name:	WinNT
#	Creation time:	15. 06. 2019 21:30

#	Modifying user name:	WinNT
#	Modification time:	15. 06. 2019 21:30

#	Program:	/corina/corina34_cracker 3.40 0067  02.08.2006

@<TRIPOS>MOLECULE
ASD12630005
  42   44    0    0    0
SMALL
NO_CHARGES


@<TRIPOS>ATOM
   1 C1            -0.0888     1.4555     0.0234 C.3     
   2 C2            -0.0499    -0.0496     0.0872 C.ar    
   3 C3            -0.3403    -0.7969    -1.0390 C.ar    
   4 C4             0.2817    -0.6829     1.2703 C.ar    
   5 C5            -1.2846     3.1890     1.2492 C.2     
   6 C6            -2.4702     4.8688     2.5349 C.2     
   7 C7            -2.4948     3.8551     4.4538 C.2     
   8 C8            -3.4494     6.9476     1.8188 C.ar    
   9 C9            -3.1952     8.1387     1.1510 C.ar    
  10 C10           -3.9619     9.2559     1.4183 C.ar    
  11 C11           -4.9822     9.1895     2.3509 C.ar    
  12 C12           -5.2376     8.0041     3.0177 C.ar    
  13 C13           -4.4781     6.8822     2.7498 C.ar    
  14 Cl14          -5.9385    10.5980     2.6905 Cl      
  15 N15           -2.6746     5.8148     1.5502 N.pl3   
  16 N16           -2.8588     4.9579     3.7882 N.2     
  17 N17           -2.7431     3.6078     5.8022 N.pl3   
  18 N18           -1.8682     3.0446     3.6363 N.2     
  19 N19           -1.8345     3.6725     2.3806 N.am    
  20 O20           -1.3279     3.8421     0.2252 O.2     
  21 N21           -0.6866     1.9811     1.2533 N.am    
  22 C22            1.3347     1.9968    -0.1235 C.3     
  23 C23            0.3174    -2.0636     1.3288 C.ar    
  24 C24            0.0211    -2.8109     0.2043 C.ar    
  25 C25           -0.3046    -2.1775    -0.9804 C.ar    
  26 H26           -0.6864     1.7676    -0.8332 H       
  27 H27           -0.5954    -0.3020    -1.9644 H       
  28 H28            0.5132    -0.0990     2.1489 H       
  29 H29           -2.3986     8.1912     0.4237 H       
  30 H30           -3.7647    10.1822     0.8994 H       
  31 H31           -6.0345     7.9551     3.7450 H       
  32 H32           -4.6778     5.9573     3.2705 H       
  33 H33           -2.2808     5.6936     0.6720 H       
  34 H34           -2.4430     2.7787     6.2065 H       
  35 H35           -3.2161     4.2647     6.3367 H       
  36 H36           -0.6520     1.4599     2.0706 H       
  37 H37            1.3065     3.0854    -0.1696 H       
  38 H38            1.9322     1.6847     0.7331 H       
  39 H39            1.7795     1.6057    -1.0386 H       
  40 H40            0.5771    -2.5583     2.2530 H       
  41 H41            0.0493    -3.8896     0.2499 H       
  42 H42           -0.5318    -2.7613    -1.8602 H       
@<TRIPOS>BOND
   1    1    2 1
   2    1   22 1
   3    1   26 1
   4    1   21 1
   5    2    3 ar
   6    2    4 ar
   7    3   25 ar
   8    3   27 1
   9    4   23 ar
  10    4   28 1
  11    5   21 am
  12    5   19 am
  13    5   20 2
  14    6   16 2
  15    6   19 1
  16    6   15 1
  17    7   17 1
  18    7   18 2
  19    7   16 1
  20    8   15 1
  21    8    9 ar
  22    8   13 ar
  23    9   29 1
  24    9   10 ar
  25   10   30 1
  26   10   11 ar
  27   11   12 ar
  28   11   14 1
  29   12   13 ar
  30   12   31 1
  31   13   32 1
  32   15   33 1
  33   17   34 1
  34   17   35 1
  35   18   19 1
  36   21   36 1
  37   22   37 1
  38   22   38 1
  39   22   39 1
  40   23   24 ar
  41   23   40 1
  42   24   25 ar
  43   24   41 1
  44   25   42 1

#	End of record

