#	Name: ASD10610101
#	Creating user name:	WinNT
#	Creation time:	15. 06. 2019 21:28

#	Modifying user name:	WinNT
#	Modification time:	15. 06. 2019 21:28

#	Program:	/corina/corina34_cracker 3.40 0067  02.08.2006

@<TRIPOS>MOLECULE
ASD10610101
  57   59    0    0    0
SMALL
NO_CHARGES


@<TRIPOS>ATOM
   1 O1            -0.5021    -0.9203     0.3301 O.3     
   2 C2             0.8089    -1.4996     0.3021 C.3     
   3 C3             1.3680    -0.1544     0.7817 C.3     
   4 C4             0.1023     0.3556     0.0818 C.3     
   5 C5             1.3719     0.0248     2.2780 C.2     
   6 O6             0.4570     0.6066     2.8215 O.2     
   7 N7             2.3921    -0.4616     3.0123 N.am    
   8 C8             2.4534    -0.1912     4.4508 C.3     
   9 C9             3.0765     1.1865     4.6846 C.3     
  10 C10            3.2951    -1.2441     5.1245 C.ar    
  11 C11            2.8312    -1.8524     6.2797 C.ar    
  12 C12            3.6098    -2.8205     6.8945 C.ar    
  13 C13            4.8408    -3.1450     6.3181 C.ar    
  14 C14            5.2352    -2.4868     5.1550 C.ar    
  15 N15            4.4597    -1.5764     4.6026 N.ar    
  16 F16            1.6341    -1.5057     6.8010 F       
  17 C17            5.7140    -4.1733     6.9349 C.ar    
  18 C18            5.2245    -5.4618     7.1673 C.ar    
  19 C19            6.0469    -6.4172     7.7442 C.ar    
  20 C20            7.3473    -6.0953     8.0882 C.ar    
  21 C21            7.8344    -4.8197     7.8595 C.ar    
  22 C22            7.0267    -3.8606     7.2796 C.ar    
  23 O23            3.9465    -5.7769     6.8292 O.3     
  24 C24            3.7428    -6.3723     5.5462 C.3     
  25 C25            2.2435    -6.5510     5.2992 C.3     
  26 F26            1.7240    -7.4631     6.2240 F       
  27 F27            1.5967    -5.3191     5.4453 F       
  28 Cl28           9.4680    -4.4263     8.2958 Cl      
  29 Cl29           5.4439    -8.0189     8.0356 Cl      
  30 N30            2.6225     0.2472     0.1405 N.am    
  31 C31            3.1578     1.4555     0.4049 C.2     
  32 O32            2.6453     2.1776     1.2337 O.2     
  33 C33            4.3931     1.9094    -0.3292 C.3     
  34 O34            4.6947     3.2581     0.0343 O.3     
  35 C35            5.9144     3.7515    -0.5234 C.3     
  36 H36            0.9414    -2.3054     1.0239 H       
  37 H37            1.1397    -1.7733    -0.6998 H       
  38 H38            0.2487     0.5663    -0.9776 H       
  39 H39           -0.3843     1.1752     0.6106 H       
  40 H40            3.0857    -0.9907     2.5883 H       
  41 H41            1.4462    -0.2098     4.8673 H       
  42 H42            4.0836     1.2052     4.2682 H       
  43 H43            2.4676     1.9481     4.1974 H       
  44 H44            3.1221     1.3877     5.7549 H       
  45 H45            3.2738    -3.3112     7.7961 H       
  46 H46            6.1843    -2.7284     4.6996 H       
  47 H47            7.9852    -6.8419     8.5375 H       
  48 H48            7.4114    -2.8679     7.0982 H       
  49 H49            4.1637    -5.7269     4.7752 H       
  50 H50            4.2347    -7.3445     5.5146 H       
  51 H51            2.0841    -6.9274     4.2887 H       
  52 H52            3.0678    -0.3565    -0.4745 H       
  53 H53            5.2312     1.2653    -0.0630 H       
  54 H54            4.2186     1.8530    -1.4037 H       
  55 H55            6.1156     4.7487    -0.1321 H       
  56 H56            6.7330     3.0838    -0.2548 H       
  57 H57            5.8249     3.7983    -1.6087 H       
@<TRIPOS>BOND
   1    1    2 1
   2    1    4 1
   3    2    3 1
   4    2   36 1
   5    2   37 1
   6    3    4 1
   7    3    5 1
   8    3   30 1
   9    4   38 1
  10    4   39 1
  11    5    6 2
  12    5    7 am
  13    7    8 1
  14    7   40 1
  15    8    9 1
  16    8   10 1
  17    8   41 1
  18    9   42 1
  19    9   43 1
  20    9   44 1
  21   10   11 ar
  22   10   15 ar
  23   11   12 ar
  24   11   16 1
  25   12   13 ar
  26   12   45 1
  27   13   14 ar
  28   13   17 1
  29   14   15 ar
  30   14   46 1
  31   17   18 ar
  32   17   22 ar
  33   18   19 ar
  34   18   23 1
  35   19   20 ar
  36   19   29 1
  37   20   21 ar
  38   20   47 1
  39   21   22 ar
  40   21   28 1
  41   22   48 1
  42   23   24 1
  43   24   25 1
  44   24   49 1
  45   24   50 1
  46   25   26 1
  47   25   27 1
  48   25   51 1
  49   30   31 am
  50   30   52 1
  51   31   32 2
  52   31   33 1
  53   33   34 1
  54   33   53 1
  55   33   54 1
  56   34   35 1
  57   35   55 1
  58   35   56 1
  59   35   57 1

#	End of record

