#	Name: ASD11340001
#	Creating user name:	WinNT
#	Creation time:	15. 06. 2019 21:29

#	Modifying user name:	WinNT
#	Modification time:	15. 06. 2019 21:29

#	Program:	/corina/corina34_cracker 3.40 0067  02.08.2006

@<TRIPOS>MOLECULE
ASD11340001
  24   26    0    0    0
SMALL
NO_CHARGES


@<TRIPOS>ATOM
   1 N1            -0.0168     1.3887     0.0097 N.pl3   
   2 C2             0.0021    -0.0041     0.0020 C.ar    
   3 C3             1.1891    -0.6626    -0.0129 C.ar    
   4 C4             1.2459    -2.0726    -0.0214 C.ar    
   5 C5             2.4856    -2.7369    -0.0373 C.ar    
   6 C6             2.4891    -4.1049    -0.0456 C.ar    
   7 C7             1.2854    -4.7997    -0.0383 C.ar    
   8 N8             0.1313    -4.1725    -0.0234 N.ar    
   9 C9             0.0626    -2.8438    -0.0148 C.ar    
  10 C10           -1.2360    -2.1589     0.0013 C.ar    
  11 C11           -1.2564    -0.7477     0.0161 C.ar    
  12 C12           -2.4921    -0.0858     0.0315 C.ar    
  13 C13           -3.6323    -0.8445     0.0315 C.ar    
  14 C14           -3.5398    -2.2309     0.0165 C.ar    
  15 N15           -2.3767    -2.8426     0.0086 N.ar    
  16 H16            0.8165     1.8851     0.0044 H       
  17 H17           -0.8634     1.8623     0.0163 H       
  18 H18            2.1085    -0.0960    -0.0186 H       
  19 H19            3.4115    -2.1810    -0.0432 H       
  20 H20            3.4250    -4.6437    -0.0581 H       
  21 H21            1.2992    -5.8795    -0.0453 H       
  22 H22           -2.5436     0.9930     0.0433 H       
  23 H23           -4.6007    -0.3666     0.0435 H       
  24 H24           -4.4452    -2.8198     0.0171 H       
@<TRIPOS>BOND
   1    1    2 1
   2    1   16 1
   3    1   17 1
   4    2    3 ar
   5    2   11 ar
   6    3    4 ar
   7    3   18 1
   8    4    5 ar
   9    4    9 ar
  10    5    6 ar
  11    5   19 1
  12    6    7 ar
  13    6   20 1
  14    7    8 ar
  15    7   21 1
  16    8    9 ar
  17    9   10 ar
  18   10   11 ar
  19   10   15 ar
  20   11   12 ar
  21   12   13 ar
  22   12   22 1
  23   13   14 ar
  24   13   23 1
  25   14   15 ar
  26   14   24 1

#	End of record

