#	Name: ASD13620006
#	Creating user name:	WinNT
#	Creation time:	15. 06. 2019 21:30

#	Modifying user name:	WinNT
#	Modification time:	15. 06. 2019 21:30

#	Program:	/corina/corina34_cracker 3.40 0067  02.08.2006

@<TRIPOS>MOLECULE
ASD13620006
  50   53    0    0    0
SMALL
NO_CHARGES


@<TRIPOS>ATOM
   1 C1            -0.0205     1.2759     0.1793 C.ar    
   2 C2             0.0285    -0.1043     0.2458 C.ar    
   3 C3             1.2495    -0.7535     0.2242 C.ar    
   4 C4             2.4236    -0.0318     0.1354 C.ar    
   5 C5             2.3889     1.3566     0.0664 C.ar    
   6 C6             1.1541     2.0053     0.0907 C.ar    
   7 S7             1.1003     3.7671     0.0123 S.3     
   8 N8             3.5834     2.0663    -0.0310 N.am    
   9 C9             3.7606     3.3431     0.3013 C.2     
  10 C10            2.6606     4.2231     0.8251 C.3     
  11 C11            2.5266     4.0280     2.3367 C.3     
  12 O12            4.8679     3.8217     0.1740 O.2     
  13 C13            0.1697     4.6115     2.9440 C.ar    
  14 C14            1.5003     4.9895     2.8783 C.ar    
  15 C15            4.7489     1.3431    -0.5457 C.3     
  16 C16            5.5181     0.7466     0.6047 C.ar    
  17 C17            6.6213    -0.0499     0.3596 C.ar    
  18 C18            7.0546    -0.3214    -1.0580 C.3     
  19 F19            8.2362    -1.0704    -1.0491 F       
  20 C20            5.1241     1.0003     1.9050 C.ar    
  21 C21            5.8298     0.4530     2.9604 C.ar    
  22 C22            6.9290    -0.3482     2.7152 C.ar    
  23 C23            7.3270    -0.5967     1.4147 C.ar    
  24 C24            1.8920     6.2435     3.3072 C.ar    
  25 C25           -0.7758     5.4841     3.4383 C.ar    
  26 C26           -0.3901     6.7540     3.8749 C.ar    
  27 C27            0.9553     7.1304     3.8062 C.ar    
  28 C28           -1.3969     7.6935     4.4053 C.2     
  29 O29           -1.0580     8.7970     4.7840 O.2     
  30 O30           -2.6919     7.3274     4.4696 O.3     
  31 F31            6.0534    -1.0379    -1.7225 F       
  32 F32            7.2764     0.8918    -1.7183 F       
  33 F33            1.3386     8.3559     4.2262 F       
  34 H34           -0.9732     1.7844     0.1919 H       
  35 H35           -0.8859    -0.6749     0.3150 H       
  36 H36            1.2850    -1.8316     0.2775 H       
  37 H37            3.3723    -0.5477     0.1198 H       
  38 H38            2.8921     5.2665     0.6110 H       
  39 H39            2.2119     3.0054     2.5446 H       
  40 H40            3.4883     4.2163     2.8140 H       
  41 H41           -0.1288     3.6315     2.6023 H       
  42 H42            4.4172     0.5473    -1.2126 H       
  43 H43            5.3912     2.0324    -1.0938 H       
  44 H44            4.2652     1.6263     2.0966 H       
  45 H45            5.5224     0.6518     3.9765 H       
  46 H46            7.4805    -0.7755     3.5397 H       
  47 H47            8.1860    -1.2227     1.2231 H       
  48 H48            2.9316     6.5313     3.2529 H       
  49 H49           -1.8129     5.1867     3.4881 H       
  50 H50           -3.3146     7.9767     4.8244 H       
@<TRIPOS>BOND
   1    1    2 ar
   2    1    6 ar
   3    1   34 1
   4    2    3 ar
   5    2   35 1
   6    3    4 ar
   7    3   36 1
   8    4    5 ar
   9    4   37 1
  10    5    6 ar
  11    5    8 1
  12    6    7 1
  13    7   10 1
  14    8    9 am
  15    8   15 1
  16    9   12 2
  17    9   10 1
  18   10   11 1
  19   10   38 1
  20   11   14 1
  21   11   39 1
  22   11   40 1
  23   13   25 ar
  24   13   14 ar
  25   13   41 1
  26   14   24 ar
  27   15   16 1
  28   15   42 1
  29   15   43 1
  30   16   17 ar
  31   16   20 ar
  32   17   18 1
  33   17   23 ar
  34   18   19 1
  35   18   31 1
  36   18   32 1
  37   20   21 ar
  38   20   44 1
  39   21   22 ar
  40   21   45 1
  41   22   23 ar
  42   22   46 1
  43   23   47 1
  44   24   27 ar
  45   24   48 1
  46   25   26 ar
  47   25   49 1
  48   26   27 ar
  49   26   28 1
  50   27   33 1
  51   28   29 2
  52   28   30 1
  53   30   50 1

#	End of record

