#	Name: ASD10160029
#	Creating user name:	WinNT
#	Creation time:	15. 06. 2019 21:25

#	Modifying user name:	WinNT
#	Modification time:	15. 06. 2019 21:25

#	Program:	/corina/corina34_cracker 3.40 0067  02.08.2006

@<TRIPOS>MOLECULE
ASD10160029
  46   47    0    0    0
SMALL
NO_CHARGES


@<TRIPOS>ATOM
   1 C1             2.0684    -1.7679     3.7955 C.ar    
   2 C2             1.5652    -2.3396     2.6224 C.ar    
   3 C3             3.1008    -0.8258     3.7227 C.ar    
   4 C4             3.6176    -0.4651     2.4942 C.ar    
   5 C5             3.1143    -1.0351     1.3330 C.ar    
   6 C6             2.0871    -1.9736     1.4012 C.ar    
   7 C7             1.5088    -2.1521     5.1044 C.2     
   8 N8             0.5109    -3.0554     5.1717 N.am    
   9 O9             1.9477    -1.6538     6.1232 O.2     
  10 S10           -0.1176    -3.4869     6.6418 S.o2    
  11 O11           -1.1088    -4.4557     6.3284 O.2     
  12 O12            1.0195    -3.8283     7.4225 O.2     
  13 O13            3.6246    -0.6771     0.1273 O.3     
  14 C14            4.7039     0.1500     0.1110 C.ar    
  15 C15            5.9936    -0.3740     0.1471 C.ar    
  16 C16            4.5333     1.5235     0.0526 C.ar    
  17 N17            5.5750     2.3337     0.0361 N.ar    
  18 C18            6.8149     1.8728     0.0746 C.ar    
  19 C19            7.0630     0.5045     0.1289 C.ar    
  20 Cl20           8.6923    -0.0925     0.1792 Cl      
  21 C21            8.4470     2.8835    -1.2964 C.3     
  22 N22            7.8832     2.7665     0.0550 N.3     
  23 F23            3.5905    -0.2699     4.8525 F       
  24 F24            1.6012    -2.5251     0.2677 F       
  25 C25           -0.8873    -1.9684     7.2683 C.3     
  26 C26            7.4548     3.6168    -2.2013 C.3     
  27 C27            9.7585     3.6691    -1.2356 C.3     
  28 C28            7.4797     4.0807     0.5727 C.3     
  29 H29            0.7689    -3.0673     2.6739 H       
  30 H30            4.4143     0.2618     2.4367 H       
  31 H31            0.1608    -3.4528     4.3591 H       
  32 H32            6.1556    -1.4410     0.1887 H       
  33 H33            3.5359     1.9363     0.0199 H       
  34 H34            8.6380     1.8883    -1.6979 H       
  35 H35           -1.6619    -1.6409     6.5749 H       
  36 H36           -1.3318    -2.1624     8.2444 H       
  37 H37           -0.1305    -1.1895     7.3621 H       
  38 H38            7.2639     4.6120    -1.7998 H       
  39 H39            7.8732     3.7036    -3.2040 H       
  40 H40            6.5205     3.0571    -2.2446 H       
  41 H41            9.5676     4.6644    -0.8342 H       
  42 H42           10.4654     3.1468    -0.5910 H       
  43 H43           10.1769     3.7560    -2.2384 H       
  44 H44            7.1833     3.9844     1.6172 H       
  45 H45            8.3168     4.7745     0.4951 H       
  46 H46            6.6396     4.4585    -0.0101 H       
@<TRIPOS>BOND
   1    1    2 ar
   2    1    3 ar
   3    1    7 1
   4    2    6 ar
   5    2   29 1
   6    3    4 ar
   7    3   23 1
   8    4    5 ar
   9    4   30 1
  10    5    6 ar
  11    5   13 1
  12    6   24 1
  13    7    8 am
  14    7    9 2
  15    8   10 am
  16    8   31 1
  17   10   11 2
  18   10   12 2
  19   10   25 1
  20   13   14 1
  21   14   15 ar
  22   14   16 ar
  23   15   19 ar
  24   15   32 1
  25   16   17 ar
  26   16   33 1
  27   17   18 ar
  28   18   19 ar
  29   18   22 1
  30   19   20 1
  31   21   26 1
  32   21   27 1
  33   21   22 1
  34   21   34 1
  35   22   28 1
  36   25   35 1
  37   25   36 1
  38   25   37 1
  39   26   38 1
  40   26   39 1
  41   26   40 1
  42   27   41 1
  43   27   42 1
  44   27   43 1
  45   28   44 1
  46   28   45 1
  47   28   46 1

#	End of record

