#	Name: ASD10610040
#	Creating user name:	WinNT
#	Creation time:	15. 06. 2019 21:27

#	Modifying user name:	WinNT
#	Modification time:	15. 06. 2019 21:27

#	Program:	/corina/corina34_cracker 3.40 0067  02.08.2006

@<TRIPOS>MOLECULE
ASD10610040
  60   65    0    0    0
SMALL
NO_CHARGES


@<TRIPOS>ATOM
   1 C1            -0.5949     1.8586     1.2669 C.ar    
   2 C2            -1.7868     1.7208     1.9838 C.ar    
   3 C3            -1.9566     2.5164     3.1241 C.ar    
   4 C4            -0.9328     3.3856     3.4644 C.ar    
   5 N5             0.1562     3.4433     2.7226 N.ar    
   6 N6             0.3179     2.7176     1.6773 N.ar    
   7 C7            -2.8345     0.7666     1.5523 C.2     
   8 O8            -3.8630     0.6637     2.1913 O.2     
   9 N9            -2.6471     0.0126     0.4510 N.am    
  10 C10           -3.6323    -1.0083     0.0859 C.3     
  11 C11           -5.0731    -0.5487    -0.1461 C.3     
  12 C12           -4.2022    -0.9645    -1.3333 C.3     
  13 C13           -3.4265    -2.3635     0.7120 C.2     
  14 N14           -2.1784    -2.8345     0.9043 N.am    
  15 O15           -4.3840    -3.0304     1.0429 O.2     
  16 C16           -1.9787    -4.1946     1.4107 C.3     
  17 C17           -0.5980    -4.7304     0.9765 C.3     
  18 C18            0.2984    -4.3444     2.1720 C.3     
  19 C19           -0.6351    -4.2779     3.3620 C.ar    
  20 C20           -0.3587    -4.2914     4.7168 C.ar    
  21 C21           -1.3966    -4.2179     5.6425 C.ar    
  22 C22           -2.7145    -4.1312     5.1960 C.ar    
  23 C23           -2.9803    -4.1190     3.8434 C.ar    
  24 C24           -1.9447    -4.1918     2.9245 C.ar    
  25 C25           -1.1016    -4.2322     7.0952 C.ar    
  26 C26           -1.6616    -3.2591     7.9386 C.ar    
  27 C27           -1.3766    -3.2830     9.3032 C.ar    
  28 C28           -0.5464    -4.2619     9.8181 C.ar    
  29 C29            0.0049    -5.2207     8.9849 C.ar    
  30 C30           -0.2730    -5.2133     7.6308 C.ar    
  31 O31           -3.6344    -1.1196     6.0013 O.3     
  32 N32           -2.8979    -2.0750     6.1272 N.2     
  33 C33           -2.5502    -2.2122     7.3812 C.2     
  34 N34           -3.1544    -1.2194     8.0735 N.2     
  35 C35           -3.8361    -0.5372     7.1875 C.2     
  36 C36           -4.6878     0.6769     7.4550 C.3     
  37 F37           -1.9107    -2.3504    10.1219 F       
  38 Cl38           1.0457    -6.4429     9.6456 Cl      
  39 H39           -0.4204     1.2615     0.3840 H       
  40 H40           -2.8563     2.4546     3.7183 H       
  41 H41           -1.0265     4.0158     4.3364 H       
  42 H42           -1.8599     0.1459    -0.0998 H       
  43 H43           -5.8721    -1.2267     0.1538 H       
  44 H44           -5.2879     0.5133    -0.0270 H       
  45 H45           -3.8441    -0.1760    -1.9953 H       
  46 H46           -4.4283    -1.9160    -1.8145 H       
  47 H47           -1.4124    -2.2730     0.7073 H       
  48 H48           -2.7698    -4.8528     1.0515 H       
  49 H49           -0.6257    -5.8122     0.8463 H       
  50 H50           -0.2607    -4.2378     0.0645 H       
  51 H51            1.0625    -5.1050     2.3328 H       
  52 H52            0.7612    -3.3728     1.9996 H       
  53 H53            0.6639    -4.3587     5.0577 H       
  54 H54           -3.5249    -4.0743     5.9077 H       
  55 H55           -4.0012    -4.0522     3.4975 H       
  56 H56           -0.3266    -4.2785    10.8754 H       
  57 H57            0.1568    -5.9668     6.9875 H       
  58 H58           -5.1294     1.0239     6.5208 H       
  59 H59           -5.4802     0.4174     8.1571 H       
  60 H60           -4.0699     1.4676     7.8806 H       
@<TRIPOS>BOND
   1    1    2 ar
   2    1    6 ar
   3    1   39 1
   4    2    3 ar
   5    2    7 1
   6    3    4 ar
   7    3   40 1
   8    4    5 ar
   9    4   41 1
  10    5    6 ar
  11    7    8 2
  12    7    9 am
  13    9   10 1
  14    9   42 1
  15   10   11 1
  16   10   12 1
  17   10   13 1
  18   11   12 1
  19   11   43 1
  20   11   44 1
  21   12   45 1
  22   12   46 1
  23   13   14 am
  24   13   15 2
  25   14   16 1
  26   14   47 1
  27   16   17 1
  28   16   24 1
  29   16   48 1
  30   17   18 1
  31   17   49 1
  32   17   50 1
  33   18   19 1
  34   18   51 1
  35   18   52 1
  36   19   20 ar
  37   19   24 ar
  38   20   21 ar
  39   20   53 1
  40   21   22 ar
  41   21   25 1
  42   22   23 ar
  43   22   54 1
  44   23   24 ar
  45   23   55 1
  46   25   26 ar
  47   25   30 ar
  48   26   27 ar
  49   26   33 1
  50   27   28 ar
  51   27   37 1
  52   28   29 ar
  53   28   56 1
  54   29   30 ar
  55   29   38 1
  56   30   57 1
  57   31   32 1
  58   31   35 1
  59   32   33 2
  60   33   34 1
  61   34   35 2
  62   35   36 1
  63   36   58 1
  64   36   59 1
  65   36   60 1

#	End of record

