#	Name: ASD14640027
#	Creating user name:	WinNT
#	Creation time:	15. 06. 2019 21:31

#	Modifying user name:	WinNT
#	Modification time:	15. 06. 2019 21:31

#	Program:	/corina/corina34_cracker 3.40 0067  02.08.2006

@<TRIPOS>MOLECULE
ASD14640027
  38   40    0    0    0
SMALL
NO_CHARGES


@<TRIPOS>ATOM
   1 C1             0.1776     1.9005    -0.2371 C.ar    
   2 C2             1.3999     2.5354    -0.3546 C.ar    
   3 C3             1.4572     3.9079    -0.5108 C.ar    
   4 C4            -0.0797    -0.2572    -1.4317 C.3     
   5 C5            -1.4468     0.1394    -1.9977 C.3     
   6 C6            -1.5522    -2.0678    -3.2267 C.3     
   7 C7            -0.1839    -2.4397    -2.6470 C.3     
   8 C8            -0.0180    -1.7785    -1.2767 C.3     
   9 C9            -2.0017     0.0578    -4.4045 C.2     
  10 C10            0.2924     4.6513    -0.5502 C.ar    
  11 C11           -0.9362     4.0217    -0.4335 C.ar    
  12 C12           -0.9941     2.6385    -0.2819 C.ar    
  13 O13           -2.2098     4.5127    -0.4480 O.3     
  14 C14           -3.0560     3.3785    -0.7141 C.3     
  15 O15           -2.3035     2.2642    -0.1895 O.3     
  16 C16            0.1193     0.4044    -0.0666 C.3     
  17 N17           -1.6764    -0.6039    -3.2441 N.pl3   
  18 N18           -2.2146     1.3435    -4.3839 N.2     
  19 N19           -2.1024    -0.6368    -5.5867 N.pl3   
  20 H20            2.3121     1.9580    -0.3239 H       
  21 H21            2.4141     4.4003    -0.6019 H       
  22 H22            0.7053     0.0712    -2.1130 H       
  23 H23           -2.2262    -0.1068    -1.2766 H       
  24 H24           -1.4608     1.2099    -2.2028 H       
  25 H25           -1.6357    -2.4537    -4.2427 H       
  26 H26           -2.3417    -2.4941    -2.6078 H       
  27 H27           -0.1165    -3.5222    -2.5390 H       
  28 H28            0.6020    -2.0913    -3.3171 H       
  29 H29            0.9447    -2.0614    -0.8511 H       
  30 H30           -0.8186    -2.1088    -0.6149 H       
  31 H31            0.3402     5.7234    -0.6717 H       
  32 H32           -4.0046     3.4761    -0.1861 H       
  33 H33            1.0515     0.0524     0.3753 H       
  34 H34           -0.7133     0.1454     0.5875 H       
  35 H35           -2.4441     1.8103    -5.2026 H       
  36 H36           -2.4066    -0.1857    -6.3898 H       
  37 H37           -1.8693    -1.5778    -5.6177 H       
  38 H38           -3.2226     3.2680    -1.7856 H       
@<TRIPOS>BOND
   1    1   16 1
   2    1    2 ar
   3    1   12 ar
   4    2   20 1
   5    2    3 ar
   6    3   21 1
   7    3   10 ar
   8    4    5 1
   9    4   22 1
  10    4    8 1
  11    4   16 1
  12    5   17 1
  13    5   23 1
  14    5   24 1
  15    6   17 1
  16    6   25 1
  17    6   26 1
  18    6    7 1
  19    7   27 1
  20    7   28 1
  21    7    8 1
  22    8   29 1
  23    8   30 1
  24    9   18 2
  25    9   19 1
  26    9   17 1
  27   10   31 1
  28   10   11 ar
  29   11   12 ar
  30   11   13 1
  31   12   15 1
  32   13   14 1
  33   14   15 1
  34   14   32 1
  35   14   38 1
  36   16   33 1
  37   16   34 1
  38   18   35 1
  39   19   36 1
  40   19   37 1

#	End of record

