#	Name: ASD10420130
#	Creating user name:	WinNT
#	Creation time:	15. 06. 2019 21:27

#	Modifying user name:	WinNT
#	Modification time:	15. 06. 2019 21:27

#	Program:	/corina/corina34_cracker 3.40 0067  02.08.2006

@<TRIPOS>MOLECULE
ASD10420130
  23   24    0    0    0
SMALL
NO_CHARGES


@<TRIPOS>ATOM
   1 Cl1            1.1470     3.8335     0.0117 Cl      
   2 Cl2           -1.4898    -0.8917     0.0120 Cl      
   3 Cl3            4.3858     0.9236    -2.1129 Cl      
   4 Cl4            7.1060    -0.6030    -2.1362 Cl      
   5 Cl5            7.6319    -2.8881    -0.0822 Cl      
   6 C6            -0.0168     1.3846     0.0097 C.ar    
   7 C7             0.0021    -0.0041     0.0020 C.ar    
   8 C8             1.2060    -0.6791    -0.0131 C.ar    
   9 C9             2.4034     0.0341    -0.0207 C.ar    
  10 C10            2.3816     1.4277    -0.0130 C.ar    
  11 C11            1.1750     2.0978     0.0021 C.ar    
  12 C12            3.6988    -0.6887    -0.0364 C.ar    
  13 C13            4.6787    -0.3479    -0.9678 C.ar    
  14 C14            5.8839    -1.0250    -0.9778 C.ar    
  15 C15            6.1172    -2.0401    -0.0648 C.ar    
  16 C16            5.1462    -2.3810     0.8614 C.ar    
  17 C17            3.9424    -1.7070     0.8835 C.ar    
  18 O18           -1.2037     2.0470     0.0189 O.3     
  19 H19            1.2201    -1.7590    -0.0187 H       
  20 H20            3.3081     1.9827    -0.0185 H       
  21 H21            5.3331    -3.1735     1.5709 H       
  22 H22            3.1880    -1.9714     1.6097 H       
  23 H23           -1.5430     2.2338     0.9049 H       
@<TRIPOS>BOND
   1    1   11 1
   2    2    7 1
   3    3   13 1
   4    4   14 1
   5    5   15 1
   6    6    7 ar
   7    6   11 ar
   8    6   18 1
   9    7    8 ar
  10    8    9 ar
  11    8   19 1
  12    9   10 ar
  13    9   12 1
  14   10   11 ar
  15   10   20 1
  16   12   13 ar
  17   12   17 ar
  18   13   14 ar
  19   14   15 ar
  20   15   16 ar
  21   16   17 ar
  22   16   21 1
  23   17   22 1
  24   18   23 1

#	End of record

