#	Name: ASD10160032
#	Creating user name:	WinNT
#	Creation time:	15. 06. 2019 21:25

#	Modifying user name:	WinNT
#	Modification time:	15. 06. 2019 21:25

#	Program:	/corina/corina34_cracker 3.40 0067  02.08.2006

@<TRIPOS>MOLECULE
ASD10160032
  45   46    0    0    0
SMALL
NO_CHARGES


@<TRIPOS>ATOM
   1 C1             7.1804     1.2828    -0.7017 C.ar    
   2 C2             6.8292     0.8804     0.5896 C.ar    
   3 C3             6.3105     1.0366    -1.7673 C.ar    
   4 C4             5.1112     0.3990    -1.5414 C.ar    
   5 C5             4.7651     0.0006    -0.2551 C.ar    
   6 C6             5.6281     0.2433     0.8075 C.ar    
   7 C7             8.4642     1.9714    -0.9386 C.2     
   8 N8             8.8013     2.3588    -2.1847 N.am    
   9 O9             9.2177     2.1893    -0.0096 O.2     
  10 S10           10.2417     3.1314    -2.4505 S.o2    
  11 O11           10.2412     3.4036    -3.8452 O.2     
  12 O12           10.2546     4.1860    -1.4982 O.2     
  13 O13            3.5822    -0.6270    -0.0364 O.3     
  14 C14            3.5481    -1.9817    -0.1485 C.ar    
  15 C15            4.7196    -2.7000    -0.3714 C.ar    
  16 C16            2.3477    -2.6647    -0.0365 C.ar    
  17 N17            2.3061    -3.9792    -0.1440 N.ar    
  18 C18            3.3971    -4.6936    -0.3610 C.ar    
  19 C19            4.6375    -4.0781    -0.4789 C.ar    
  20 Cl20           6.0648    -5.0242    -0.7643 Cl      
  21 C21            2.0040    -6.6185    -0.3288 C.3     
  22 O22            3.3055    -6.0443    -0.4646 O.3     
  23 C23            2.0996    -8.1386    -0.4736 C.3     
  24 C24            2.9175    -8.7110     0.6858 C.3     
  25 C25            0.6938    -8.7423    -0.4530 C.3     
  26 C26           11.5021     1.8916    -2.0444 C.3     
  27 H27            7.4991     1.0686     1.4156 H       
  28 H28            6.5783     1.3464    -2.7666 H       
  29 H29            4.4384     0.2084    -2.3644 H       
  30 H30            5.3558    -0.0676     1.8053 H       
  31 H31            8.2002     2.1849    -2.9259 H       
  32 H32            5.6699    -2.1944    -0.4588 H       
  33 H33            1.4353    -2.1147     0.1413 H       
  34 H34            1.5986    -6.3718     0.6524 H       
  35 H35            1.3485    -6.2203    -1.1033 H       
  36 H36            2.5865    -8.3838    -1.4175 H       
  37 H37            2.9856    -9.7940     0.5826 H       
  38 H38            3.9189    -8.2809     0.6711 H       
  39 H39            2.4306    -8.4658     1.6297 H       
  40 H40            0.1112    -8.3346    -1.2791 H       
  41 H41            0.7620    -9.8253    -0.5562 H       
  42 H42            0.2070    -8.4972     0.4909 H       
  43 H43           11.3802     1.0238    -2.6925 H       
  44 H44           12.4936     2.3194    -2.1926 H       
  45 H45           11.3898     1.5867    -1.0039 H       
@<TRIPOS>BOND
   1    1    2 ar
   2    1    3 ar
   3    1    7 1
   4    2    6 ar
   5    2   27 1
   6    3    4 ar
   7    3   28 1
   8    4    5 ar
   9    4   29 1
  10    5    6 ar
  11    5   13 1
  12    6   30 1
  13    7    8 am
  14    7    9 2
  15    8   10 am
  16    8   31 1
  17   10   11 2
  18   10   12 2
  19   10   26 1
  20   13   14 1
  21   14   15 ar
  22   14   16 ar
  23   15   19 ar
  24   15   32 1
  25   16   17 ar
  26   16   33 1
  27   17   18 ar
  28   18   19 ar
  29   18   22 1
  30   19   20 1
  31   21   23 1
  32   21   22 1
  33   21   34 1
  34   21   35 1
  35   23   24 1
  36   23   25 1
  37   23   36 1
  38   24   37 1
  39   24   38 1
  40   24   39 1
  41   25   40 1
  42   25   41 1
  43   25   42 1
  44   26   43 1
  45   26   44 1
  46   26   45 1

#	End of record

