#	Name: ASD12340011
#	Creating user name:	WinNT
#	Creation time:	15. 06. 2019 21:30

#	Modifying user name:	WinNT
#	Modification time:	15. 06. 2019 21:30

#	Program:	/corina/corina34_cracker 3.40 0067  02.08.2006

@<TRIPOS>MOLECULE
ASD12340011
   4    3    0    0    0
SMALL
NO_CHARGES


@<TRIPOS>ATOM
   1 N1            -0.0116     1.0048     0.0076 N.3     
   2 H2             0.0021    -0.0041     0.0020 H       
   3 H3             0.9253     1.3792     0.0006 H       
   4 H4            -0.5500     1.3634    -0.7668 H       
@<TRIPOS>BOND
   1    1    2 1
   2    1    3 1
   3    1    4 1

#	End of record

