#	Name: ASD14610002
#	Creating user name:	WinNT
#	Creation time:	15. 06. 2019 21:31

#	Modifying user name:	WinNT
#	Modification time:	15. 06. 2019 21:31

#	Program:	/corina/corina34_cracker 3.40 0067  02.08.2006

@<TRIPOS>MOLECULE
ASD14610002
  21   22    0    0    0
SMALL
NO_CHARGES


@<TRIPOS>ATOM
   1 C1            -0.0162     1.3464     0.0094 C.2     
   2 C2            -4.7654    -4.2403     0.0377 C.3     
   3 S3            -3.9864    -2.6065     0.0283 S.3     
   4 C4            -2.2885    -3.0772     0.0093 C.2     
   5 S5            -1.7111    -4.7312    -0.0042 S.3     
   6 C6            -0.0375    -4.2184    -0.0184 C.2     
   7 C7             0.0717    -2.8675    -0.0131 C.2     
   8 C8             1.3132    -2.0626    -0.0211 C.2     
   9 C9             1.2813    -0.7260    -0.0141 C.2     
  10 C10            0.0021    -0.0041     0.0020 C.2     
  11 C11           -1.2632    -0.7642     0.0105 C.2     
  12 O12           -2.3322    -0.1789     0.0235 O.2     
  13 C13           -1.2234    -2.1908    -0.0031 C.2     
  14 H14            0.9116     1.8990     0.0036 H       
  15 H15           -0.9588     1.8736     0.0168 H       
  16 H16           -4.4479    -4.7891     0.9244 H       
  17 H17           -5.8493    -4.1259     0.0500 H       
  18 H18           -4.4680    -4.7897    -0.8555 H       
  19 H19            0.8042    -4.8951    -0.0299 H       
  20 H20            2.2682    -2.5668    -0.0330 H       
  21 H21            2.2073    -0.1703    -0.0199 H       
@<TRIPOS>BOND
   1    1   10 2
   2    1   14 1
   3    1   15 1
   4    2    3 1
   5    2   16 1
   6    2   17 1
   7    2   18 1
   8    3    4 1
   9    4   13 2
  10    4    5 1
  11    5    6 1
  12    6   19 1
  13    6    7 2
  14    7    8 1
  15    7   13 1
  16    8   20 1
  17    8    9 2
  18    9   21 1
  19    9   10 1
  20   10   11 1
  21   11   13 1
  22   11   12 2

#	End of record

