#	Name: ASD11920006
#	Creating user name:	WinNT
#	Creation time:	15. 06. 2019 21:29

#	Modifying user name:	WinNT
#	Modification time:	15. 06. 2019 21:29

#	Program:	/corina/corina34_cracker 3.40 0067  02.08.2006

@<TRIPOS>MOLECULE
ASD11920006
  21   22    0    0    0
SMALL
NO_CHARGES


@<TRIPOS>ATOM
   1 O1             0.0021    -0.0041     0.0020 O.2     
   2 C2            -0.0143     1.2041     0.0087 C.2     
   3 O3             1.1389     1.8910     0.0013 O.3     
   4 C4            -2.4615     0.9450     0.0189 C.2     
   5 C5            -3.0143     0.4488     1.1078 C.2     
   6 C6            -4.0970    -0.4922     0.8704 C.ar    
   7 C7            -4.8909    -1.1961     1.8010 C.ar    
   8 C8            -5.8679    -2.0424     1.3738 C.ar    
   9 C9            -6.0992    -2.2270     0.0176 C.ar    
  10 C10           -5.3410    -1.5537    -0.9111 C.ar    
  11 C11           -4.3324    -0.6797    -0.4946 C.ar    
  12 S12           -3.2154     0.3065    -1.4293 S.3     
  13 C13           -1.3295     1.9397     0.0189 C.3     
  14 H14            1.9569     1.3754    -0.0092 H       
  15 H15           -2.6876     0.7203     2.1008 H       
  16 H16           -4.7220    -1.0627     2.8593 H       
  17 H17           -6.4680    -2.5752     2.0965 H       
  18 H18           -6.8767    -2.9017    -0.3090 H       
  19 H19           -5.5249    -1.7008    -1.9652 H       
  20 H20           -1.3915     2.5607     0.9126 H       
  21 H21           -1.4000     2.5704    -0.8673 H       
@<TRIPOS>BOND
   1    1    2 2
   2    2    3 1
   3    2   13 1
   4    3   14 1
   5    4    5 2
   6    4   12 1
   7    4   13 1
   8    5    6 1
   9    5   15 1
  10    6    7 ar
  11    6   11 ar
  12    7    8 ar
  13    7   16 1
  14    8    9 ar
  15    8   17 1
  16    9   10 ar
  17    9   18 1
  18   10   11 ar
  19   10   19 1
  20   11   12 1
  21   13   20 1
  22   13   21 1

#	End of record

