#	Name: ASD10410139
#	Creating user name:	WinNT
#	Creation time:	15. 06. 2019 21:26

#	Modifying user name:	WinNT
#	Modification time:	15. 06. 2019 21:26

#	Program:	/corina/corina34_cracker 3.40 0067  02.08.2006

@<TRIPOS>MOLECULE
ASD10410139
  67   73    0    0    0
SMALL
NO_CHARGES


@<TRIPOS>ATOM
   1 C1             0.0480     1.1392     0.2461 C.ar    
   2 C2             0.1835    -0.1899     0.6207 C.ar    
   3 C3             1.4503    -0.7444     0.7698 C.ar    
   4 C4             2.5733     0.0290     0.5447 C.ar    
   5 C5             2.4359     1.3596     0.1698 C.ar    
   6 C6             1.1710     1.9121     0.0212 C.ar    
   7 F7             1.5830    -2.0384     1.1349 F       
   8 N8             3.5734     2.1436    -0.0584 N.pl3   
   9 C9             4.7338     1.5582    -0.5624 C.2     
  10 N10            5.8853     2.1659    -0.7191 N.2     
  11 N11            4.8515     0.2849    -0.9579 N.2     
  12 C12            6.0781     0.0620    -1.3778 C.2     
  13 N13            6.7792     1.2215    -1.2494 N.pl3   
  14 C14            8.1120     1.4290    -1.5764 C.ar    
  15 N15            6.5678    -1.1357    -1.8601 N.pl3   
  16 N16           -0.9558    -0.9733     0.8491 N.3     
  17 C17           -1.7761    -0.4074     1.9291 C.3     
  18 C18           -3.0466    -1.2448     2.0934 C.3     
  19 N19           -2.6782    -2.6363     2.3896 N.3     
  20 C20           -1.8579    -3.2021     1.3096 C.3     
  21 C21           -0.5873    -2.3647     1.1454 C.3     
  22 N22            9.0511     0.5864    -1.1716 N.ar    
  23 C23           10.3255     0.7725    -1.4764 C.ar    
  24 N24           10.7476     1.7887    -2.1906 N.ar    
  25 C25            9.8806     2.7016    -2.6512 C.ar    
  26 C26            8.5038     2.5423    -2.3558 C.ar    
  27 C27           -3.8725    -3.4575     2.6291 C.3     
  28 C28           -3.4748    -4.9534     2.8168 C.3     
  29 C29           -4.5406    -3.0601     3.9652 C.3     
  30 C30           -4.4837    -4.3534     4.8343 C.3     
  31 C31           -4.8323    -5.7205     2.8221 C.3     
  32 C32           -5.5005    -5.3232     4.1582 C.3     
  33 C33           -3.1257    -4.9710     4.3469 C.3     
  34 C34           10.2958     3.7996    -3.4177 C.ar    
  35 C35            9.3730     4.6985    -3.8616 C.ar    
  36 C36            8.0190     4.5441    -3.5654 C.ar    
  37 C37            7.5802     3.4832    -2.8262 C.ar    
  38 F38            7.1291     5.4531    -4.0205 F       
  39 H39           -0.9357     1.5686     0.1260 H       
  40 H40            3.5573    -0.4007     0.6606 H       
  41 H41            1.0647     2.9465    -0.2703 H       
  42 H42            3.5540     3.0941     0.1343 H       
  43 H43            5.9876    -1.9113    -1.9118 H       
  44 H44            7.4920    -1.2014    -2.1471 H       
  45 H45           -1.2098    -0.4194     2.8604 H       
  46 H46           -2.0466     0.6189     1.6808 H       
  47 H47           -3.6429    -0.8441     2.9131 H       
  48 H48           -3.6265    -1.2106     1.1710 H       
  49 H49           -1.5874    -4.2284     1.5579 H       
  50 H50           -2.4242    -3.1902     0.3783 H       
  51 H51            0.0089    -2.7655     0.3256 H       
  52 H52           -0.0075    -2.3989     2.0677 H       
  53 H53           11.0507     0.0556    -1.1207 H       
  54 H54           -4.5768    -3.3522     1.8039 H       
  55 H55           -2.7152    -5.3338     2.1338 H       
  56 H56           -3.9830    -2.2554     4.4443 H       
  57 H57           -5.5750    -2.7597     3.7982 H       
  58 H58           -4.6028    -4.2113     5.9084 H       
  59 H59           -5.4495    -5.4064     1.9804 H       
  60 H60           -4.6609    -6.7964     2.7881 H       
  61 H61           -5.6576    -6.2037     4.7811 H       
  62 H62           -6.4462    -4.8137     3.9734 H       
  63 H63           -2.9796    -5.9842     4.7212 H       
  64 H64           -2.2771    -4.3278     4.5799 H       
  65 H65           11.3411     3.9324    -3.6546 H       
  66 H66            9.6952     5.5438    -4.4515 H       
  67 H67            6.5293     3.3729    -2.6029 H       
@<TRIPOS>BOND
   1    1    2 ar
   2    1    6 ar
   3    1   39 1
   4    2    3 ar
   5    2   16 1
   6    3    4 ar
   7    3    7 1
   8    4    5 ar
   9    4   40 1
  10    5    6 ar
  11    5    8 1
  12    6   41 1
  13    8    9 1
  14    8   42 1
  15    9   10 2
  16    9   11 1
  17   10   13 1
  18   11   12 2
  19   12   13 1
  20   12   15 1
  21   13   14 1
  22   14   22 ar
  23   14   26 ar
  24   15   43 1
  25   15   44 1
  26   16   17 1
  27   16   21 1
  28   17   18 1
  29   17   45 1
  30   17   46 1
  31   18   19 1
  32   18   47 1
  33   18   48 1
  34   19   20 1
  35   19   27 1
  36   20   21 1
  37   20   49 1
  38   20   50 1
  39   21   51 1
  40   21   52 1
  41   22   23 ar
  42   23   24 ar
  43   23   53 1
  44   24   25 ar
  45   25   26 ar
  46   25   34 ar
  47   26   37 ar
  48   27   28 1
  49   27   29 1
  50   27   54 1
  51   28   31 1
  52   28   33 1
  53   28   55 1
  54   29   30 1
  55   29   56 1
  56   29   57 1
  57   30   32 1
  58   30   33 1
  59   30   58 1
  60   31   32 1
  61   31   59 1
  62   31   60 1
  63   32   61 1
  64   32   62 1
  65   33   63 1
  66   33   64 1
  67   34   35 ar
  68   34   65 1
  69   35   36 ar
  70   35   66 1
  71   36   37 ar
  72   36   38 1
  73   37   67 1

#	End of record

