#	Name: ASD11000160
#	Creating user name:	WinNT
#	Creation time:	15. 06. 2019 21:28

#	Modifying user name:	WinNT
#	Modification time:	15. 06. 2019 21:28

#	Program:	/corina/corina34_cracker 3.40 0067  02.08.2006

@<TRIPOS>MOLECULE
ASD11000160
  39   41    0    0    0
SMALL
NO_CHARGES


@<TRIPOS>ATOM
   1 N1            -0.0172     1.3215    -0.0112 N.ar    
   2 C2             0.0016    -0.0034    -0.0060 C.ar    
   3 N3             1.1403    -0.6810    -0.0155 N.ar    
   4 C4             2.3025    -0.0498    -0.0305 C.ar    
   5 C5             2.3192     1.3363    -0.0364 C.ar    
   6 C6             1.1098     2.0136    -0.0261 C.ar    
   7 C7             3.6238     2.0904    -0.0530 C.3     
   8 O8             4.0222     2.3233    -1.4054 O.3     
   9 C9             5.1857     2.9961    -1.5982 C.ar    
  10 N10            5.8948     3.4040    -0.5600 N.ar    
  11 N11            6.9996     4.0430    -0.6952 N.ar    
  12 C12            7.5028     4.3361    -1.8818 C.ar    
  13 C13            6.8269     3.9477    -3.0370 C.ar    
  14 C14            5.6378     3.2533    -2.8910 C.ar    
  15 N15           -1.1973    -0.6965     0.0102 N.pl3   
  16 C16           -1.2008    -2.0923    -0.1029 C.ar    
  17 C17           -2.1492    -2.8423     0.5800 C.ar    
  18 C18           -0.2595    -2.7268    -0.9027 C.ar    
  19 C19           -0.2639    -4.1032    -1.0141 C.ar    
  20 C20           -1.2086    -4.8520    -0.3278 C.ar    
  21 C21           -2.1523    -4.2186     0.4675 C.ar    
  22 O22           -1.2126    -6.2073    -0.4384 O.3     
  23 C23           -2.2134    -6.9153     0.2959 C.3     
  24 F24           -2.0650    -6.6500     1.6615 F       
  25 F25           -3.4815    -6.5001    -0.1247 F       
  26 O26            8.6752     5.0146    -1.9750 O.3     
  27 H27            3.2273    -0.6075    -0.0378 H       
  28 H28            1.0881     3.0934    -0.0307 H       
  29 H29            3.4983     3.0449     0.4583 H       
  30 H30            4.3891     1.5038     0.4553 H       
  31 H31            7.2206     4.1776    -4.0160 H       
  32 H32            5.0738     2.9282    -3.7528 H       
  33 H33           -2.0347    -0.2151     0.0999 H       
  34 H34           -2.8840    -2.3493     1.1993 H       
  35 H35            0.4756    -2.1439    -1.4377 H       
  36 H36            0.4681    -4.5968    -1.6361 H       
  37 H37           -2.8875    -4.8023     1.0016 H       
  38 H38           -2.1045    -7.9854     0.1197 H       
  39 H39            9.4572     4.4464    -2.0033 H       
@<TRIPOS>BOND
   1    1    2 ar
   2    1    6 ar
   3    2    3 ar
   4    2   15 1
   5    3    4 ar
   6    4    5 ar
   7    4   27 1
   8    5    6 ar
   9    5    7 1
  10    6   28 1
  11    7    8 1
  12    7   29 1
  13    7   30 1
  14    8    9 1
  15    9   10 ar
  16    9   14 ar
  17   10   11 ar
  18   11   12 ar
  19   12   13 ar
  20   12   26 1
  21   13   14 ar
  22   13   31 1
  23   14   32 1
  24   15   16 1
  25   15   33 1
  26   16   17 ar
  27   16   18 ar
  28   17   21 ar
  29   17   34 1
  30   18   19 ar
  31   18   35 1
  32   19   20 ar
  33   19   36 1
  34   20   21 ar
  35   20   22 1
  36   21   37 1
  37   22   23 1
  38   23   24 1
  39   23   25 1
  40   23   38 1
  41   26   39 1

#	End of record

