#	Name: ASD11030010
#	Creating user name:	WinNT
#	Creation time:	15. 06. 2019 21:29

#	Modifying user name:	WinNT
#	Modification time:	15. 06. 2019 21:29

#	Program:	/corina/corina34_cracker 3.40 0067  02.08.2006

@<TRIPOS>MOLECULE
ASD11030010
  37   40    0    0    0
SMALL
NO_CHARGES


@<TRIPOS>ATOM
   1 F1             0.4718     0.1747    -2.4824 F       
   2 C2             0.4094     1.5061    -2.2615 C.ar    
   3 C3             1.5669     2.2141    -1.9795 C.ar    
   4 C4             1.5092     3.5733    -1.7536 C.ar    
   5 C5             0.2815     4.2360    -1.8095 C.ar    
   6 C6            -0.8814     3.5177    -2.0940 C.ar    
   7 C7            -0.8112     2.1596    -2.3234 C.ar    
   8 C8             0.2132     5.6920    -1.5679 C.2     
   9 N9             1.2215     6.4721    -1.2942 N.2     
  10 N10            0.9843     7.6977    -1.1161 N.2     
  11 C11           -0.2603     8.0948    -1.2199 C.2     
  12 S12           -1.2461     6.6832    -1.6065 S.3     
  13 N13           -0.7100     9.3658    -1.0631 N.2     
  14 C14            0.1370    10.3339    -0.7793 C.2     
  15 S15           -0.2553    12.0450    -0.5381 S.3     
  16 C16            1.4198    12.5368    -0.2225 C.2     
  17 C17            1.8814    13.7815     0.0563 C.2     
  18 C18            0.9796    14.9384    -0.0393 C.ar    
  19 C19            1.2782    16.1212     0.6460 C.ar    
  20 C20            0.4281    17.2028     0.5516 C.ar    
  21 C21           -0.7186    17.1219    -0.2184 C.ar    
  22 C22           -1.0231    15.9538    -0.9007 C.ar    
  23 C23           -0.1788    14.8642    -0.8207 C.ar    
  24 F24           -2.1454    15.8835    -1.6495 F       
  25 C25            2.1941    11.2942    -0.3303 C.2     
  26 O26            3.3998    11.2616    -0.1695 O.2     
  27 N27            1.4869    10.2118    -0.6084 N.am    
  28 H28            2.5159     1.7004    -1.9362 H       
  29 H29            2.4118     4.1240    -1.5336 H       
  30 H30           -1.8337     4.0253    -2.1384 H       
  31 H31           -1.7101     1.6030    -2.5436 H       
  32 H32            2.9115    13.9225     0.3484 H       
  33 H33            2.1725    16.1868     1.2479 H       
  34 H34            0.6580    18.1159     1.0806 H       
  35 H35           -1.3801    17.9727    -0.2880 H       
  36 H36           -0.4161    13.9548    -1.3526 H       
  37 H37            1.9199     9.3483    -0.6973 H       
@<TRIPOS>BOND
   1    1    2 1
   2    2    3 ar
   3    2    7 ar
   4    3    4 ar
   5    3   28 1
   6    4    5 ar
   7    4   29 1
   8    5    6 ar
   9    5    8 1
  10    6    7 ar
  11    6   30 1
  12    7   31 1
  13    8    9 2
  14    8   12 1
  15    9   10 1
  16   10   11 2
  17   11   12 1
  18   11   13 1
  19   13   14 2
  20   14   15 1
  21   14   27 1
  22   15   16 1
  23   16   17 2
  24   16   25 1
  25   17   18 1
  26   17   32 1
  27   18   19 ar
  28   18   23 ar
  29   19   20 ar
  30   19   33 1
  31   20   21 ar
  32   20   34 1
  33   21   22 ar
  34   21   35 1
  35   22   23 ar
  36   22   24 1
  37   23   36 1
  38   25   26 2
  39   25   27 am
  40   27   37 1

#	End of record

