#	Name: ASD13390008
#	Creating user name:	WinNT
#	Creation time:	15. 06. 2019 21:30

#	Modifying user name:	WinNT
#	Modification time:	15. 06. 2019 21:30

#	Program:	/corina/corina34_cracker 3.40 0067  02.08.2006

@<TRIPOS>MOLECULE
ASD13390008
  24   23    0    0    0
SMALL
NO_CHARGES


@<TRIPOS>ATOM
   1 C1            -0.0166     1.3748     0.0096 C.ar    
   2 C2             0.0021    -0.0041     0.0020 C.ar    
   3 C3             1.2239    -0.6837    -0.0133 C.ar    
   4 C4             2.4199     0.0411    -0.0209 C.ar    
   5 C5             2.3864     1.4203    -0.0132 C.ar    
   6 C6             1.1708     2.0870     0.0021 C.ar    
   7 C7             1.2512    -2.1552    -0.0210 C.2     
   8 N8             2.3932    -2.7865    -0.0354 N.2     
   9 N9             2.4172    -4.0763    -0.0421 N.2     
  10 C10            3.5705    -4.7138    -0.0566 C.2     
  11 N11            4.7452    -4.0061    -0.0645 N.pl3   
  12 N12            3.5959    -6.0851    -0.0637 N.pl3   
  13 Cl13           1.1374     3.8226     0.0112 Cl      
  14 Cl14           3.8693     2.3228    -0.0220 Cl      
  15 H15           -0.9600     1.9006     0.0169 H       
  16 H16           -0.9251    -0.5578     0.0083 H       
  17 H17            3.3672    -0.4775    -0.0324 H       
  18 H18            0.3262    -2.7126    -0.0148 H       
  19 H19            4.7272    -3.0362    -0.0594 H       
  20 H20            5.5941    -4.4753    -0.0751 H       
  21 H21            2.7651    -6.5857    -0.0581 H       
  22 H22            4.4448    -6.5544    -0.0744 H       
  23 Cl23          10.5941     8.8226     5.0169 Cl      
  24 H24           10.5941    10.1926     5.0169 H       
@<TRIPOS>BOND
   1    1    2 ar
   2    1    6 ar
   3    1   15 1
   4    2    3 ar
   5    2   16 1
   6    3    4 ar
   7    3    7 1
   8    4    5 ar
   9    4   17 1
  10    5    6 ar
  11    5   14 1
  12    6   13 1
  13    7    8 2
  14    7   18 1
  15    8    9 1
  16    9   10 2
  17   10   11 1
  18   10   12 1
  19   11   19 1
  20   11   20 1
  21   12   21 1
  22   12   22 1
  23   23   24 1

#	End of record

