#	Name: ASD14640017
#	Creating user name:	WinNT
#	Creation time:	15. 06. 2019 21:31

#	Modifying user name:	WinNT
#	Modification time:	15. 06. 2019 21:31

#	Program:	/corina/corina34_cracker 3.40 0067  02.08.2006

@<TRIPOS>MOLECULE
ASD14640017
  38   40    0    0    0
SMALL
NO_CHARGES


@<TRIPOS>ATOM
   1 C1             0.0029     1.4657    -0.0066 C.3     
   2 N2             0.0069    -0.0035    -0.0020 N.pl3   
   3 C3             0.7800    -0.7046     1.0322 C.3     
   4 C4             2.2203    -0.1833     1.0094 C.3     
   5 C5             2.2097     1.3400     1.1570 C.3     
   6 C6             1.4519     1.9627    -0.0178 C.3     
   7 C7             3.0061    -0.8030     2.1667 C.3     
   8 C8             3.1178    -2.2913     1.9580 C.ar    
   9 C9             4.1366    -2.8058     1.1727 C.ar    
  10 C10            2.2070    -3.1429     2.5549 C.ar    
  11 C11            2.3069    -4.5088     2.3664 C.ar    
  12 C12            3.3177    -5.0289     1.5798 C.ar    
  13 C13           -0.6997    -0.7089    -0.9472 C.2     
  14 N14           -1.5106    -0.0446    -1.8367 N.pl3   
  15 N15           -0.6007    -2.0075    -0.9999 N.2     
  16 C16            6.1072    -3.2344     0.2139 C.3     
  17 O17            5.1484    -2.1959     0.4890 O.3     
  18 C18            4.2370    -4.1818     0.9824 C.ar    
  19 O19            5.3115    -4.4339     0.1793 O.3     
  20 H20           -0.5141     1.8269    -0.8956 H       
  21 H21           -0.5023     1.8326     0.8868 H       
  22 H22            0.3382    -0.5147     2.0103 H       
  23 H23            0.7758    -1.7754     0.8286 H       
  24 H24            2.6903    -0.4539     0.0638 H       
  25 H25            1.7175     1.6108     2.0911 H       
  26 H26            3.2345     1.7111     1.1658 H       
  27 H27            1.9291     1.6719    -0.9536 H       
  28 H28            1.4648     3.0486     0.0756 H       
  29 H29            4.0037    -0.3654     2.2040 H       
  30 H30            2.4875    -0.6056     3.1049 H       
  31 H31            1.4160    -2.7403     3.1701 H       
  32 H32            1.5939    -5.1710     2.8349 H       
  33 H33            3.3936    -6.0964     1.4345 H       
  34 H34           -1.6447     0.9121    -1.7495 H       
  35 H35           -1.9487    -0.5326    -2.5514 H       
  36 H36           -1.0993    -2.5052    -1.6668 H       
  37 H37            6.5884    -3.0660    -0.7495 H       
  38 H38            6.8501    -3.2903     1.0096 H       
@<TRIPOS>BOND
   1    1    2 1
   2    1    6 1
   3    1   20 1
   4    1   21 1
   5    2    3 1
   6    2   13 1
   7    3    4 1
   8    3   22 1
   9    3   23 1
  10    4    5 1
  11    4    7 1
  12    4   24 1
  13    5    6 1
  14    5   25 1
  15    5   26 1
  16    6   27 1
  17    6   28 1
  18    7    8 1
  19    7   29 1
  20    7   30 1
  21    8   10 ar
  22    8    9 ar
  23    9   18 ar
  24    9   17 1
  25   10   11 ar
  26   10   31 1
  27   11   12 ar
  28   11   32 1
  29   12   18 ar
  30   12   33 1
  31   13   14 1
  32   13   15 2
  33   14   34 1
  34   14   35 1
  35   15   36 1
  36   16   17 1
  37   16   19 1
  38   16   37 1
  39   16   38 1
  40   18   19 1

#	End of record

