#	Name: ASD13010046
#	Creating user name:	WinNT
#	Creation time:	15. 06. 2019 21:30

#	Modifying user name:	WinNT
#	Modification time:	15. 06. 2019 21:30

#	Program:	/corina/corina34_cracker 3.40 0067  02.08.2006

@<TRIPOS>MOLECULE
ASD13010046
  51   54    0    0    0
SMALL
NO_CHARGES


@<TRIPOS>ATOM
   1 C1            -0.0166     1.3727     0.0096 C.ar    
   2 C2             0.0021    -0.0041     0.0020 C.ar    
   3 C3             1.2065    -0.6957    -0.0132 C.ar    
   4 C4             2.3946    -0.0227    -0.0205 C.ar    
   5 C5             1.1823     2.0793     0.0019 C.ar    
   6 N6             1.4975     3.4168     0.0061 N.pl3   
   7 C7             2.4010     1.3746    -0.0130 C.ar    
   8 C8             3.4599     2.3856    -0.0178 C.2     
   9 N9             2.8887     3.5599    -0.0064 N.2     
  10 C10            0.5774     4.4639     0.0205 C.ar    
  11 O11            4.7968     2.1453    -0.0313 O.3     
  12 C12            5.6389     3.2157    -0.0337 C.2     
  13 C13           -1.2518     6.5457     0.0491 C.ar    
  14 C14           -1.5429     5.3665    -0.6438 C.ar    
  15 C15           -0.6322     4.3347    -0.6559 C.ar    
  16 C16            0.8680     5.6341     0.7160 C.ar    
  17 C17           -0.0381     6.6699     0.7323 C.ar    
  18 C18           -2.2248     7.6534     0.0640 C.2     
  19 O19           -3.2810     7.5423    -0.5264 O.2     
  20 O20           -1.9427     8.7891     0.7322 O.3     
  21 C21            6.1337     3.8735    -1.1680 C.2     
  22 C22            6.1426     3.8378     1.0612 C.2     
  23 N23            6.9345     4.8531     0.6283 N.pl3   
  24 N24            6.9091     4.8504    -0.7723 N.2     
  25 C25            5.8257     3.5163    -2.5993 C.3     
  26 C26            4.5871     4.2863    -3.0619 C.3     
  27 C27            7.6800     5.7871     1.4757 C.3     
  28 C28            5.8721     3.4700     2.4974 C.3     
  29 C29            4.6468     4.2374     2.9983 C.3     
  30 H30           -0.9579     1.9021     0.0169 H       
  31 H31           -0.9289    -0.5515     0.0083 H       
  32 H32            1.2032    -1.7756    -0.0190 H       
  33 H33            3.3264    -0.5686    -0.0316 H       
  34 H34           -2.4795     5.2672    -1.1722 H       
  35 H35           -0.8563     3.4239    -1.1912 H       
  36 H36            1.8055     5.7292     1.2437 H       
  37 H37            0.1900     7.5793     1.2682 H       
  38 H38           -2.6114     9.4873     0.7132 H       
  39 H39            6.6743     3.7803    -3.2304 H       
  40 H40            5.6366     2.4454    -2.6739 H       
  41 H41            4.3643     4.0280    -4.0971 H       
  42 H42            3.7385     4.0223    -2.4308 H       
  43 H43            4.7762     5.3572    -2.9873 H       
  44 H44            8.6729     5.3838     1.6749 H       
  45 H45            7.7729     6.7458     0.9654 H       
  46 H46            7.1489     5.9266     2.4172 H       
  47 H47            5.6841     2.3987     2.5689 H       
  48 H48            6.7373     3.7286     3.1078 H       
  49 H49            4.4512     3.9714     4.0371 H       
  50 H50            4.8348     5.3087     2.9268 H       
  51 H51            3.7816     3.9788     2.3878 H       
@<TRIPOS>BOND
   1    1    2 ar
   2    1    5 ar
   3    1   30 1
   4    2    3 ar
   5    2   31 1
   6    3    4 ar
   7    3   32 1
   8    4    7 ar
   9    4   33 1
  10    5    7 ar
  11    5    6 1
  12    6    9 1
  13    6   10 1
  14    7    8 1
  15    8    9 2
  16    8   11 1
  17   10   16 ar
  18   10   15 ar
  19   11   12 1
  20   12   22 2
  21   12   21 1
  22   13   14 ar
  23   13   17 ar
  24   13   18 1
  25   14   15 ar
  26   14   34 1
  27   15   35 1
  28   16   17 ar
  29   16   36 1
  30   17   37 1
  31   18   19 2
  32   18   20 1
  33   20   38 1
  34   21   24 2
  35   21   25 1
  36   22   23 1
  37   22   28 1
  38   23   24 1
  39   23   27 1
  40   25   26 1
  41   25   39 1
  42   25   40 1
  43   26   41 1
  44   26   42 1
  45   26   43 1
  46   27   44 1
  47   27   45 1
  48   27   46 1
  49   28   29 1
  50   28   47 1
  51   28   48 1
  52   29   49 1
  53   29   50 1
  54   29   51 1

#	End of record

