#	Name: ASD11140002
#	Creating user name:	WinNT
#	Creation time:	15. 06. 2019 21:29

#	Modifying user name:	WinNT
#	Modification time:	15. 06. 2019 21:29

#	Program:	/corina/corina34_cracker 3.40 0067  02.08.2006

@<TRIPOS>MOLECULE
ASD11140002
  37   39    0    0    0
SMALL
NO_CHARGES


@<TRIPOS>ATOM
   1 C1            -0.0189     1.5439     0.0105 C.3     
   2 C2             0.0021    -0.0041     0.0020 C.3     
   3 C3            -0.1689    -0.3923     1.4835 C.3     
   4 O4            -0.2257     0.8279     2.2412 O.3     
   5 C5            -0.7266     1.8516     1.3547 C.3     
   6 C6             1.0237    -1.2341     1.9417 C.3     
   7 O7             0.8017    -1.6864     3.2789 O.3     
   8 P8             1.8559    -2.6009     4.0816 P.3     
   9 O9             2.1715    -3.8683     3.2563 O.2     
  10 O10            3.1572    -1.8017     4.3160 O.3     
  11 O11            1.2253    -3.0276     5.5002 O.3     
  12 O12           -1.0815    -0.5147    -0.7771 O.3     
  13 O13            1.3089     2.0719     0.0007 O.3     
  14 N14           -0.3542     3.1825     1.8409 N.pl3   
  15 C15           -0.9938     4.3576     1.5529 C.2     
  16 C16           -0.2905     5.3589     2.2322 C.2     
  17 N17            0.7290     4.7573     2.8922 N.2     
  18 C18            0.6904     3.4763     2.6687 C.2     
  19 N19           -2.0606     4.6821     0.8132 N.2     
  20 C20           -2.4628     5.9293     0.7115 C.2     
  21 N21           -1.8196     6.9479     1.3490 N.am    
  22 C22           -0.7348     6.6968     2.1150 C.2     
  23 O23           -0.1525     7.6011     2.6890 O.2     
  24 N24           -3.5620     6.2141    -0.0591 N.pl3   
  25 H25           -0.5952     1.9297    -0.8304 H       
  26 H26            0.9536    -0.3706    -0.3831 H       
  27 H27           -1.0939    -0.9537     1.6151 H       
  28 H28           -1.8082     1.7701     1.2465 H       
  29 H29            1.1366    -2.0939     1.2813 H       
  30 H30            1.9297    -0.6290     1.9085 H       
  31 H31            1.8071    -3.5812     6.0388 H       
  32 H32           -1.0555    -0.2514    -1.7072 H       
  33 H33            1.8229     1.8292    -0.7816 H       
  34 H34            1.3852     2.7544     3.0718 H       
  35 H35           -2.1422     7.8576     1.2528 H       
  36 H36           -4.0301     5.4998    -0.5191 H       
  37 H37           -3.8709     7.1297    -0.1437 H       
@<TRIPOS>BOND
   1    1    2 1
   2    1   13 1
   3    1    5 1
   4    1   25 1
   5    2   12 1
   6    2    3 1
   7    2   26 1
   8    3    4 1
   9    3    6 1
  10    3   27 1
  11    4    5 1
  12    5   14 1
  13    5   28 1
  14    6    7 1
  15    6   29 1
  16    6   30 1
  17    7    8 1
  18    8    9 2
  19    8   10 1
  20    8   11 1
  21   11   31 1
  22   12   32 1
  23   13   33 1
  24   14   15 1
  25   14   18 1
  26   15   16 2
  27   15   19 1
  28   16   17 1
  29   16   22 1
  30   17   18 2
  31   18   34 1
  32   19   20 2
  33   20   21 1
  34   20   24 1
  35   21   22 am
  36   21   35 1
  37   22   23 2
  38   24   36 1
  39   24   37 1

#	End of record

