#	Name: ASD10410211
#	Creating user name:	WinNT
#	Creation time:	15. 06. 2019 21:27

#	Modifying user name:	WinNT
#	Modification time:	15. 06. 2019 21:27

#	Program:	/corina/corina34_cracker 3.40 0067  02.08.2006

@<TRIPOS>MOLECULE
ASD10410211
  53   56    0    0    0
SMALL
NO_CHARGES


@<TRIPOS>ATOM
   1 C1            -0.0183     1.3926    -0.0801 C.ar    
   2 C2            -0.0058     0.0095     0.0248 C.ar    
   3 C3             1.2006    -0.6691     0.1150 C.ar    
   4 C4             2.3904     0.0319     0.1005 C.ar    
   5 C5             2.3788     1.4166    -0.0050 C.ar    
   6 C6             1.1705     2.0952    -0.0953 C.ar    
   7 O7            -1.1769    -0.6815     0.0396 O.3     
   8 N8             3.5843     2.1280    -0.0193 N.pl3   
   9 C9             3.6716     3.3382    -0.7067 C.2     
  10 N10            4.7102     4.1385    -0.7075 N.2     
  11 N11            2.7108     3.8649    -1.4752 N.2     
  12 C12            3.1198     5.0119    -1.9733 C.2     
  13 N13            4.3820     5.2363    -1.5195 N.pl3   
  14 C14            5.1883     6.3355    -1.8033 C.ar    
  15 N15            2.3971     5.8392    -2.8108 N.pl3   
  16 N16            4.7229     7.2900    -2.5932 N.ar    
  17 C17           -1.0898    -2.1036     0.1498 C.3     
  18 C18           -2.4977    -2.7024     0.1501 C.3     
  19 N19           -3.1367    -2.4517    -1.1487 N.3     
  20 C20           -4.3935    -3.2123    -1.2748 C.3     
  21 C21           -5.5167    -2.1945    -1.5646 C.3     
  22 C22           -4.7467    -0.9812    -2.1491 C.3     
  23 C23           -3.4367    -1.0145    -1.3230 C.3     
  24 N24            6.3989     6.4021    -1.2719 N.ar    
  25 C25            7.1943     7.4316    -1.5188 C.ar    
  26 C26            6.7481     8.4475    -2.3436 C.ar    
  27 C27            5.4663     8.3509    -2.8834 C.ar    
  28 C28            8.5701     7.4955    -0.9072 C.3     
  29 O29            4.9881     9.3235    -3.6969 O.3     
  30 H30           -0.9580     1.9198    -0.1545 H       
  31 H31            1.2095    -1.7459     0.1970 H       
  32 H32            3.3296    -0.4966     0.1715 H       
  33 H33            1.1605     3.1720    -0.1773 H       
  34 H34            4.3589     1.7791     0.4489 H       
  35 H35            1.4997     5.5903    -3.0822 H       
  36 H36            2.7870     6.6690    -3.1275 H       
  37 H37           -0.5267    -2.4997    -0.6953 H       
  38 H38           -0.5833    -2.3657     1.0787 H       
  39 H39           -2.4356    -3.7768     0.3231 H       
  40 H40           -3.0888    -2.2406     0.9409 H       
  41 H41           -4.3158    -3.9230    -2.0976 H       
  42 H42           -4.6024    -3.7402    -0.3444 H       
  43 H43           -6.2193    -2.5938    -2.2961 H       
  44 H44           -6.0322    -1.9172    -0.6451 H       
  45 H45           -4.5427    -1.1227    -3.2104 H       
  46 H46           -5.2925    -0.0533    -1.9783 H       
  47 H47           -3.5868    -0.5380    -0.3542 H       
  48 H48           -2.6315    -0.5222    -1.8683 H       
  49 H49            7.3764     9.2985    -2.5614 H       
  50 H50            9.2871     7.0178    -1.5749 H       
  51 H51            8.8526     8.5374    -0.7561 H       
  52 H52            8.5658     6.9775     0.0519 H       
  53 H53            5.1767     9.1801    -4.6344 H       
@<TRIPOS>BOND
   1    1    2 ar
   2    1    6 ar
   3    1   30 1
   4    2    3 ar
   5    2    7 1
   6    3    4 ar
   7    3   31 1
   8    4    5 ar
   9    4   32 1
  10    5    6 ar
  11    5    8 1
  12    6   33 1
  13    7   17 1
  14    8    9 1
  15    8   34 1
  16    9   10 2
  17    9   11 1
  18   10   13 1
  19   11   12 2
  20   12   13 1
  21   12   15 1
  22   13   14 1
  23   14   16 ar
  24   14   24 ar
  25   15   35 1
  26   15   36 1
  27   16   27 ar
  28   17   18 1
  29   17   37 1
  30   17   38 1
  31   18   19 1
  32   18   39 1
  33   18   40 1
  34   19   20 1
  35   19   23 1
  36   20   21 1
  37   20   41 1
  38   20   42 1
  39   21   22 1
  40   21   43 1
  41   21   44 1
  42   22   23 1
  43   22   45 1
  44   22   46 1
  45   23   47 1
  46   23   48 1
  47   24   25 ar
  48   25   26 ar
  49   25   28 1
  50   26   27 ar
  51   26   49 1
  52   27   29 1
  53   28   50 1
  54   28   51 1
  55   28   52 1
  56   29   53 1

#	End of record

