#	Name: ASD10610140
#	Creating user name:	WinNT
#	Creation time:	15. 06. 2019 21:28

#	Modifying user name:	WinNT
#	Modification time:	15. 06. 2019 21:28

#	Program:	/corina/corina34_cracker 3.40 0067  02.08.2006

@<TRIPOS>MOLECULE
ASD10610140
  19   20    0    0    0
SMALL
NO_CHARGES


@<TRIPOS>ATOM
   1 N1            -0.0178     1.4648     0.0101 N.3     
   2 C2            -1.6495    -1.6324    -0.7878 C.ar    
   3 C3            -1.4152    -0.5213     0.0128 C.ar    
   4 C4             0.0021    -0.0041     0.0020 C.3     
   5 C5             0.7478    -0.4958    -1.2541 C.3     
   6 S6            -0.1290    -2.0698    -1.5911 S.3     
   7 C7            -2.4896    -0.0019     0.7364 C.ar    
   8 C8            -3.7400    -0.5745     0.6617 C.ar    
   9 C9            -3.9590    -1.6831    -0.1368 C.ar    
  10 C10           -2.9093    -2.2087    -0.8654 C.ar    
  11 Br11          -5.6770    -2.4672    -0.2334 Br      
  12 H12            0.9191     1.8392     0.0032 H       
  13 H13           -0.5563     1.8234    -0.7642 H       
  14 H14            0.5222    -0.3615     0.8907 H       
  15 H15            0.6283     0.2046    -2.0807 H       
  16 H16            1.8021    -0.6719    -1.0407 H       
  17 H17           -2.3380     0.8628     1.3655 H       
  18 H18           -4.5561    -0.1550     1.2313 H       
  19 H19           -3.0684    -3.0739    -1.4919 H       
@<TRIPOS>BOND
   1    1    4 1
   2    1   12 1
   3    1   13 1
   4    2    3 ar
   5    2    6 1
   6    2   10 ar
   7    3    4 1
   8    3    7 ar
   9    4    5 1
  10    4   14 1
  11    5    6 1
  12    5   15 1
  13    5   16 1
  14    7    8 ar
  15    7   17 1
  16    8    9 ar
  17    8   18 1
  18    9   10 ar
  19    9   11 1
  20   10   19 1

#	End of record

