#	Name: ASD13370001
#	Creating user name:	WinNT
#	Creation time:	15. 06. 2019 21:30

#	Modifying user name:	WinNT
#	Modification time:	15. 06. 2019 21:30

#	Program:	/corina/corina34_cracker 3.40 0067  02.08.2006

@<TRIPOS>MOLECULE
ASD13370001
  70   73    0    0    0
SMALL
NO_CHARGES


@<TRIPOS>ATOM
   1 C1            -0.0168     1.3892     0.0097 C.ar    
   2 C2             0.0021    -0.0041     0.0020 C.ar    
   3 C3             1.2144    -0.6755     0.0188 C.ar    
   4 C4             2.4031     0.0188    -0.0044 C.ar    
   5 C5             2.3892     1.4135    -0.0130 C.ar    
   6 C6             1.1729     2.0945     0.0021 C.ar    
   7 C7             3.6651     2.1701    -0.0377 C.ar    
   8 C8             3.6501     3.5640    -0.0463 C.ar    
   9 C9             4.8416     4.2657    -0.0693 C.ar    
  10 C10            6.0534     3.5791    -0.0839 C.ar    
  11 C11            6.0671     2.1930    -0.0758 C.ar    
  12 C12            4.8803     1.4885    -0.0466 C.ar    
  13 O13           -1.2030     2.0543     0.0189 O.3     
  14 C14           -1.1461     3.4821     0.0264 C.3     
  15 C15           -2.5672     4.0491     0.0362 C.3     
  16 C16           -4.5965     5.7113    -1.1920 C.3     
  17 N17           -4.6289     4.2453    -1.2719 N.3     
  18 C18           -3.2722     3.6835    -1.2720 C.3     
  19 C19           -2.5085     5.5733     0.1700 C.3     
  20 C20           -3.9311     6.1374     0.1186 C.3     
  21 C21           -5.3836     3.7989    -2.4506 C.3     
  22 O22           -1.1606    -0.7029    -0.0717 O.3     
  23 C23            1.2085    -2.1879     0.1088 C.3     
  24 C24           -1.4157    -1.3630    -1.3162 C.3     
  25 N25            0.6242    -2.7314    -1.1218 N.am    
  26 C26           -0.8288    -2.7668    -1.2974 C.3     
  27 C27            1.4290    -3.2005    -2.0958 C.2     
  28 C28            0.8326    -3.7598    -3.3618 C.3     
  29 O29            2.6331    -3.1726    -1.9535 O.2     
  30 C30            1.9549    -4.2198    -4.2943 C.3     
  31 O31            4.8302     5.6256    -0.0782 O.3     
  32 C32            3.5516     6.2637    -0.0627 C.3     
  33 O33            7.2246     4.2695    -0.1066 O.3     
  34 C34            8.4299     3.5020    -0.1206 C.3     
  35 H35            3.3424    -0.5142    -0.0156 H       
  36 H36            1.1596     3.1744     0.0076 H       
  37 H37            2.7097     4.0950    -0.0353 H       
  38 H38            7.0082     1.6633    -0.0879 H       
  39 H39            4.8936     0.4086    -0.0354 H       
  40 H40           -0.6140     3.8199     0.9157 H       
  41 H41           -0.6225     3.8296    -0.8642 H       
  42 H42           -3.1200     3.6309     0.8774 H       
  43 H43           -4.0289     6.1084    -2.0335 H       
  44 H44           -5.6146     6.0993    -1.2254 H       
  45 H45           -2.7107     4.0901    -2.1131 H       
  46 H46           -3.3283     2.5988    -1.3635 H       
  47 H47           -2.0459     5.8379     1.1208 H       
  48 H48           -1.9221     5.9886    -0.6496 H       
  49 H49           -3.8932     7.2255     0.1705 H       
  50 H50           -4.5060     5.7522     0.9607 H       
  51 H51           -4.9537     4.2447    -3.3475 H       
  52 H52           -5.3327     2.7126    -2.5245 H       
  53 H53           -6.4243     4.1082    -2.3541 H       
  54 H54            2.2301    -2.5514     0.2198 H       
  55 H55            0.6119    -2.5007     0.9657 H       
  56 H56           -2.4918    -1.4237    -1.4788 H       
  57 H57           -0.9620    -0.7929    -2.1269 H       
  58 H58           -1.2742    -3.3292    -0.4767 H       
  59 H59           -1.0628    -3.2645    -2.2385 H       
  60 H60            0.1923    -4.6075    -3.1181 H       
  61 H61            0.2420    -2.9888    -3.8567 H       
  62 H62            1.5236    -4.6243    -5.2100 H       
  63 H63            2.5952    -3.3720    -4.5380 H       
  64 H64            2.5455    -4.9907    -3.7995 H       
  65 H65            3.6853     7.3454    -0.0719 H       
  66 H66            2.9834     5.9603    -0.9420 H       
  67 H67            3.0109     5.9721     0.8377 H       
  68 H68            8.4466     2.8678    -1.0069 H       
  69 H69            9.2882     4.1737    -0.1382 H       
  70 H70            8.4744     2.8791     0.7728 H       
@<TRIPOS>BOND
   1    1    2 ar
   2    1    6 ar
   3    1   13 1
   4    2    3 ar
   5    2   22 1
   6    3    4 ar
   7    3   23 1
   8    4    5 ar
   9    4   35 1
  10    5    6 ar
  11    5    7 1
  12    6   36 1
  13    7    8 ar
  14    7   12 ar
  15    8    9 ar
  16    8   37 1
  17    9   10 ar
  18    9   31 1
  19   10   11 ar
  20   10   33 1
  21   11   12 ar
  22   11   38 1
  23   12   39 1
  24   13   14 1
  25   14   15 1
  26   14   40 1
  27   14   41 1
  28   15   19 1
  29   15   18 1
  30   15   42 1
  31   16   17 1
  32   16   20 1
  33   16   43 1
  34   16   44 1
  35   17   18 1
  36   17   21 1
  37   18   45 1
  38   18   46 1
  39   19   20 1
  40   19   47 1
  41   19   48 1
  42   20   49 1
  43   20   50 1
  44   21   51 1
  45   21   52 1
  46   21   53 1
  47   22   24 1
  48   23   25 1
  49   23   54 1
  50   23   55 1
  51   24   26 1
  52   24   56 1
  53   24   57 1
  54   25   27 am
  55   25   26 1
  56   26   58 1
  57   26   59 1
  58   27   28 1
  59   27   29 2
  60   28   30 1
  61   28   60 1
  62   28   61 1
  63   30   62 1
  64   30   63 1
  65   30   64 1
  66   31   32 1
  67   32   65 1
  68   32   66 1
  69   32   67 1
  70   33   34 1
  71   34   68 1
  72   34   69 1
  73   34   70 1

#	End of record

