#	Name: ASD10220024
#	Creating user name:	WinNT
#	Creation time:	15. 06. 2019 21:26

#	Modifying user name:	WinNT
#	Modification time:	15. 06. 2019 21:26

#	Program:	/corina/corina34_cracker 3.40 0067  02.08.2006

@<TRIPOS>MOLECULE
ASD10220024
  30   32    0    0    0
SMALL
NO_CHARGES


@<TRIPOS>ATOM
   1 C1            -0.0060     1.4629    -0.1715 C.2     
   2 C2             0.0241     0.0559    -0.3205 C.2     
   3 C3            -1.1131    -0.6716    -0.3783 C.2     
   4 C4            -2.4358    -0.0536    -0.2904 C.2     
   5 C5            -2.5493     1.3196    -0.1430 C.2     
   6 C6            -1.3371     2.1505    -0.0697 C.2     
   7 O7            -3.6783    -0.5718    -0.3242 O.3     
   8 C8            -4.6080     0.3782    -0.2078 C.2     
   9 C9            -3.9873     1.6054    -0.0884 C.2     
  10 O10           -1.4109     3.3544     0.0592 O.2     
  11 O11            1.0260     2.1021    -0.1217 O.2     
  12 C12           -4.6313     2.9211     0.0615 C.2     
  13 O13           -3.9539     3.9098     0.2660 O.2     
  14 C14           -6.1031     3.0401    -0.0368 C.ar    
  15 C15           -6.7696     4.0526     0.6562 C.ar    
  16 C16           -8.1398     4.1636     0.5642 C.ar    
  17 C17           -8.8620     3.2633    -0.2216 C.ar    
  18 C18           -8.1956     2.2507    -0.9146 C.ar    
  19 C19           -6.8248     2.1432    -0.8272 C.ar    
  20 C20          -10.3331     3.3819    -0.3195 C.2     
  21 O21          -11.0298     2.5134    -1.0775 O.3     
  22 Br22           1.6928    -0.8254    -0.4422 Br      
  23 Br23          -0.9905    -2.5478    -0.5798 Br      
  24 O24          -10.9128     4.2623     0.2836 O.2     
  25 H25           -5.6754     0.2134    -0.2075 H       
  26 H26           -6.2111     4.7486     1.2645 H       
  27 H27           -8.6554     4.9468     1.1002 H       
  28 H28           -8.7543     1.5542    -1.5221 H       
  29 H29           -6.3093     1.3603    -1.3635 H       
  30 H30          -11.9890     2.6308    -1.1105 H       
@<TRIPOS>BOND
   1    1    2 1
   2    1   11 2
   3    1    6 1
   4    2    3 2
   5    2   22 1
   6    3    4 1
   7    3   23 1
   8    4    5 2
   9    4    7 1
  10    5    6 1
  11    5    9 1
  12    6   10 2
  13    7    8 1
  14    8    9 2
  15    8   25 1
  16    9   12 1
  17   12   13 2
  18   12   14 1
  19   14   15 ar
  20   14   19 ar
  21   15   16 ar
  22   15   26 1
  23   16   17 ar
  24   16   27 1
  25   17   18 ar
  26   17   20 1
  27   18   19 ar
  28   18   28 1
  29   19   29 1
  30   20   21 1
  31   20   24 2
  32   21   30 1

#	End of record

