#	Name: ASD17010001
#	Creating user name:	WinNT
#	Creation time:	15. 06. 2019 21:31

#	Modifying user name:	WinNT
#	Modification time:	15. 06. 2019 21:31

#	Program:	/corina/corina34_cracker 3.40 0067  02.08.2006

@<TRIPOS>MOLECULE
ASD17010001
  57   60    0    0    0
SMALL
NO_CHARGES


@<TRIPOS>ATOM
   1 S1            -0.5684     3.5465    -0.1606 S.3     
   2 S2            -4.0351     6.5795     3.4689 S.3     
   3 O3            -2.2457    -0.4277     1.4003 O.2     
   4 O4             2.3490    -0.0855     2.5762 O.3     
   5 O5             0.3198    -0.9611     2.3620 O.2     
   6 O6            -5.1781     1.7943    -0.2909 O.2     
   7 O7            -7.3341     2.5066     0.5746 O.3     
   8 N8             3.8054     1.5755     0.9662 N.4     
   9 N9            -0.6010     1.0079     0.6097 N.am    
  10 N10           -3.2402     2.5450     0.4912 N.am    
  11 N11           -6.6429     3.5729     1.1993 N.2     
  12 N12           -3.2951     4.8061     1.8523 N.2     
  13 N13           -1.4235     6.0737     2.6001 N.pl3   
  14 C14            5.0497     1.4242     1.7501 C.3     
  15 C15            4.0568     2.5228    -0.1354 C.3     
  16 C16            2.7367     2.0945     1.8302 C.3     
  17 C17            6.1855     1.7994     0.7659 C.3     
  18 C18            5.5346     2.9562    -0.0374 C.3     
  19 C19            3.4077     0.2737     0.4138 C.3     
  20 C20            1.4371     2.1102     1.0675 C.2     
  21 C21           -1.0676     1.8326    -0.5369 C.3     
  22 C22           -2.5005     1.4767    -0.1854 C.3     
  23 C23            0.6504     1.0568     1.2399 C.2     
  24 C24            1.1961     3.3104     0.2117 C.3     
  25 C25           -1.8209     0.5019     0.7471 C.2     
  26 C26            1.0909    -0.0613     2.0935 C.2     
  27 C27           -4.5850     2.5875     0.4131 C.2     
  28 C28           -5.3404     3.6015     1.1858 C.2     
  29 C29           -4.6159     4.6458     1.9416 C.2     
  30 C30           -5.2430     5.5042     2.7696 C.2     
  31 C31           -2.7707     5.7558     2.5618 C.2     
  32 C32           -8.7569     2.6034     0.6663 C.3     
  33 H33            2.5918    -0.8391     3.1314 H       
  34 H34           -2.7620     3.2219     0.9953 H       
  35 H35           -1.1129     6.8023     3.1601 H       
  36 H36           -0.7904     5.5679     2.0670 H       
  37 H37            5.0463     2.1037     2.6024 H       
  38 H38            5.1627     0.3939     2.0876 H       
  39 H39            3.8763     2.0344    -1.0929 H       
  40 H40            3.4057     3.3911    -0.0336 H       
  41 H41            2.6357     1.4549     2.7071 H       
  42 H42            2.9848     3.1077     2.1463 H       
  43 H43            7.0688     2.1455     1.3026 H       
  44 H44            6.4307     0.9606     0.1145 H       
  45 H45            5.9798     3.0347    -1.0293 H       
  46 H46            5.6249     3.8987     0.5025 H       
  47 H47            3.5103    -0.4933     1.1814 H       
  48 H48            2.3700     0.3208     0.0837 H       
  49 H49            4.0477     0.0277    -0.4335 H       
  50 H50           -0.7329     1.4850    -1.5143 H       
  51 H51           -3.0597     1.0093    -0.9960 H       
  52 H52            1.7424     3.1929    -0.7241 H       
  53 H53            1.5698     4.1942     0.7288 H       
  54 H54           -6.3038     5.5285     2.9707 H       
  55 H55           -9.2123     1.7500     0.1640 H       
  56 H56           -9.0539     2.6087     1.7151 H       
  57 H57           -9.0898     3.5255     0.1898 H       
@<TRIPOS>BOND
   1    1   21 1
   2    1   24 1
   3    2   30 1
   4    2   31 1
   5    3   25 2
   6    4   33 1
   7    4   26 1
   8    5   26 2
   9    6   27 2
  10    7   32 1
  11    7   11 1
  12    8   14 1
  13    8   16 1
  14    8   15 1
  15    8   19 1
  16    9   21 1
  17    9   23 1
  18    9   25 am
  19   10   34 1
  20   10   22 1
  21   10   27 am
  22   11   28 2
  23   12   29 1
  24   12   31 2
  25   13   31 1
  26   13   35 1
  27   13   36 1
  28   14   37 1
  29   14   38 1
  30   14   17 1
  31   15   39 1
  32   15   40 1
  33   15   18 1
  34   16   41 1
  35   16   42 1
  36   16   20 1
  37   17   43 1
  38   17   44 1
  39   17   18 1
  40   18   45 1
  41   18   46 1
  42   19   47 1
  43   19   48 1
  44   19   49 1
  45   20   24 1
  46   20   23 2
  47   21   50 1
  48   21   22 1
  49   22   51 1
  50   22   25 1
  51   23   26 1
  52   24   52 1
  53   24   53 1
  54   27   28 1
  55   28   29 1
  56   29   30 2
  57   30   54 1
  58   32   55 1
  59   32   56 1
  60   32   57 1

#	End of record

