#	Name: ASD10438004
#	Creating user name:	WinNT
#	Creation time:	15. 06. 2019 21:27

#	Modifying user name:	WinNT
#	Modification time:	15. 06. 2019 21:27

#	Program:	/corina/corina34_cracker 3.40 0067  02.08.2006

@<TRIPOS>MOLECULE
ASD10438004
  16   17    0    0    0
SMALL
NO_CHARGES


@<TRIPOS>ATOM
   1 N1            -0.0165     1.3639     0.0095 N.pl3   
   2 C2             0.0021    -0.0041     0.0020 C.2     
   3 C3             1.2701    -0.4445    -0.0124 C.2     
   4 C4             2.1345     0.7382    -0.0143 C.ar    
   5 C5             3.5182     0.9280    -0.0272 C.ar    
   6 C6             4.0303     2.2072    -0.0259 C.ar    
   7 C7             3.1774     3.3051    -0.0114 C.ar    
   8 C8             1.8111     3.1324     0.0014 C.ar    
   9 C9             1.2731     1.8497    -0.0002 C.ar    
  10 F10            5.3681     2.3956    -0.0383 F       
  11 H11           -0.8179     1.9104     0.0164 H       
  12 H12           -0.8737    -0.6360     0.0075 H       
  13 H13            1.5920    -1.4754    -0.0205 H       
  14 H14            4.1830     0.0770    -0.0378 H       
  15 H15            3.5903     4.3030    -0.0098 H       
  16 H16            1.1579     3.9924     0.0129 H       
@<TRIPOS>BOND
   1    1    2 1
   2    1    9 1
   3    1   11 1
   4    2    3 2
   5    2   12 1
   6    3    4 1
   7    3   13 1
   8    4    5 ar
   9    4    9 ar
  10    5    6 ar
  11    5   14 1
  12    6    7 ar
  13    6   10 1
  14    7    8 ar
  15    7   15 1
  16    8    9 ar
  17    8   16 1

#	End of record

