#	Name: ASD15500004
#	Creating user name:	WinNT
#	Creation time:	15. 06. 2019 21:31

#	Modifying user name:	WinNT
#	Modification time:	15. 06. 2019 21:31

#	Program:	/corina/corina34_cracker 3.40 0067  02.08.2006

@<TRIPOS>MOLECULE
ASD15500004
  61   65    0    0    0
SMALL
NO_CHARGES


@<TRIPOS>ATOM
   1 C1            -0.0178     1.4642     0.0101 C.3     
   2 N2             0.0021    -0.0041     0.0020 N.3     
   3 C3             0.6459    -0.5197    -1.2129 C.3     
   4 C4             2.1009    -0.0479    -1.2603 C.3     
   5 C5             2.1366     1.4828    -1.2517 C.3     
   6 C6             1.4174     1.9953    -0.0008 C.3     
   7 C7             3.5682     1.9532    -1.2377 C.ar    
   8 C8             4.4068     1.5937    -0.1929 C.ar    
   9 C9             5.7246     2.0280    -0.1832 C.ar    
  10 C10            6.1982     2.8168    -1.2134 C.ar    
  11 C11            5.3600     3.1742    -2.2536 C.ar    
  12 C12            4.0482     2.7381    -2.2685 C.ar    
  13 C13           -1.3536    -0.5498     0.1516 C.3     
  14 C14           -1.3282    -2.0572    -0.1093 C.3     
  15 C15           -2.7402    -2.6255     0.0464 C.3     
  16 N16           -2.7159    -4.0689    -0.2034 N.pl3   
  17 C17           -2.5057    -5.0354     0.7640 C.ar    
  18 C18           -2.5525    -6.2951     0.1481 C.ar    
  19 C19           -2.8084    -6.0516    -1.2834 C.ar    
  20 C20           -2.9057    -4.6607    -1.4394 C.ar    
  21 C21           -2.9579    -6.8894    -2.3857 C.ar    
  22 C22           -3.1958    -6.3472    -3.6306 C.ar    
  23 C23           -3.2860    -4.9729    -3.7877 C.ar    
  24 C24           -3.1533    -4.1329    -2.7027 C.ar    
  25 C25           -2.3695    -7.4492     0.9057 C.ar    
  26 C26           -2.1424    -7.3493     2.2617 C.ar    
  27 C27           -2.0963    -6.1056     2.8719 C.ar    
  28 C28           -2.2754    -4.9552     2.1338 C.ar    
  29 O29            1.4799     1.9824    -2.4184 O.3     
  30 O30            3.9384     0.8178     0.8198 O.3     
  31 C31            4.8581     0.4868     1.8622 C.3     
  32 H32           -0.5453     1.8252    -0.8729 H       
  33 H33           -0.5283     1.8156     0.9068 H       
  34 H34            0.6175    -1.6093    -1.2045 H       
  35 H35            0.1153    -0.1495    -2.0901 H       
  36 H36            2.6356    -0.4293    -0.3904 H       
  37 H37            2.5740    -0.4178    -2.1699 H       
  38 H38            1.4021     3.0851    -0.0105 H       
  39 H39            1.9414     1.6460     0.8890 H       
  40 H40            6.3794     1.7497     0.6293 H       
  41 H41            7.2238     3.1551    -1.2063 H       
  42 H42            5.7320     3.7917    -3.0579 H       
  43 H43            3.3968     3.0148    -3.0843 H       
  44 H44           -1.7111    -0.3622     1.1641 H       
  45 H45           -2.0200    -0.0683    -0.5641 H       
  46 H46           -0.9707    -2.2447    -1.1218 H       
  47 H47           -0.6618    -2.5386     0.6063 H       
  48 H48           -3.0977    -2.4380     1.0589 H       
  49 H49           -3.4066    -2.1441    -0.6692 H       
  50 H50           -2.8874    -7.9604    -2.2657 H       
  51 H51           -3.3120    -6.9954    -4.4866 H       
  52 H52           -3.4723    -4.5571    -4.7669 H       
  53 H53           -3.2274    -3.0636    -2.8357 H       
  54 H54           -2.4057    -8.4193     0.4324 H       
  55 H55           -2.0003    -8.2433     2.8507 H       
  56 H56           -1.9186    -6.0372     3.9350 H       
  57 H57           -2.2372    -3.9911     2.6191 H       
  58 H58            1.4649     2.9474    -2.4785 H       
  59 H59            4.3573    -0.1345     2.6047 H       
  60 H60            5.7028    -0.0589     1.4418 H       
  61 H61            5.2156     1.4015     2.3353 H       
@<TRIPOS>BOND
   1    1    2 1
   2    1    6 1
   3    1   32 1
   4    1   33 1
   5    2    3 1
   6    2   13 1
   7    3    4 1
   8    3   34 1
   9    3   35 1
  10    4    5 1
  11    4   36 1
  12    4   37 1
  13    5    6 1
  14    5    7 1
  15    5   29 1
  16    6   38 1
  17    6   39 1
  18    7    8 ar
  19    7   12 ar
  20    8    9 ar
  21    8   30 1
  22    9   10 ar
  23    9   40 1
  24   10   11 ar
  25   10   41 1
  26   11   12 ar
  27   11   42 1
  28   12   43 1
  29   13   14 1
  30   13   44 1
  31   13   45 1
  32   14   15 1
  33   14   46 1
  34   14   47 1
  35   15   16 1
  36   15   48 1
  37   15   49 1
  38   16   17 1
  39   16   20 1
  40   17   28 ar
  41   17   18 ar
  42   18   19 1
  43   18   25 ar
  44   19   21 ar
  45   19   20 ar
  46   20   24 ar
  47   21   22 ar
  48   21   50 1
  49   22   23 ar
  50   22   51 1
  51   23   24 ar
  52   23   52 1
  53   24   53 1
  54   25   26 ar
  55   25   54 1
  56   26   27 ar
  57   26   55 1
  58   27   28 ar
  59   27   56 1
  60   28   57 1
  61   29   58 1
  62   30   31 1
  63   31   59 1
  64   31   60 1
  65   31   61 1

#	End of record

