#	Name: ASD13040008
#	Creating user name:	WinNT
#	Creation time:	15. 06. 2019 21:30

#	Modifying user name:	WinNT
#	Modification time:	15. 06. 2019 21:30

#	Program:	/corina/corina34_cracker 3.40 0067  02.08.2006

@<TRIPOS>MOLECULE
ASD13040008
  55   58    0    0    0
SMALL
NO_CHARGES


@<TRIPOS>ATOM
   1 C1            -0.0170     1.4721     0.0236 C.2     
   2 C2             0.0920     4.2324     0.0509 C.2     
   3 C3             0.0024    -0.0037     0.0076 C.2     
   4 O4             4.4711    -4.2120    -1.6364 O.2     
   5 O5             3.5252    -6.3294    -0.7040 O.2     
   6 O6             0.2163     5.4434     0.0620 O.2     
   7 C7            -2.5288     1.5569     0.0417 C.ar    
   8 C8            -2.4179     4.3539     0.0739 C.ar    
   9 C9             1.2521    -4.8157     0.2885 C.ar    
  10 C10            0.3036    -4.0900     0.9861 C.ar    
  11 C11            2.9269    -4.5405    -4.0001 C.3     
  12 C12            1.9666    -6.6901    -3.0535 C.3     
  13 C13            0.2751    -2.7130     0.8868 C.ar    
  14 C14            3.6959     3.2566     2.0728 C.ar    
  15 C15            2.6797     5.4242     2.1059 C.ar    
  16 C16           -3.6847     2.3091     0.0577 C.ar    
  17 C17           -3.6300     3.6962     0.0750 C.ar    
  18 C18            3.1214     5.6115     3.4023 C.ar    
  19 C19            4.1332     3.4417     3.3711 C.ar    
  20 C20            3.8453     4.6189     4.0361 C.ar    
  21 N21            1.1050     2.1503     0.0181 N.2     
  22 S22            3.3843    -5.0944    -1.3926 S.o2    
  23 N23            1.1744     3.4277     0.0305 N.am    
  24 C24           -1.2962     2.2000     0.0397 C.ar    
  25 C25           -1.2407     3.6133     0.0540 C.ar    
  26 C26            2.1781    -4.1651    -0.5059 C.ar    
  27 N27            1.1783    -0.6620    -0.0127 N.am    
  28 N28            2.7343    -5.4556    -2.8723 N.am    
  29 C29            2.1587    -2.7876    -0.6051 C.ar    
  30 C30            2.5007     4.0499     0.0216 C.3     
  31 C31            1.2005    -2.0567     0.0851 C.ar    
  32 O32           -1.0425    -0.6255     0.0128 O.2     
  33 C33            2.9716     4.2490     1.4393 C.ar    
  34 H34           -2.5806     0.4782     0.0312 H       
  35 H35           -2.3830     5.4332     0.0879 H       
  36 H36            1.2722    -5.8926     0.3678 H       
  37 H37           -0.4157    -4.6009     1.6089 H       
  38 H38            3.8361    -4.8115    -4.5366 H       
  39 H39            2.0730    -4.6097    -4.6740 H       
  40 H40            3.0148    -3.5196    -3.6286 H       
  41 H41            2.6377    -7.4942    -3.3554 H       
  42 H42            1.4796    -6.9562    -2.1154 H       
  43 H43            1.2114    -6.5384    -3.8247 H       
  44 H44           -0.4660    -2.1470     1.4316 H       
  45 H45            3.9240     2.3383     1.5520 H       
  46 H46            2.1141     6.1997     1.6108 H       
  47 H47           -4.6441     1.8130     0.0593 H       
  48 H48           -4.5470     4.2666     0.0907 H       
  49 H49            2.9013     6.5335     3.9200 H       
  50 H50            4.6987     2.6662     3.8662 H       
  51 H51            4.1869     4.7636     5.0503 H       
  52 H52            2.0091    -0.1683    -0.0953 H       
  53 H53            2.8795    -2.2804    -1.2292 H       
  54 H54            3.2017     3.4036    -0.5067 H       
  55 H55            2.4459     5.0150    -0.4820 H       
@<TRIPOS>BOND
   1    1    3 1
   2    1   21 2
   3    1   24 1
   4    2   23 am
   5    2   25 1
   6    2    6 2
   7    3   27 am
   8    3   32 2
   9    4   22 2
  10    5   22 2
  11    7   34 1
  12    7   16 ar
  13    7   24 ar
  14    8   25 ar
  15    8   17 ar
  16    8   35 1
  17    9   10 ar
  18    9   36 1
  19    9   26 ar
  20   10   37 1
  21   10   13 ar
  22   11   28 1
  23   11   38 1
  24   11   39 1
  25   11   40 1
  26   12   41 1
  27   12   42 1
  28   12   43 1
  29   12   28 1
  30   13   44 1
  31   13   31 ar
  32   14   33 ar
  33   14   45 1
  34   14   19 ar
  35   15   46 1
  36   15   18 ar
  37   15   33 ar
  38   16   47 1
  39   16   17 ar
  40   17   48 1
  41   18   49 1
  42   18   20 ar
  43   19   20 ar
  44   19   50 1
  45   20   51 1
  46   21   23 1
  47   22   28 am
  48   22   26 1
  49   23   30 1
  50   24   25 ar
  51   26   29 ar
  52   27   31 1
  53   27   52 1
  54   29   31 ar
  55   29   53 1
  56   30   54 1
  57   30   55 1
  58   30   33 1

#	End of record

