#	Name: ASD11030071
#	Creating user name:	WinNT
#	Creation time:	15. 06. 2019 21:29

#	Modifying user name:	WinNT
#	Modification time:	15. 06. 2019 21:29

#	Program:	/corina/corina34_cracker 3.40 0067  02.08.2006

@<TRIPOS>MOLECULE
ASD11030071
  31   31    0    0    0
SMALL
NO_CHARGES


@<TRIPOS>ATOM
   1 C1             0.0642     1.1156    -0.6913 C.ar    
   2 C2             0.0053    -0.2679    -0.5370 C.ar    
   3 C3            -1.1894    -0.8860    -0.3032 C.ar    
   4 C4            -2.3655    -0.1307    -0.2175 C.ar    
   5 C5            -2.3102     1.2659    -0.3727 C.ar    
   6 C6            -1.0932     1.8806    -0.6034 C.ar    
   7 C7            -3.6499    -0.7936     0.0326 C.2     
   8 C8            -3.6764    -2.0557     0.5211 C.2     
   9 F9            -2.5288    -2.6544     0.9081 F       
  10 N10            1.2877     1.7348    -0.9288 N.pl3   
  11 C11            2.5102     0.9322    -1.0160 C.3     
  12 O12           -3.4442     2.0068    -0.2914 O.3     
  13 C13           -4.6837     4.0810    -0.3360 C.3     
  14 C14           -3.3096     3.4195    -0.4595 C.3     
  15 C15           -4.9084    -2.7493     0.6267 C.2     
  16 O16           -5.9419    -2.2101     0.2781 O.2     
  17 O17           -4.9347    -4.0077     1.1137 O.3     
  18 H18            0.9096    -0.8546    -0.6030 H       
  19 H19           -1.2275    -1.9588    -0.1847 H       
  20 H20           -1.0432     2.9527    -0.7235 H       
  21 H21           -4.5745    -0.2747    -0.1730 H       
  22 H22            1.3311     2.6978    -1.0365 H       
  23 H23            3.3615     1.5862    -1.2048 H       
  24 H24            2.6626     0.3992    -0.0776 H       
  25 H25            2.4160     0.2141    -1.8306 H       
  26 H26           -5.3477     3.6853    -1.1045 H       
  27 H27           -5.1012     3.8704     0.6485 H       
  28 H28           -4.5810     5.1586    -0.4642 H       
  29 H29           -2.6455     3.8152     0.3090 H       
  30 H30           -2.8921     3.6301    -1.4441 H       
  31 H31           -5.8188    -4.3980     1.1475 H       
@<TRIPOS>BOND
   1    1    2 ar
   2    1   10 1
   3    1    6 ar
   4    2    3 ar
   5    2   18 1
   6    3    4 ar
   7    3   19 1
   8    4    5 ar
   9    4    7 1
  10    5    6 ar
  11    5   12 1
  12    6   20 1
  13    7    8 2
  14    7   21 1
  15    8    9 1
  16    8   15 1
  17   10   11 1
  18   10   22 1
  19   11   23 1
  20   11   24 1
  21   11   25 1
  22   12   14 1
  23   13   14 1
  24   13   26 1
  25   13   27 1
  26   13   28 1
  27   14   29 1
  28   14   30 1
  29   15   16 2
  30   15   17 1
  31   17   31 1

#	End of record

