#	Name: ASD16610001
#	Creating user name:	WinNT
#	Creation time:	15. 06. 2019 21:31

#	Modifying user name:	WinNT
#	Modification time:	15. 06. 2019 21:31

#	Program:	/corina/corina34_cracker 3.40 0067  02.08.2006

@<TRIPOS>MOLECULE
ASD16610001
  41   43    0    0    0
SMALL
NO_CHARGES


@<TRIPOS>ATOM
   1 C1            -0.1964     0.3270    -0.2269 C.ar    
   2 C2             1.0577     0.8954    -0.3499 C.ar    
   3 C3             1.1894     2.2695    -0.4237 C.ar    
   4 C4             0.0671     3.0751    -0.3745 C.ar    
   5 C5            -1.1869     2.5066    -0.2520 C.ar    
   6 C6            -3.7755     2.6443    -0.0588 C.3     
   7 C7            -3.4915     5.4969     0.4425 C.3     
   8 C8            -2.6871     4.2676    -1.4657 C.3     
   9 C9            -7.4780     5.6167     1.2579 C.3     
  10 O10           -4.0108     2.2850     1.3041 O.3     
  11 N11           -6.7763     4.9972     0.1257 N.3     
  12 C12           -1.3191     1.1323    -0.1839 C.ar    
  13 C13           -2.4104     3.3849    -0.1978 C.3     
  14 C14           -4.8275     3.6708    -0.5375 C.3     
  15 C15           -3.9989     4.9349    -0.9206 C.3     
  16 C16           -2.4395     4.4704     0.9211 C.3     
  17 C17           -5.8085     3.9948     0.5910 C.3     
  18 C18           -7.7285     4.4080    -0.8251 C.3     
  19 H19           -0.2993    -0.7466    -0.1688 H       
  20 H20            1.9345     0.2661    -0.3880 H       
  21 H21            2.1692     2.7137    -0.5195 H       
  22 H22            0.1701     4.1487    -0.4315 H       
  23 H23           -3.7933     1.7580    -0.6931 H       
  24 H24           -3.0316     6.4752     0.3026 H       
  25 H25           -4.3126     5.5606     1.1565 H       
  26 H26           -1.8966     4.9987    -1.6352 H       
  27 H27           -2.8731     3.6621    -2.3527 H       
  28 H28           -6.7546     6.1058     1.9102 H       
  29 H29           -8.1884     6.3547     0.8853 H       
  30 H30           -8.0119     4.8492     1.8184 H       
  31 H31           -4.8469     1.8216     1.4500 H       
  32 H32           -2.2989     0.6881    -0.0881 H       
  33 H33           -5.3625     3.2892    -1.4071 H       
  34 H34           -4.4843     5.6533    -1.5812 H       
  35 H35           -1.4624     4.9440     1.0166 H       
  36 H36           -2.7433     4.0295     1.8705 H       
  37 H37           -5.2604     4.3888     1.4469 H       
  38 H38           -6.3373     3.0879     0.8843 H       
  39 H39           -8.4684     5.1563    -1.1092 H       
  40 H40           -7.1937     4.0706    -1.7129 H       
  41 H41           -8.2299     3.5599    -0.3588 H       
@<TRIPOS>BOND
   1    1   19 1
   2    1    2 ar
   3    1   12 ar
   4    2   20 1
   5    2    3 ar
   6    3   21 1
   7    3    4 ar
   8    4    5 ar
   9    4   22 1
  10    5   12 ar
  11    5   13 1
  12    6   23 1
  13    6   13 1
  14    6   10 1
  15    6   14 1
  16    7   16 1
  17    7   15 1
  18    7   24 1
  19    7   25 1
  20    8   26 1
  21    8   27 1
  22    8   13 1
  23    8   15 1
  24    9   28 1
  25    9   29 1
  26    9   30 1
  27    9   11 1
  28   10   31 1
  29   11   17 1
  30   11   18 1
  31   12   32 1
  32   13   16 1
  33   14   33 1
  34   14   15 1
  35   14   17 1
  36   15   34 1
  37   16   35 1
  38   16   36 1
  39   17   37 1
  40   17   38 1
  41   18   39 1
  42   18   40 1
  43   18   41 1

#	End of record

