#	Name: ASD10420011
#	Creating user name:	WinNT
#	Creation time:	15. 06. 2019 21:27

#	Modifying user name:	WinNT
#	Modification time:	15. 06. 2019 21:27

#	Program:	/corina/corina34_cracker 3.40 0067  02.08.2006

@<TRIPOS>MOLECULE
ASD10420011
  58   62    0    0    0
SMALL
NO_CHARGES


@<TRIPOS>ATOM
   1 N1            -0.1945     0.2156    -0.6641 N.pl3   
   2 C2            -0.6197    -1.0086    -1.1084 C.2     
   3 C3            -2.0263    -0.9891    -1.1647 C.2     
   4 C4            -2.4383     0.2735    -0.7445 C.2     
   5 C5            -1.3003     1.0048    -0.4340 C.2     
   6 N6             1.1759     0.4661    -0.5152 N.2     
   7 C7             2.0608    -0.4520    -0.7940 C.2     
   8 C8             1.6642    -1.7194    -1.2526 C.2     
   9 C9             0.3220    -2.0000    -1.4107 C.2     
  10 C10           -1.2788     2.3415     0.0333 C.2     
  11 N11           -1.2260     3.3619    -0.8457 N.am    
  12 C12           -1.3124     4.7572    -0.3887 C.3     
  13 C13           -0.1409     5.5401    -0.9912 C.3     
  14 N14           -0.1363     5.3633    -2.4495 N.3     
  15 C15            0.0818     3.9573    -2.8151 C.3     
  16 C16           -1.0744     3.1097    -2.2868 C.3     
  17 O17           -1.3081     2.5691     1.2295 O.2     
  18 C18           -3.8621     0.7562    -0.6406 C.3     
  19 C19           -4.3890     0.4728     0.7426 C.ar    
  20 C20           -4.5633     1.5085     1.6411 C.ar    
  21 C21           -4.7031    -0.8221     1.1103 C.ar    
  22 C22           -5.1866    -1.0837     2.3790 C.ar    
  23 C23           -5.3567    -0.0506     3.2806 C.ar    
  24 C24           -5.0473     1.2478     2.9117 C.ar    
  25 F25           -5.2128     2.2586     3.7926 F       
  26 C26           -4.2261     2.9209     1.2380 C.3     
  27 C27           -2.9040    -2.1028    -1.5915 C.ar    
  28 C28           -2.9557    -3.2797    -0.8442 C.ar    
  29 C29           -3.7758    -4.3136    -1.2468 C.ar    
  30 C30           -4.5460    -4.1849    -2.3889 C.ar    
  31 C31           -4.4988    -3.0205    -3.1346 C.ar    
  32 C32           -3.6870    -1.9772    -2.7393 C.ar    
  33 O33            2.5965    -2.6632    -1.5393 O.3     
  34 H34            3.1115    -0.2345    -0.6710 H       
  35 H35            0.0028    -2.9698    -1.7626 H       
  36 H36           -2.2542     5.1938    -0.7213 H       
  37 H37           -1.2541     4.7904     0.6992 H       
  38 H38           -0.2501     6.5983    -0.7535 H       
  39 H39            0.7963     5.1686    -0.5768 H       
  40 H40           -0.9886     5.7154    -2.8591 H       
  41 H41            0.1342     3.8676    -3.9001 H       
  42 H42            1.0159     3.6079    -2.3753 H       
  43 H43           -0.8612     2.0541    -2.4550 H       
  44 H44           -1.9954     3.3864    -2.7998 H       
  45 H45           -3.8968     1.8291    -0.8298 H       
  46 H46           -4.4763     0.2375    -1.3767 H       
  47 H47           -4.5711    -1.6301     0.4059 H       
  48 H48           -5.4317    -2.0958     2.6652 H       
  49 H49           -5.7350    -0.2550     4.2713 H       
  50 H50           -5.0754     3.3626     0.7169 H       
  51 H51           -4.0001     3.5086     2.1278 H       
  52 H52           -3.3588     2.9131     0.5778 H       
  53 H53           -2.3547    -3.3814     0.0474 H       
  54 H54           -3.8165    -5.2253    -0.6693 H       
  55 H55           -5.1864    -4.9970    -2.7000 H       
  56 H56           -5.1020    -2.9262    -4.0254 H       
  57 H57           -3.6512    -1.0686    -3.3219 H       
  58 H58            3.5076    -2.3720    -1.3974 H       
@<TRIPOS>BOND
   1    1    2 1
   2    1    6 1
   3    1    5 1
   4    2    3 2
   5    2    9 1
   6    3    4 1
   7    3   27 1
   8    4    5 2
   9    4   18 1
  10    5   10 1
  11    6    7 2
  12    7    8 1
  13    7   34 1
  14    8    9 2
  15    8   33 1
  16    9   35 1
  17   10   11 am
  18   10   17 2
  19   11   12 1
  20   11   16 1
  21   12   13 1
  22   12   36 1
  23   12   37 1
  24   13   14 1
  25   13   38 1
  26   13   39 1
  27   14   15 1
  28   14   40 1
  29   15   16 1
  30   15   41 1
  31   15   42 1
  32   16   43 1
  33   16   44 1
  34   18   19 1
  35   18   45 1
  36   18   46 1
  37   19   20 ar
  38   19   21 ar
  39   20   26 1
  40   20   24 ar
  41   21   22 ar
  42   21   47 1
  43   22   23 ar
  44   22   48 1
  45   23   24 ar
  46   23   49 1
  47   24   25 1
  48   26   50 1
  49   26   51 1
  50   26   52 1
  51   27   28 ar
  52   27   32 ar
  53   28   29 ar
  54   28   53 1
  55   29   30 ar
  56   29   54 1
  57   30   31 ar
  58   30   55 1
  59   31   32 ar
  60   31   56 1
  61   32   57 1
  62   33   58 1

#	End of record

