#	Name: ASD13110097
#	Creating user name:	WinNT
#	Creation time:	15. 06. 2019 21:30

#	Modifying user name:	WinNT
#	Modification time:	15. 06. 2019 21:30

#	Program:	/corina/corina34_cracker 3.40 0067  02.08.2006

@<TRIPOS>MOLECULE
ASD13110097
  47   50    0    0    0
SMALL
NO_CHARGES


@<TRIPOS>ATOM
   1 C1            -0.0169     1.3928     0.0097 C.ar    
   2 C2             0.0021    -0.0041     0.0020 C.ar    
   3 C3             1.2349    -0.6787    -0.0134 C.ar    
   4 C4             2.4185     0.0459    -0.0215 C.ar    
   5 C5             2.3756     1.4242    -0.0143 C.ar    
   6 C6             1.1584     2.0897     0.0022 C.ar    
   7 N7             0.9319    -2.0257    -0.0170 N.pl3   
   8 C8            -0.4239    -2.1355    -0.0042 C.2     
   9 N9            -0.9683    -0.9539     0.0069 N.2     
  10 C10           -1.1846    -3.4364    -0.0026 C.3     
  11 N11           -1.5216    -3.8034     1.3751 N.am    
  12 C12           -2.7821    -3.3485     1.9669 C.3     
  13 C13           -0.6719    -4.5596     2.0980 C.2     
  14 O14            0.3717    -4.9362     1.6081 O.2     
  15 C15           -1.0185    -4.9371     3.5152 C.3     
  16 N16            0.0581    -5.7545     4.0801 N.am    
  17 C17            1.1749    -5.2845     4.7707 C.ar    
  18 C18            1.9270    -6.4057     5.1222 C.ar    
  19 O19            1.2704    -7.4944     4.6519 O.3     
  20 C20            0.1474    -7.0985     4.0323 C.2     
  21 C21            3.1095    -6.2465     5.8268 C.ar    
  22 C22            3.5377    -4.9805     6.1774 C.ar    
  23 C23            2.7910    -3.8692     5.8284 C.ar    
  24 C24            1.6104    -4.0180     5.1262 C.ar    
  25 O25           -0.6625    -7.8377     3.5067 O.2     
  26 C26            3.2663    -2.4926     6.2159 C.3     
  27 C27            1.1322     3.5964     0.0106 C.3     
  28 F28            4.4739    -2.5958     6.9148 F       
  29 F29            3.4591    -1.7240     5.0630 F       
  30 F30            2.3073    -1.8801     7.0298 F       
  31 F31            1.1367     4.0556     1.3321 F       
  32 F32            2.2598     4.0862    -0.6571 F       
  33 F33           -0.0243     4.0463    -0.6355 F       
  34 H34           -0.9589     1.9210     0.0170 H       
  35 H35            3.3688    -0.4672    -0.0329 H       
  36 H36            3.2959     1.9895    -0.0202 H       
  37 H37            1.5680    -2.7580    -0.0268 H       
  38 H38           -2.1004    -3.3225    -0.5826 H       
  39 H39           -0.5683    -4.2182    -0.4465 H       
  40 H40           -3.5614    -4.0856     1.7731 H       
  41 H41           -2.6557    -3.2277     3.0428 H       
  42 H42           -3.0672    -2.3937     1.5251 H       
  43 H43           -1.1402    -4.0335     4.1125 H       
  44 H44           -1.9484    -5.5056     3.5227 H       
  45 H45            3.6956    -7.1110     6.1018 H       
  46 H46            4.4594    -4.8579     6.7269 H       
  47 H47            1.0286    -3.1495     4.8548 H       
@<TRIPOS>BOND
   1    1    2 ar
   2    1    6 ar
   3    1   34 1
   4    2    9 1
   5    2    3 ar
   6    3    4 ar
   7    3    7 1
   8    4    5 ar
   9    4   35 1
  10    5    6 ar
  11    5   36 1
  12    6   27 1
  13    7    8 1
  14    7   37 1
  15    8   10 1
  16    8    9 2
  17   10   11 1
  18   10   38 1
  19   10   39 1
  20   11   12 1
  21   11   13 am
  22   12   40 1
  23   12   41 1
  24   12   42 1
  25   13   14 2
  26   13   15 1
  27   15   16 1
  28   15   43 1
  29   15   44 1
  30   16   17 1
  31   16   20 am
  32   17   24 ar
  33   17   18 ar
  34   18   19 1
  35   18   21 ar
  36   19   20 1
  37   20   25 2
  38   21   22 ar
  39   21   45 1
  40   22   23 ar
  41   22   46 1
  42   23   24 ar
  43   23   26 1
  44   24   47 1
  45   26   28 1
  46   26   29 1
  47   26   30 1
  48   27   31 1
  49   27   32 1
  50   27   33 1

#	End of record

