#	Name: ASD15280004
#	Creating user name:	WinNT
#	Creation time:	15. 06. 2019 21:31

#	Modifying user name:	WinNT
#	Modification time:	15. 06. 2019 21:31

#	Program:	/corina/corina34_cracker 3.40 0067  02.08.2006

@<TRIPOS>MOLECULE
ASD15280004
  53   55    0    0    0
SMALL
NO_CHARGES


@<TRIPOS>ATOM
   1 Br1           -3.8859    -0.8300     0.2227 Br      
   2 O2            -4.2848     2.2922    -1.3721 O.2     
   3 O3            -1.3285    -1.8878    -1.4188 O.3     
   4 O4            -2.4697     4.2185    -0.4016 O.2     
   5 O5             3.1737     7.9561    -1.9564 O.2     
   6 O6             4.3749     6.2383    -1.7178 O.2     
   7 N7            -4.4040     2.6383     0.8197 N.am    
   8 N8            -1.2862     2.3404    -0.3294 N.am    
   9 N9             3.2782     6.7681    -1.7088 N.pl3   
  10 C10           -6.1818     2.5778     3.0188 C.3     
  11 C11           -6.7195     2.6687     1.5889 C.3     
  12 C12           -4.9026     1.7377     3.0322 C.3     
  13 C13           -5.6796     3.3573     0.6994 C.3     
  14 C14           -3.8421     2.4157     2.1590 C.3     
  15 C15           -3.7641     2.1866    -0.2771 C.2     
  16 C16           -2.4403     1.5676    -0.1512 C.2     
  17 C17           -2.3340     0.2472     0.1378 C.2     
  18 C18           -1.0125    -0.3470     0.3852 C.ar    
  19 C19           -1.3877     3.6732    -0.5020 C.2     
  20 C20           -0.5534    -1.4062    -0.4139 C.ar    
  21 C21           -0.1835     4.4719    -0.8134 C.ar    
  22 C22           -0.2021     0.1431     1.4142 C.ar    
  23 C23            0.6938    -1.9578    -0.1717 C.ar    
  24 C24            1.0360    -0.4192     1.6402 C.ar    
  25 C25           -0.2998     5.8336    -1.0976 C.ar    
  26 C26            1.0754     3.8690    -0.8190 C.ar    
  27 C27            1.4819    -1.4673     0.8525 C.ar    
  28 C28            0.8281     6.5733    -1.3875 C.ar    
  29 C29            2.1952     4.6202    -1.1105 C.ar    
  30 C30            2.0724     5.9683    -1.3969 C.ar    
  31 C31           -0.7528    -2.8905    -2.2586 C.3     
  32 H32           -5.9623     3.5794     3.3886 H       
  33 H33           -6.9299     2.1104     3.6591 H       
  34 H34           -4.5330     1.6539     4.0542 H       
  35 H35           -5.1161     0.7437     2.6393 H       
  36 H36           -6.9159     1.6659     1.2096 H       
  37 H37           -7.6431     3.2475     1.5837 H       
  38 H38           -2.9646     1.7734     2.0849 H       
  39 H39           -3.5615     3.3717     2.6010 H       
  40 H40           -5.5488     4.3900     1.0224 H       
  41 H41           -6.0145     3.3362    -0.3377 H       
  42 H42           -0.4137     1.9165    -0.3287 H       
  43 H43           -0.5456     0.9605     2.0307 H       
  44 H44            1.0510    -2.7727    -0.7838 H       
  45 H45            1.6616    -0.0401     2.4347 H       
  46 H46           -1.2705     6.3070    -1.0909 H       
  47 H47            1.1727     2.8169    -0.5953 H       
  48 H48            2.4533    -1.9018     1.0371 H       
  49 H49            0.7395     7.6269    -1.6079 H       
  50 H50            3.1699     4.1551    -1.1148 H       
  51 H51           -1.5028    -3.2479    -2.9643 H       
  52 H52            0.0886    -2.4663    -2.8065 H       
  53 H53           -0.4052    -3.7221    -1.6457 H       
@<TRIPOS>BOND
   1    1   17 1
   2    2   15 2
   3    3   20 1
   4    3   31 1
   5    4   19 2
   6    5    9 2
   7    6    9 2
   8    7   13 1
   9    7   14 1
  10    7   15 am
  11    8   16 1
  12    8   19 am
  13    8   42 1
  14    9   30 1
  15   10   11 1
  16   10   12 1
  17   10   32 1
  18   10   33 1
  19   11   13 1
  20   11   36 1
  21   11   37 1
  22   12   14 1
  23   12   34 1
  24   12   35 1
  25   13   40 1
  26   13   41 1
  27   14   38 1
  28   14   39 1
  29   15   16 1
  30   16   17 2
  31   17   18 1
  32   18   20 ar
  33   18   22 ar
  34   19   21 1
  35   20   23 ar
  36   21   25 ar
  37   21   26 ar
  38   22   24 ar
  39   22   43 1
  40   23   27 ar
  41   23   44 1
  42   24   27 ar
  43   24   45 1
  44   25   28 ar
  45   25   46 1
  46   26   29 ar
  47   26   47 1
  48   27   48 1
  49   28   30 ar
  50   28   49 1
  51   29   30 ar
  52   29   50 1
  53   31   51 1
  54   31   52 1
  55   31   53 1

#	End of record

