#	Name: ASD10160160
#	Creating user name:	WinNT
#	Creation time:	15. 06. 2019 21:25

#	Modifying user name:	WinNT
#	Modification time:	15. 06. 2019 21:25

#	Program:	/corina/corina34_cracker 3.40 0067  02.08.2006

@<TRIPOS>MOLECULE
ASD10160160
  50   51    0    0    0
SMALL
NO_CHARGES


@<TRIPOS>ATOM
   1 C1            -2.4115    -5.7561     5.7095 C.2     
   2 C2            -1.7671    -5.4598     4.4169 C.ar    
   3 C3            -0.4531    -5.8778     4.1753 C.ar    
   4 C4             0.1459    -5.5979     2.9635 C.ar    
   5 C5            -0.5530    -4.9027     1.9857 C.ar    
   6 C6            -1.8603    -4.4851     2.2222 C.ar    
   7 C7            -2.4686    -4.7654     3.4264 C.ar    
   8 O8            -1.8015    -6.3645     6.5677 O.2     
   9 N9            -3.6747    -5.3479     5.9420 N.am    
  10 S10           -4.3985    -5.6807     7.3938 S.o2    
  11 O11           -5.7033    -5.1320     7.2688 O.2     
  12 O12           -4.2049    -7.0774     7.5698 O.2     
  13 C13           -3.4283    -4.7455     8.6081 C.3     
  14 F14           -2.5354    -3.8090     1.2670 F       
  15 F15            0.2278    -6.5535     5.1266 F       
  16 O16            0.0400    -4.6288     0.7959 O.3     
  17 C17            2.3647    -4.1283     0.6558 C.ar    
  18 C18            1.3230    -5.0405     0.6123 C.ar    
  19 C19            1.6051    -6.3841     0.3788 C.ar    
  20 C20            2.9251    -6.7588     0.1978 C.ar    
  21 C21            3.9194    -5.7868     0.2550 C.ar    
  22 N22            3.6129    -4.5192     0.4795 N.ar    
  23 N23            5.2514    -6.1521     0.0744 N.3     
  24 C24            6.0676    -4.9930    -0.3106 C.3     
  25 C25            7.4006    -5.4763    -0.8855 C.3     
  26 O26            7.1614    -6.2228    -2.0803 O.3     
  27 C27            8.3477    -6.7227    -2.7006 C.3     
  28 C28            5.7885    -6.7972     1.2800 C.3     
  29 C29            5.6440    -5.8498     2.4726 C.3     
  30 Cl30           3.3351    -8.4199    -0.0960 Cl      
  31 H31            1.1595    -5.9199     2.7759 H       
  32 H32           -3.4841    -4.4453     3.6068 H       
  33 H33           -4.1599    -4.8592     5.2589 H       
  34 H34           -3.4703    -3.6834     8.3665 H       
  35 H35           -3.8394    -4.9080     9.6045 H       
  36 H36           -2.3922    -5.0831     8.5831 H       
  37 H37            2.1524    -3.0842     0.8320 H       
  38 H38            0.8124    -7.1166     0.3401 H       
  39 H39            5.5376    -4.4093    -1.0632 H       
  40 H40            6.2537    -4.3724     0.5660 H       
  41 H41            8.0306    -4.6167    -1.1142 H       
  42 H42            7.9027    -6.1107    -0.1551 H       
  43 H43            8.0811    -7.2774    -3.6003 H       
  44 H44            8.9973    -5.8890    -2.9670 H       
  45 H45            8.8694    -7.3830    -2.0079 H       
  46 H46            5.2364    -7.7161     1.4770 H       
  47 H47            6.8420    -7.0317     1.1278 H       
  48 H48            6.1172    -6.2936     3.3486 H       
  49 H49            6.1253    -4.8993     2.2421 H       
  50 H50            4.5866    -5.6815     2.6770 H       
@<TRIPOS>BOND
   1    1    2 1
   2    1    8 2
   3    1    9 am
   4    2    3 ar
   5    2    7 ar
   6    3    4 ar
   7    3   15 1
   8    4    5 ar
   9    4   31 1
  10    5    6 ar
  11    5   16 1
  12    6    7 ar
  13    6   14 1
  14    7   32 1
  15    9   10 am
  16    9   33 1
  17   10   11 2
  18   10   12 2
  19   10   13 1
  20   13   34 1
  21   13   35 1
  22   13   36 1
  23   16   18 1
  24   17   18 ar
  25   17   22 ar
  26   17   37 1
  27   18   19 ar
  28   19   20 ar
  29   19   38 1
  30   20   21 ar
  31   20   30 1
  32   21   22 ar
  33   21   23 1
  34   23   24 1
  35   23   28 1
  36   24   25 1
  37   24   39 1
  38   24   40 1
  39   25   26 1
  40   25   41 1
  41   25   42 1
  42   26   27 1
  43   27   43 1
  44   27   44 1
  45   27   45 1
  46   28   29 1
  47   28   46 1
  48   28   47 1
  49   29   48 1
  50   29   49 1
  51   29   50 1

#	End of record

