#	Name: ASD10220182
#	Creating user name:	WinNT
#	Creation time:	15. 06. 2019 21:26

#	Modifying user name:	WinNT
#	Modification time:	15. 06. 2019 21:26

#	Program:	/corina/corina34_cracker 3.40 0067  02.08.2006

@<TRIPOS>MOLECULE
ASD10220182
  34   34    0    0    0
SMALL
NO_CHARGES


@<TRIPOS>ATOM
   1 C1            -0.0167     1.3836     0.0096 C.ar    
   2 C2             0.0021    -0.0041     0.0020 C.ar    
   3 C3             1.2174    -0.6876    -0.0128 C.ar    
   4 C4             2.4055     0.0166    -0.0203 C.ar    
   5 C5             2.3861     1.4137    -0.0131 C.ar    
   6 C6             1.1658     2.0920     0.0022 C.ar    
   7 C7             3.6548     2.1719    -0.0206 C.2     
   8 O8             4.7190     1.5787    -0.0331 O.2     
   9 C9             3.6336     3.5848    -0.0133 C.2     
  10 C10            4.7937     4.2781    -0.0202 C.2     
  11 N11            4.7731     5.6435    -0.0131 N.pl3   
  12 C12            3.4936     6.3568     0.0019 C.3     
  13 C13            6.0306     6.3951    -0.0206 C.3     
  14 O14            1.2327    -2.0475    -0.0193 O.3     
  15 C15            2.5132    -2.6817    -0.0345 C.3     
  16 O16           -1.1656    -0.6977     0.0094 O.3     
  17 C17           -2.3735     0.0656     0.0250 C.3     
  18 H18           -0.9599     1.9097     0.0170 H       
  19 H19            3.3475    -0.5115    -0.0314 H       
  20 H20            1.1483     3.1719     0.0074 H       
  21 H21            2.6903     4.1106    -0.0022 H       
  22 H22            5.7369     3.7523    -0.0313 H       
  23 H23            3.1854     6.5285     1.0333 H       
  24 H24            3.6049     7.3136    -0.5081 H       
  25 H25            2.7383     5.7589    -0.5082 H       
  26 H26            6.8696     5.6994    -0.0316 H       
  27 H27            6.0710     7.0270    -0.9078 H       
  28 H28            6.0869     7.0180     0.8721 H       
  29 H29            2.3826    -3.7638    -0.0384 H       
  30 H30            3.0583    -2.3783    -0.9283 H       
  31 H31            3.0753    -2.3867     0.8516 H       
  32 H32           -3.2296    -0.6091     0.0296 H       
  33 H33           -2.3977     0.6892     0.9186 H       
  34 H34           -2.4147     0.6988    -0.8612 H       
@<TRIPOS>BOND
   1    1    2 ar
   2    1    6 ar
   3    1   18 1
   4    2    3 ar
   5    2   16 1
   6    3    4 ar
   7    3   14 1
   8    4    5 ar
   9    4   19 1
  10    5    6 ar
  11    5    7 1
  12    6   20 1
  13    7    8 2
  14    7    9 1
  15    9   10 2
  16    9   21 1
  17   10   11 1
  18   10   22 1
  19   11   12 1
  20   11   13 1
  21   12   23 1
  22   12   24 1
  23   12   25 1
  24   13   26 1
  25   13   27 1
  26   13   28 1
  27   14   15 1
  28   15   29 1
  29   15   30 1
  30   15   31 1
  31   16   17 1
  32   17   32 1
  33   17   33 1
  34   17   34 1

#	End of record

