#	Name: ASD10610062
#	Creating user name:	WinNT
#	Creation time:	15. 06. 2019 21:27

#	Modifying user name:	WinNT
#	Modification time:	15. 06. 2019 21:27

#	Program:	/corina/corina34_cracker 3.40 0067  02.08.2006

@<TRIPOS>MOLECULE
ASD10610062
  58   63    0    0    0
SMALL
NO_CHARGES


@<TRIPOS>ATOM
   1 C1            -0.5973     1.8601     1.2723 C.ar    
   2 C2            -1.7894     1.7208     1.9886 C.ar    
   3 C3            -1.9604     2.5154     3.1293 C.ar    
   4 C4            -0.9374     3.3851     3.4708 C.ar    
   5 N5             0.1519     3.4443     2.7296 N.ar    
   6 N6             0.3147     2.7195     1.6838 N.ar    
   7 C7            -2.8362     0.7661     1.5558 C.2     
   8 O8            -3.8649     0.6619     2.1942 O.2     
   9 N9            -2.6476     0.0131     0.4541 N.am    
  10 C10           -3.6323    -1.0077     0.0872 C.3     
  11 C11           -5.0730    -0.5483    -0.1453 C.3     
  12 C12           -4.2012    -0.9625    -1.3324 C.3     
  13 C13           -3.4265    -2.3635     0.7120 C.2     
  14 N14           -2.1784    -2.8345     0.9043 N.am    
  15 O15           -4.3840    -3.0309     1.0419 O.2     
  16 O16           -0.9850    -6.1748     0.6776 O.3     
  17 C17           -1.9725    -5.2205     0.2528 C.3     
  18 C18           -1.9787    -4.1946     1.4107 C.3     
  19 C19           -0.5839    -4.3605     1.9836 C.ar    
  20 C20           -0.0793    -5.5560     1.4844 C.ar    
  21 C21            0.1638    -3.5746     2.8340 C.ar    
  22 C22            1.4381    -3.9642     3.1981 C.ar    
  23 C23            1.9630    -5.1562     2.7013 C.ar    
  24 C24            1.2041    -5.9495     1.8464 C.ar    
  25 C25            3.3312    -5.5793     3.0844 C.ar    
  26 C26            4.4048    -4.6813     2.9723 C.ar    
  27 C27            5.6870    -5.0909     3.3363 C.ar    
  28 C28            5.8946    -6.3756     3.8045 C.ar    
  29 C29            4.8345    -7.2597     3.9144 C.ar    
  30 C30            3.5569    -6.8664     3.5624 C.ar    
  31 O31            3.1844    -1.6471     1.7369 O.3     
  32 N32            3.0312    -2.7956     2.0957 N.2     
  33 C33            4.1766    -3.3061     2.4695 C.2     
  34 N34            5.1132    -2.3429     2.3112 N.2     
  35 C35            4.4706    -1.3003     1.8475 C.2     
  36 C36            5.0690     0.0392     1.5030 C.3     
  37 F37            6.7258    -4.2336     3.2312 F       
  38 Cl38           5.1105    -8.8691     4.5038 Cl      
  39 H39           -0.4219     1.2638     0.3891 H       
  40 H40           -2.8603     2.4524     3.7231 H       
  41 H41           -1.0321     4.0146     4.3433 H       
  42 H42           -1.8599     0.1471    -0.0960 H       
  43 H43           -5.8720    -1.2269     0.1534 H       
  44 H44           -5.2883     0.5135    -0.0252 H       
  45 H45           -3.8429    -0.1733    -1.9933 H       
  46 H46           -4.4267    -1.9137    -1.8147 H       
  47 H47           -1.4124    -2.2730     0.7073 H       
  48 H48           -1.6738    -4.7459    -0.6818 H       
  49 H49           -2.9489    -5.6944     0.1517 H       
  50 H50           -2.7373    -4.4477     2.1514 H       
  51 H51           -0.2474    -2.6519     3.2162 H       
  52 H52            2.0246    -3.3485     3.8639 H       
  53 H53            1.6130    -6.8726     1.4629 H       
  54 H54            6.8885    -6.6909     4.0855 H       
  55 H55            2.7341    -7.5598     3.6549 H       
  56 H56            4.2854     0.7051     1.1414 H       
  57 H57            5.5307     0.4702     2.3914 H       
  58 H58            5.8237    -0.0887     0.7271 H       
@<TRIPOS>BOND
   1    1    2 ar
   2    1    6 ar
   3    1   39 1
   4    2    3 ar
   5    2    7 1
   6    3    4 ar
   7    3   40 1
   8    4    5 ar
   9    4   41 1
  10    5    6 ar
  11    7    8 2
  12    7    9 am
  13    9   10 1
  14    9   42 1
  15   10   11 1
  16   10   12 1
  17   10   13 1
  18   11   12 1
  19   11   43 1
  20   11   44 1
  21   12   45 1
  22   12   46 1
  23   13   14 am
  24   13   15 2
  25   14   18 1
  26   14   47 1
  27   16   17 1
  28   16   20 1
  29   17   18 1
  30   17   48 1
  31   17   49 1
  32   18   19 1
  33   18   50 1
  34   19   20 ar
  35   19   21 ar
  36   20   24 ar
  37   21   22 ar
  38   21   51 1
  39   22   23 ar
  40   22   52 1
  41   23   24 ar
  42   23   25 1
  43   24   53 1
  44   25   26 ar
  45   25   30 ar
  46   26   27 ar
  47   26   33 1
  48   27   28 ar
  49   27   37 1
  50   28   29 ar
  51   28   54 1
  52   29   30 ar
  53   29   38 1
  54   30   55 1
  55   31   32 1
  56   31   35 1
  57   32   33 2
  58   33   34 1
  59   34   35 2
  60   35   36 1
  61   36   56 1
  62   36   57 1
  63   36   58 1

#	End of record

