#	Name: ASD15180003
#	Creating user name:	WinNT
#	Creation time:	15. 06. 2019 21:31

#	Modifying user name:	WinNT
#	Modification time:	15. 06. 2019 21:31

#	Program:	/corina/corina34_cracker 3.40 0067  02.08.2006

@<TRIPOS>MOLECULE
ASD15180003
  64   69    0    0    0
SMALL
NO_CHARGES


@<TRIPOS>ATOM
   1 F1             0.0021    -0.0041     0.0020 F       
   2 C2            -0.0162     1.3468     0.0094 C.ar    
   3 C3             1.1745     2.0545     0.0019 C.ar    
   4 C4             1.1624     3.4397     0.0099 C.ar    
   5 C5            -0.0393     4.1226     0.0255 C.ar    
   6 C6            -1.2407     3.4147     0.0327 C.ar    
   7 C7            -1.2232     2.0204     0.0188 C.ar    
   8 C8            -2.5313     4.1415     0.0494 C.ar    
   9 C9            -3.5485     3.8133    -0.8792 C.ar    
  10 N10           -3.3676     2.8480    -1.7831 N.ar    
  11 C11           -4.3352     2.5622    -2.6383 C.ar    
  12 C12           -5.5515     3.2694    -2.6004 C.ar    
  13 N13           -5.7426     4.2199    -1.7177 N.ar    
  14 C14           -4.7742     4.5231    -0.8431 C.ar    
  15 C15           -4.9574     5.5373     0.1114 C.ar    
  16 C16           -3.9629     5.8342     0.9943 C.ar    
  17 C17           -2.7565     5.1439     0.9764 C.ar    
  18 C18           -4.1374     1.4910    -3.6430 C.2     
  19 C19           -5.0032     1.1523    -4.6443 C.2     
  20 N20           -4.4521     0.1342    -5.3319 N.pl3   
  21 N21           -3.2162    -0.1709    -4.7495 N.2     
  22 C22           -3.0186     0.6391    -3.7442 C.2     
  23 C23           -5.0446    -0.5390    -6.4904 C.3     
  24 C24           -5.9961    -1.6390    -6.0117 C.3     
  25 C25           -6.6578    -2.2977    -7.2243 C.3     
  26 N26           -7.3965    -1.2857    -7.9903 N.3     
  27 C27           -6.4960    -0.2440    -8.5004 C.3     
  28 C28           -5.8295     0.4760    -7.3260 C.3     
  29 F29            2.3271     4.1244     0.0029 F       
  30 C30            2.4876     1.3151    -0.0146 C.3     
  31 N31            2.9010     1.0823    -1.4049 N.3     
  32 C32            4.0469     0.1634    -1.4669 C.3     
  33 C33            4.4059    -0.0978    -2.9321 C.3     
  34 O34            4.6750     1.1479    -3.5812 O.3     
  35 C35            3.5799     2.0668    -3.5403 C.3     
  36 C36            3.2125     2.3499    -2.0812 C.3     
  37 H37           -0.0477     5.2025     0.0324 H       
  38 H38           -2.1511     1.4678     0.0203 H       
  39 H39           -6.3339     3.0274    -3.3045 H       
  40 H40           -5.8886     6.0833     0.1454 H       
  41 H41           -4.1161     6.6164     1.7231 H       
  42 H42           -1.9858     5.3954     1.6900 H       
  43 H43           -5.9569     1.6168    -4.8472 H       
  44 H44           -2.1512     0.6520    -3.1008 H       
  45 H45           -4.2548    -0.9799    -7.0987 H       
  46 H46           -5.4351    -2.3874    -5.4520 H       
  47 H47           -6.7627    -1.2035    -5.3707 H       
  48 H48           -5.8917    -2.7449    -7.8577 H       
  49 H49           -7.3467    -3.0717    -6.8863 H       
  50 H50           -7.9194    -1.7111    -8.7411 H       
  51 H51           -5.7307    -0.7009    -9.1279 H       
  52 H52           -7.0674     0.4735    -9.0893 H       
  53 H53           -6.5934     0.9448    -6.7057 H       
  54 H54           -5.1494     1.2387    -7.7053 H       
  55 H55            3.2457     1.9095     0.4952 H       
  56 H56            2.3723     0.3586     0.4952 H       
  57 H57            4.9002     0.6109    -0.9573 H       
  58 H58            3.7855    -0.7776    -0.9829 H       
  59 H59            5.2903    -0.7329    -2.9825 H       
  60 H60            3.5719    -0.5940    -3.4284 H       
  61 H61            3.8668     2.9971    -4.0305 H       
  62 H62            2.7218     1.6335    -4.0542 H       
  63 H63            2.3420     3.0049    -2.0456 H       
  64 H64            4.0525     2.8323    -1.5814 H       
@<TRIPOS>BOND
   1    1    2 1
   2    2    3 ar
   3    2    7 ar
   4    3    4 ar
   5    3   30 1
   6    4    5 ar
   7    4   29 1
   8    5    6 ar
   9    5   37 1
  10    6    7 ar
  11    6    8 1
  12    7   38 1
  13    8    9 ar
  14    8   17 ar
  15    9   10 ar
  16    9   14 ar
  17   10   11 ar
  18   11   12 ar
  19   11   18 1
  20   12   13 ar
  21   12   39 1
  22   13   14 ar
  23   14   15 ar
  24   15   16 ar
  25   15   40 1
  26   16   17 ar
  27   16   41 1
  28   17   42 1
  29   18   19 2
  30   18   22 1
  31   19   20 1
  32   19   43 1
  33   20   21 1
  34   20   23 1
  35   21   22 2
  36   22   44 1
  37   23   24 1
  38   23   28 1
  39   23   45 1
  40   24   25 1
  41   24   46 1
  42   24   47 1
  43   25   26 1
  44   25   48 1
  45   25   49 1
  46   26   27 1
  47   26   50 1
  48   27   28 1
  49   27   51 1
  50   27   52 1
  51   28   53 1
  52   28   54 1
  53   30   31 1
  54   30   55 1
  55   30   56 1
  56   31   32 1
  57   31   36 1
  58   32   33 1
  59   32   57 1
  60   32   58 1
  61   33   34 1
  62   33   59 1
  63   33   60 1
  64   34   35 1
  65   35   36 1
  66   35   61 1
  67   35   62 1
  68   36   63 1
  69   36   64 1

#	End of record

