#	Name: ASD10220030
#	Creating user name:	WinNT
#	Creation time:	15. 06. 2019 21:26

#	Modifying user name:	WinNT
#	Modification time:	15. 06. 2019 21:26

#	Program:	/corina/corina34_cracker 3.40 0067  02.08.2006

@<TRIPOS>MOLECULE
ASD10220030
  27   29    0    0    0
SMALL
NO_CHARGES


@<TRIPOS>ATOM
   1 C1            -0.0065     1.4610    -0.1693 C.2     
   2 C2             0.0233     0.0542    -0.3155 C.2     
   3 C3            -1.1149    -0.6735    -0.3706 C.2     
   4 C4            -2.4370    -0.0542    -0.2831 C.2     
   5 C5            -2.5500     1.3195    -0.1389 C.2     
   6 C6            -1.3371     2.1498    -0.0686 C.2     
   7 O7            -3.6813    -0.5680    -0.3142 O.3     
   8 C8            -4.6060     0.3873    -0.1990 C.2     
   9 C9            -3.9878     1.6043    -0.0839 C.2     
  10 O10           -1.4101     3.3540     0.0574 O.2     
  11 O11            1.0260     2.0999    -0.1211 O.2     
  12 C12           -4.6313     2.9212     0.0645 C.2     
  13 O13           -3.9529     3.9102     0.2661 O.2     
  14 C14           -6.1008     3.0403    -0.0315 C.ar    
  15 C15           -6.7689     4.0522     0.6616 C.ar    
  16 C16           -8.1417     4.1580     0.5678 C.ar    
  17 C17           -8.8566     3.2622    -0.2120 C.ar    
  18 C18           -8.1986     2.2568    -0.9014 C.ar    
  19 C19           -6.8270     2.1448    -0.8205 C.ar    
  20 Cl20           1.5548    -0.7555    -0.4270 Cl      
  21 Cl21          -1.0036    -2.3965    -0.5516 Cl      
  22 Cl22         -10.5834     3.4005    -0.3245 Cl      
  23 Cl23          -8.9747     5.4148     1.4283 Cl      
  24 H24           -5.6739     0.2262    -0.1964 H       
  25 H25           -6.2126     4.7500     1.2699 H       
  26 H26           -8.7611     1.5618    -1.5073 H       
  27 H27           -6.3156     1.3603    -1.3586 H       
@<TRIPOS>BOND
   1    1    2 1
   2    1   11 2
   3    1    6 1
   4    2    3 2
   5    2   20 1
   6    3    4 1
   7    3   21 1
   8    4    5 2
   9    4    7 1
  10    5    6 1
  11    5    9 1
  12    6   10 2
  13    7    8 1
  14    8    9 2
  15    8   24 1
  16    9   12 1
  17   12   13 2
  18   12   14 1
  19   14   15 ar
  20   14   19 ar
  21   15   16 ar
  22   15   25 1
  23   16   17 ar
  24   16   23 1
  25   17   18 ar
  26   17   22 1
  27   18   19 ar
  28   18   26 1
  29   19   27 1

#	End of record

