#	Name: ASD10410068
#	Creating user name:	WinNT
#	Creation time:	15. 06. 2019 21:26

#	Modifying user name:	WinNT
#	Modification time:	15. 06. 2019 21:26

#	Program:	/corina/corina34_cracker 3.40 0067  02.08.2006

@<TRIPOS>MOLECULE
ASD10410068
  67   73    0    0    0
SMALL
NO_CHARGES


@<TRIPOS>ATOM
   1 C1            -0.0320     1.3884    -0.1269 C.ar    
   2 C2            -0.0097     0.0058     0.0009 C.ar    
   3 C3             1.2015    -0.6595     0.1381 C.ar    
   4 C4             2.3838     0.0538     0.1469 C.ar    
   5 C5             2.3615     1.4365     0.0186 C.ar    
   6 C6             1.1502     2.1017    -0.1180 C.ar    
   7 N7             3.5605     2.1599     0.0280 N.pl3   
   8 C8             3.6600     3.3534    -0.6853 C.2     
   9 N9             4.6914     4.1631    -0.6717 N.2     
  10 N10            2.7203     3.8523    -1.4974 N.2     
  11 C11            3.1354     4.9903    -2.0104 C.2     
  12 N12            4.3812     5.2377    -1.5209 N.pl3   
  13 C13            5.1845     6.3332    -1.8045 C.ar    
  14 N14            2.4339     5.7896    -2.8912 N.pl3   
  15 N15           -1.2082    -0.7173    -0.0080 N.3     
  16 C16           -0.9555    -2.1574     0.1395 C.3     
  17 C17           -2.2906    -2.9029     0.2048 C.3     
  18 N18           -3.0619    -2.6288    -1.0156 N.3     
  19 C19           -3.3146    -1.1886    -1.1631 C.3     
  20 C20           -1.9795    -0.4432    -1.2285 C.3     
  21 C21           -4.3197    -3.3876    -1.0250 C.3     
  22 C22           -5.1839    -2.9923    -2.2612 C.3     
  23 C23           -4.1967    -3.0626    -3.4661 C.3     
  24 C24           -3.9146    -4.5710    -3.6528 C.3     
  25 C25           -4.0376    -4.8960    -1.2116 C.3     
  26 C26           -4.7579    -5.2699    -2.5430 C.3     
  27 C27           -6.0014    -4.3144    -2.4784 C.3     
  28 N28            5.3708     6.7354    -3.0533 N.ar    
  29 C29            6.1343     7.7784    -3.3375 C.ar    
  30 N30            6.7541     8.4807    -2.4189 N.ar    
  31 C31            6.6340     8.1600    -1.1229 C.ar    
  32 C32            5.8218     7.0543    -0.7680 C.ar    
  33 C33            7.2814     8.8877    -0.1146 C.ar    
  34 C34            7.1252     8.5186     1.1879 C.ar    
  35 C35            6.3313     7.4272     1.5350 C.ar    
  36 C36            5.6815     6.7014     0.5794 C.ar    
  37 Cl37           6.1595     6.9903     3.2064 Cl      
  38 H38           -0.9738     1.9053    -0.2377 H       
  39 H39            1.2188    -1.7347     0.2382 H       
  40 H40            3.3258    -0.4635     0.2539 H       
  41 H41            1.1328     3.1770    -0.2178 H       
  42 H42            4.3218     1.8305     0.5309 H       
  43 H43            1.5481     5.5257    -3.1856 H       
  44 H44            2.8269     6.6150    -3.2156 H       
  45 H45           -0.3807    -2.5152    -0.7148 H       
  46 H46           -0.3940    -2.3361     1.0565 H       
  47 H47           -2.1054    -3.9740     0.2851 H       
  48 H48           -2.8537    -2.5646     1.0746 H       
  49 H49           -3.8761    -1.0100    -2.0801 H       
  50 H50           -3.8894    -0.8309    -0.3089 H       
  51 H51           -2.1647     0.6280    -1.3088 H       
  52 H52           -1.4164    -0.7814    -2.0983 H       
  53 H53           -4.8741    -3.2142    -0.1027 H       
  54 H54           -5.7559    -2.0693    -2.1671 H       
  55 H55           -4.6602    -2.6490    -4.3618 H       
  56 H56           -3.2748    -2.5295    -3.2337 H       
  57 H57           -4.2395    -4.8990    -4.6402 H       
  58 H58           -2.8540    -4.7795    -3.5120 H       
  59 H59           -2.9657    -5.0745    -1.2964 H       
  60 H60           -4.4541    -5.4660    -0.3812 H       
  61 H61           -4.9591    -6.3305    -2.6944 H       
  62 H62           -6.6467    -4.5401    -1.6295 H       
  63 H63           -6.5567    -4.3022    -3.4163 H       
  64 H64            6.2527     8.0641    -4.3723 H       
  65 H65            7.9006     9.7354    -0.3685 H       
  66 H66            7.6249     9.0804     1.9632 H       
  67 H67            5.0687     5.8575     0.8599 H       
@<TRIPOS>BOND
   1    1    2 ar
   2    1    6 ar
   3    1   38 1
   4    2    3 ar
   5    2   15 1
   6    3    4 ar
   7    3   39 1
   8    4    5 ar
   9    4   40 1
  10    5    6 ar
  11    5    7 1
  12    6   41 1
  13    7    8 1
  14    7   42 1
  15    8    9 2
  16    8   10 1
  17    9   12 1
  18   10   11 2
  19   11   12 1
  20   11   14 1
  21   12   13 1
  22   13   28 ar
  23   13   32 ar
  24   14   43 1
  25   14   44 1
  26   15   16 1
  27   15   20 1
  28   16   17 1
  29   16   45 1
  30   16   46 1
  31   17   18 1
  32   17   47 1
  33   17   48 1
  34   18   19 1
  35   18   21 1
  36   19   20 1
  37   19   49 1
  38   19   50 1
  39   20   51 1
  40   20   52 1
  41   21   22 1
  42   21   25 1
  43   21   53 1
  44   22   23 1
  45   22   27 1
  46   22   54 1
  47   23   24 1
  48   23   55 1
  49   23   56 1
  50   24   26 1
  51   24   57 1
  52   24   58 1
  53   25   26 1
  54   25   59 1
  55   25   60 1
  56   26   27 1
  57   26   61 1
  58   27   62 1
  59   27   63 1
  60   28   29 ar
  61   29   30 ar
  62   29   64 1
  63   30   31 ar
  64   31   32 ar
  65   31   33 ar
  66   32   36 ar
  67   33   34 ar
  68   33   65 1
  69   34   35 ar
  70   34   66 1
  71   35   36 ar
  72   35   37 1
  73   36   67 1

#	End of record

