#	Name: ASD15080003
#	Creating user name:	WinNT
#	Creation time:	15. 06. 2019 21:31

#	Modifying user name:	WinNT
#	Modification time:	15. 06. 2019 21:31

#	Program:	/corina/corina34_cracker 3.40 0067  02.08.2006

@<TRIPOS>MOLECULE
ASD15080003
  41   43    0    0    0
SMALL
NO_CHARGES


@<TRIPOS>ATOM
   1 C1             0.0454     1.5601     0.3480 C.ar    
   2 N2             0.0215     0.3205     0.8147 N.ar    
   3 C3             1.1344    -0.3128     1.1365 C.ar    
   4 N4             2.3176     0.2444     1.0142 N.ar    
   5 C5             1.3008     2.2142     0.1940 C.ar    
   6 C6             1.5925     3.5002    -0.2704 C.2     
   7 C7             2.4486     1.4930     0.5521 C.ar    
   8 S8             3.8737     2.4875     0.2831 S.3     
   9 C9             2.8929     3.8231    -0.2960 C.2     
  10 C10            0.5170     4.4586    -0.7128 C.3     
  11 C11            3.4230     5.1143    -0.7446 C.2     
  12 O12            2.6638     5.9829    -1.1292 O.2     
  13 O13            4.7529     5.3388    -0.7308 O.3     
  14 N14           -1.1274     2.2052     0.0112 N.pl3   
  15 C15           -2.3434     1.5096     0.0419 C.ar    
  16 C16           -4.7449     1.5170     0.1607 C.ar    
  17 C17           -4.7477     0.1333     0.1037 C.ar    
  18 C18           -3.5531    -0.5612     0.0210 C.ar    
  19 C19           -2.3526     0.1238    -0.0095 C.ar    
  20 C20           -3.5456     2.2088     0.1301 C.ar    
  21 O21           -3.5411     3.5674     0.1864 O.3     
  22 C22           -4.8023     4.2133     0.3717 C.3     
  23 C23           -4.5959     5.5282     1.1261 C.3     
  24 C24           -5.4330     4.5013    -0.9922 C.3     
  25 F25           -5.9184    -0.5403     0.1341 F       
  26 F26           -5.7265     3.2937    -1.6346 F       
  27 F27           -4.1258     5.2573     2.4156 F       
  28 H28            1.0697    -1.3228     1.5134 H       
  29 H29            0.0969     4.9608     0.1586 H       
  30 H30            0.9458     5.1995    -1.3875 H       
  31 H31           -0.2695     3.9087    -1.2296 H       
  32 H32            5.0551     6.2053    -1.0359 H       
  33 H33           -1.1098     3.1401    -0.2469 H       
  34 H34           -5.6782     2.0568     0.2252 H       
  35 H35           -3.5591    -1.6403    -0.0233 H       
  36 H36           -1.4220    -0.4204    -0.0737 H       
  37 H37           -5.4619     3.5639     0.9472 H       
  38 H38           -3.8675     6.1412     0.5952 H       
  39 H39           -5.5435     6.0632     1.1897 H       
  40 H40           -6.3513     5.0721    -0.8545 H       
  41 H41           -4.7354     5.0765    -1.6009 H       
@<TRIPOS>BOND
   1    1    2 ar
   2    1    5 ar
   3    1   14 1
   4    2    3 ar
   5    3    4 ar
   6    3   28 1
   7    4    7 ar
   8    5    7 ar
   9    5    6 1
  10    6    9 2
  11    6   10 1
  12    7    8 1
  13    8    9 1
  14    9   11 1
  15   10   29 1
  16   10   30 1
  17   10   31 1
  18   11   12 2
  19   11   13 1
  20   13   32 1
  21   14   15 1
  22   14   33 1
  23   15   20 ar
  24   15   19 ar
  25   16   17 ar
  26   16   20 ar
  27   16   34 1
  28   17   18 ar
  29   17   25 1
  30   18   19 ar
  31   18   35 1
  32   19   36 1
  33   20   21 1
  34   21   22 1
  35   22   23 1
  36   22   24 1
  37   22   37 1
  38   23   27 1
  39   23   38 1
  40   23   39 1
  41   24   26 1
  42   24   40 1
  43   24   41 1

#	End of record

