#	Name: ASD13680018
#	Creating user name:	WinNT
#	Creation time:	15. 06. 2019 21:30

#	Modifying user name:	WinNT
#	Modification time:	15. 06. 2019 21:30

#	Program:	/corina/corina34_cracker 3.40 0067  02.08.2006

@<TRIPOS>MOLECULE
ASD13680018
  40   42    0    0    0
SMALL
NO_CHARGES


@<TRIPOS>ATOM
   1 C1            -0.0185     1.5103     0.0103 C.3     
   2 C2             0.0021    -0.0041     0.0020 C.2     
   3 C3             0.7576    -0.7671     0.7975 C.2     
   4 C4             1.7349    -0.2338     1.8308 C.3     
   5 C5             1.8928     2.2237     1.4371 C.3     
   6 C6             1.4097     2.0532    -0.0004 C.3     
   7 C7             1.2832     1.1383     2.3216 C.3     
   8 C8             0.5459    -2.1872     0.5647 C.2     
   9 C9            -0.3649    -2.4467    -0.4191 C.2     
  10 S10           -0.9766    -0.9980    -1.0691 S.3     
  11 N11           -0.7395    -3.7153    -0.8314 N.am    
  12 C12            1.2431    -3.2377     1.3128 C.2     
  13 O13            0.7598    -3.6762     2.3402 O.2     
  14 N14            2.4193    -3.7180     0.8628 N.am    
  15 C15           -1.6500    -3.8630    -1.8140 C.2     
  16 C16           -2.0492    -5.2148    -2.2534 C.ar    
  17 C17           -1.4855    -6.3431    -1.6530 C.ar    
  18 C18           -1.8629    -7.6024    -2.0675 C.ar    
  19 C19           -2.7985    -7.7525    -3.0772 C.ar    
  20 C20           -3.3620    -6.6425    -3.6776 C.ar    
  21 C21           -2.9979    -5.3723    -3.2687 C.ar    
  22 F22           -3.5527    -4.2874    -3.8521 F       
  23 O23           -2.1426    -2.8831    -2.3387 O.2     
  24 H24           -0.5486     1.8697    -0.8717 H       
  25 H25           -0.5316     1.8601     0.9061 H       
  26 H26            1.7804    -0.9224     2.6745 H       
  27 H27            2.7247    -0.1492     1.3821 H       
  28 H28            2.9796     2.1458     1.4656 H       
  29 H29            1.5913     3.2038     1.8067 H       
  30 H30            2.0615     1.3531    -0.5229 H       
  31 H31            1.4288     3.0178    -0.5077 H       
  32 H32            0.1959     1.2005     2.2755 H       
  33 H33            1.6115     1.2819     3.3510 H       
  34 H34           -0.3465    -4.4971    -0.4127 H       
  35 H35            2.8045    -3.3686     0.0440 H       
  36 H36            2.8806    -4.4130     1.3577 H       
  37 H37           -0.7550    -6.2290    -0.8657 H       
  38 H38           -1.4272    -8.4749    -1.6035 H       
  39 H39           -3.0891    -8.7421    -3.3976 H       
  40 H40           -4.0911    -6.7671    -4.4645 H       
@<TRIPOS>BOND
   1    1    2 1
   2    1    6 1
   3    1   24 1
   4    1   25 1
   5    2   10 1
   6    2    3 2
   7    3    4 1
   8    3    8 1
   9    4    7 1
  10    4   26 1
  11    4   27 1
  12    5    6 1
  13    5    7 1
  14    5   28 1
  15    5   29 1
  16    6   30 1
  17    6   31 1
  18    7   32 1
  19    7   33 1
  20    8    9 2
  21    8   12 1
  22    9   10 1
  23    9   11 1
  24   11   15 am
  25   11   34 1
  26   12   13 2
  27   12   14 am
  28   14   35 1
  29   14   36 1
  30   15   16 1
  31   15   23 2
  32   16   17 ar
  33   16   21 ar
  34   17   18 ar
  35   17   37 1
  36   18   19 ar
  37   18   38 1
  38   19   20 ar
  39   19   39 1
  40   20   21 ar
  41   20   40 1
  42   21   22 1

#	End of record

