#	Name: ASD11000276
#	Creating user name:	WinNT
#	Creation time:	15. 06. 2019 21:29

#	Modifying user name:	WinNT
#	Modification time:	15. 06. 2019 21:29

#	Program:	/corina/corina34_cracker 3.40 0067  02.08.2006

@<TRIPOS>MOLECULE
ASD11000276
  39   40    0    0    0
SMALL
NO_CHARGES


@<TRIPOS>ATOM
   1 N1            -0.0161     1.3396     0.0094 N.am    
   2 C2             0.0021    -0.0041     0.0020 C.2     
   3 C3             1.2119    -0.7306    -0.0134 C.2     
   4 C4             2.3992    -0.0744    -0.0207 C.2     
   5 C5             2.3866     1.3883    -0.0128 C.ar    
   6 C6             3.5767     2.1267    -0.0201 C.ar    
   7 C7             3.4841     3.5060    -0.0123 C.ar    
   8 C8             2.2326     4.1056     0.0023 C.ar    
   9 N9             1.1261     3.3921     0.0095 N.ar    
  10 C10            1.1525     2.0664     0.0022 C.ar    
  11 O11           -1.0545    -0.6115     0.0092 O.2     
  12 C12           -1.3015     2.0425     0.0193 C.3     
  13 O13           -1.8806     1.9581     1.3229 O.3     
  14 C14           -1.3403     2.8913     2.2605 C.3     
  15 C15           -2.0302     2.7116     3.6143 C.3     
  16 Si16          -1.3257     3.9283     4.8366 Si      
  17 C17           -1.6101     5.6632     4.2202 C.3     
  18 C18           -2.1658     3.7095     6.4850 C.3     
  19 C19            0.5032     3.6290     5.0271 C.3     
  20 Br20           5.0495     4.5668    -0.0209 Br      
  21 H21            1.1924    -1.8104    -0.0190 H       
  22 H22            3.3317    -0.6190    -0.0318 H       
  23 H23            4.5375     1.6336    -0.0312 H       
  24 H24            2.1647     5.1834     0.0084 H       
  25 H25           -1.1452     3.0892    -0.2418 H       
  26 H26           -1.9723     1.5833    -0.7068 H       
  27 H27           -0.2702     2.7162     2.3720 H       
  28 H28           -1.5067     3.9064     1.8998 H       
  29 H29           -3.1002     2.8868     3.5028 H       
  30 H30           -1.8638     1.6966     3.9750 H       
  31 H31           -2.6802     5.8384     4.1087 H       
  32 H32           -1.1980     6.3751     4.9353 H       
  33 H33           -1.1186     5.7912     3.2557 H       
  34 H34           -1.9994     2.6945     6.8457 H       
  35 H35           -1.7537     4.4214     7.2002 H       
  36 H36           -3.2359     3.8847     6.3736 H       
  37 H37            0.9947     3.7570     4.0627 H       
  38 H38            0.9153     4.3408     5.7423 H       
  39 H39            0.6696     2.6139     5.3878 H       
@<TRIPOS>BOND
   1    1    2 am
   2    1   10 1
   3    1   12 1
   4    2    3 1
   5    2   11 2
   6    3    4 2
   7    3   21 1
   8    4    5 1
   9    4   22 1
  10    5    6 ar
  11    5   10 ar
  12    6    7 ar
  13    6   23 1
  14    7    8 ar
  15    7   20 1
  16    8    9 ar
  17    8   24 1
  18    9   10 ar
  19   12   13 1
  20   12   25 1
  21   12   26 1
  22   13   14 1
  23   14   15 1
  24   14   27 1
  25   14   28 1
  26   15   16 1
  27   15   29 1
  28   15   30 1
  29   16   17 1
  30   16   18 1
  31   16   19 1
  32   17   31 1
  33   17   32 1
  34   17   33 1
  35   18   34 1
  36   18   35 1
  37   18   36 1
  38   19   37 1
  39   19   38 1
  40   19   39 1

#	End of record

