#	Name: ASD10160186
#	Creating user name:	WinNT
#	Creation time:	15. 06. 2019 21:25

#	Modifying user name:	WinNT
#	Modification time:	15. 06. 2019 21:25

#	Program:	/corina/corina34_cracker 3.40 0067  02.08.2006

@<TRIPOS>MOLECULE
ASD10160186
  36   38    0    0    0
SMALL
NO_CHARGES


@<TRIPOS>ATOM
   1 C1            -0.0332     1.4702     0.0134 C.2     
   2 C2            -0.0092    -0.0043     0.0044 C.ar    
   3 C3             1.2057    -0.6857    -0.1329 C.ar    
   4 C4             1.2229    -2.0662    -0.1407 C.ar    
   5 C5             0.0379    -2.7777    -0.0131 C.ar    
   6 C6            -1.1727    -2.1036     0.1232 C.ar    
   7 C7            -1.1991    -0.7258     0.1388 C.ar    
   8 O8             1.0034     2.0959    -0.0987 O.2     
   9 N9            -1.2048     2.1243     0.1401 N.am    
  10 O10            0.0593    -4.1353    -0.0218 O.3     
  11 C11           -0.1509    -4.7668    -1.2008 C.ar    
  12 N12           -0.0376    -6.0787    -1.2428 N.ar    
  13 C13           -0.2384    -6.7381    -2.3903 C.ar    
  14 C14           -0.5737    -5.9910    -3.5493 C.ar    
  15 C15           -0.6801    -4.5934    -3.4418 C.ar    
  16 N16           -0.4684    -4.0372    -2.2664 N.ar    
  17 C17           -0.7876    -6.6660    -4.7620 C.ar    
  18 C18           -0.6613    -8.0281    -4.7699 C.ar    
  19 C19           -0.3299    -8.7013    -3.5976 C.ar    
  20 N20           -0.1304    -8.0655    -2.4662 N.ar    
  21 S21           -1.2318     3.7800     0.1501 S.o2    
  22 O22           -2.6039     4.1071     0.3226 O.2     
  23 O23           -0.2645     4.1404     1.1267 O.2     
  24 C24           -0.6685     4.2520    -1.5083 C.3     
  25 F25           -2.3229    -2.8015     0.2466 F       
  26 F26            2.3593     0.0061    -0.2580 F       
  27 H27            2.1597    -2.5932    -0.2466 H       
  28 H28           -2.1383    -0.2041     0.2495 H       
  29 H29           -2.0322     1.6252     0.2255 H       
  30 H30           -0.9334    -3.9904    -4.3013 H       
  31 H31           -1.0444    -6.1260    -5.6614 H       
  32 H32           -0.8189    -8.5804    -5.6845 H       
  33 H33           -0.2337    -9.7768    -3.6193 H       
  34 H34           -1.3475     3.8384    -2.2540 H       
  35 H35           -0.6552     5.3387    -1.5920 H       
  36 H36            0.3357     3.8624    -1.6755 H       
@<TRIPOS>BOND
   1    1    2 1
   2    1    8 2
   3    1    9 am
   4    2    3 ar
   5    2    7 ar
   6    3    4 ar
   7    3   26 1
   8    4    5 ar
   9    4   27 1
  10    5    6 ar
  11    5   10 1
  12    6    7 ar
  13    6   25 1
  14    7   28 1
  15    9   21 am
  16    9   29 1
  17   10   11 1
  18   11   12 ar
  19   11   16 ar
  20   12   13 ar
  21   13   14 ar
  22   13   20 ar
  23   14   15 ar
  24   14   17 ar
  25   15   16 ar
  26   15   30 1
  27   17   18 ar
  28   17   31 1
  29   18   19 ar
  30   18   32 1
  31   19   20 ar
  32   19   33 1
  33   21   22 2
  34   21   23 2
  35   21   24 1
  36   24   34 1
  37   24   35 1
  38   24   36 1

#	End of record

