#	Name: ASD10610069
#	Creating user name:	WinNT
#	Creation time:	15. 06. 2019 21:27

#	Modifying user name:	WinNT
#	Modification time:	15. 06. 2019 21:27

#	Program:	/corina/corina34_cracker 3.40 0067  02.08.2006

@<TRIPOS>MOLECULE
ASD10610069
  61   65    0    0    0
SMALL
NO_CHARGES


@<TRIPOS>ATOM
   1 C1            -0.8668     0.9561     0.7847 C.2     
   2 N2            -0.2998    -0.1283     0.3408 N.2     
   3 C3            -0.3582    -1.0810     1.3061 C.2     
   4 C4            -0.9938    -0.5362     2.3833 C.2     
   5 N5            -1.3091     0.7377     2.0505 N.pl3   
   6 C6             0.1688    -2.4533     1.2083 C.2     
   7 O7             0.0536    -3.2173     2.1476 O.2     
   8 N8             0.7785    -2.8621     0.0780 N.am    
   9 O9             0.2223    -5.2827    -1.2859 O.3     
  10 C10            0.4155    -5.3584     0.1325 C.3     
  11 C11            1.3996    -4.1876     0.0190 C.3     
  12 C12            1.5517    -4.7580    -1.3966 C.3     
  13 C13            2.6280    -4.3156     0.8825 C.2     
  14 N14            3.4643    -3.2682     1.0240 N.am    
  15 O15            2.8640    -5.3611     1.4500 O.2     
  16 C16            4.7137    -3.4245     1.7730 C.3     
  17 C17            4.4426    -3.2217     3.2651 C.3     
  18 C18            5.7140    -2.4012     1.3005 C.ar    
  19 C19            7.0218    -2.7879     1.0557 C.ar    
  20 C20            7.9372    -1.8423     0.6209 C.ar    
  21 C21            7.4983    -0.5266     0.4461 C.ar    
  22 C22            6.1656    -0.2190     0.7143 C.ar    
  23 N23            5.3299    -1.1524     1.1211 N.ar    
  24 F24            7.4004    -4.0717     1.2392 F       
  25 C25            8.4355     0.5248    -0.0166 C.ar    
  26 C26            8.0847     1.3603    -1.0892 C.ar    
  27 C27            8.9747     2.3455    -1.5153 C.ar    
  28 C28           10.1948     2.4946    -0.8814 C.ar    
  29 C29           10.5391     1.6693     0.1759 C.ar    
  30 C30            9.6647     0.6923     0.6135 C.ar    
  31 O31            4.9020     0.4449    -2.2093 O.3     
  32 N32            5.8533     0.3168    -1.4678 N.2     
  33 C33            6.7761     1.1957    -1.7650 C.2     
  34 N34            6.3112     1.9263    -2.8043 N.2     
  35 C35            5.1256     1.4398    -3.0737 C.2     
  36 C36            4.1889     1.9128    -4.1553 C.3     
  37 F37            8.6456     3.1535    -2.5468 F       
  38 Cl38          12.0744     1.8680     0.9613 Cl      
  39 C39           -2.0027     1.7067     2.9025 C.3     
  40 H40           -0.9656     1.8816     0.2369 H       
  41 H41           -1.2055    -1.0272     3.3216 H       
  42 H42            0.8061    -2.2786    -0.6964 H       
  43 H43           -0.4802    -5.1170     0.7047 H       
  44 H44            0.8841    -6.2877     0.4564 H       
  45 H45            2.3170    -5.5304    -1.4719 H       
  46 H46            1.6515    -3.9904    -2.1640 H       
  47 H47            3.2390    -2.4110     0.6300 H       
  48 H48            5.1128    -4.4255     1.6090 H       
  49 H49            3.7191    -3.9619     3.6068 H       
  50 H50            5.3722    -3.3380     3.8223 H       
  51 H51            4.0434    -2.2208     3.4291 H       
  52 H52            8.9633    -2.1149     0.4225 H       
  53 H53            5.8138     0.7936     0.5833 H       
  54 H54           10.8827     3.2583    -1.2130 H       
  55 H55            9.9376     0.0556     1.4421 H       
  56 H56            3.2779     1.3146    -4.1343 H       
  57 H57            3.9395     2.9605    -3.9874 H       
  58 H58            4.6717     1.8054    -5.1266 H       
  59 H59           -3.0780     1.6263     2.7433 H       
  60 H60           -1.7738     1.5005     3.9481 H       
  61 H61           -1.6724     2.7143     2.6502 H       
@<TRIPOS>BOND
   1    1    2 2
   2    1    5 1
   3    1   40 1
   4    2    3 1
   5    3    4 2
   6    3    6 1
   7    4    5 1
   8    4   41 1
   9    5   39 1
  10    6    7 2
  11    6    8 am
  12    8   11 1
  13    8   42 1
  14    9   10 1
  15    9   12 1
  16   10   11 1
  17   10   43 1
  18   10   44 1
  19   11   12 1
  20   11   13 1
  21   12   45 1
  22   12   46 1
  23   13   14 am
  24   13   15 2
  25   14   16 1
  26   14   47 1
  27   16   17 1
  28   16   18 1
  29   16   48 1
  30   17   49 1
  31   17   50 1
  32   17   51 1
  33   18   19 ar
  34   18   23 ar
  35   19   20 ar
  36   19   24 1
  37   20   21 ar
  38   20   52 1
  39   21   22 ar
  40   21   25 1
  41   22   23 ar
  42   22   53 1
  43   25   26 ar
  44   25   30 ar
  45   26   27 ar
  46   26   33 1
  47   27   28 ar
  48   27   37 1
  49   28   29 ar
  50   28   54 1
  51   29   30 ar
  52   29   38 1
  53   30   55 1
  54   31   32 1
  55   31   35 1
  56   32   33 2
  57   33   34 1
  58   34   35 2
  59   35   36 1
  60   36   56 1
  61   36   57 1
  62   36   58 1
  63   39   59 1
  64   39   60 1
  65   39   61 1

#	End of record

