#	Name: ASD10410221
#	Creating user name:	WinNT
#	Creation time:	15. 06. 2019 21:27

#	Modifying user name:	WinNT
#	Modification time:	15. 06. 2019 21:27

#	Program:	/corina/corina34_cracker 3.40 0067  02.08.2006

@<TRIPOS>MOLECULE
ASD10410221
  52   56    0    0    0
SMALL
NO_CHARGES


@<TRIPOS>ATOM
   1 C1            -0.0183     1.3926    -0.0796 C.ar    
   2 C2            -0.0057     0.0095     0.0248 C.ar    
   3 C3             1.2007    -0.6692     0.1140 C.ar    
   4 C4             2.3905     0.0318     0.0995 C.ar    
   5 C5             2.3788     1.4166    -0.0049 C.ar    
   6 C6             1.1704     2.0952    -0.0947 C.ar    
   7 O7            -1.1769    -0.6816     0.0401 O.3     
   8 N8             3.5843     2.1280    -0.0197 N.pl3   
   9 C9             3.6712     3.3384    -0.7068 C.2     
  10 N10            4.7099     4.1387    -0.7079 N.2     
  11 N11            2.7100     3.8652    -1.4745 N.2     
  12 C12            3.1189     5.0120    -1.9732 C.2     
  13 N13            4.3816     5.2364    -1.5200 N.pl3   
  14 C14            5.1874     6.3342    -1.8047 C.ar    
  15 N15            2.3961     5.8391    -2.8109 N.pl3   
  16 C16            6.4904     6.4319    -1.2566 C.ar    
  17 C17           -1.0897    -2.1037     0.1497 C.3     
  18 C18           -2.4976    -2.7025     0.1506 C.3     
  19 N19           -3.1374    -2.4513    -1.1477 N.3     
  20 C20           -4.3943    -3.2119    -1.2733 C.3     
  21 C21           -5.5177    -2.1940    -1.5620 C.3     
  22 C22           -4.7480    -0.9804    -2.1466 C.3     
  23 C23           -3.4375    -1.0141    -1.3212 C.3     
  24 N24            4.7510     7.3015    -2.5963 N.ar    
  25 C25            5.5042     8.3495    -2.8755 C.ar    
  26 N26            6.7159     8.4896    -2.3892 N.ar    
  27 C27            7.2468     7.5625    -1.5838 C.ar    
  28 S28            8.8135     7.4728    -0.7927 S.3     
  29 C29            8.4263     5.9315    -0.0515 C.2     
  30 C30            7.2131     5.5307    -0.3793 C.2     
  31 H31           -0.9580     1.9198    -0.1535 H       
  32 H32            1.2096    -1.7461     0.1953 H       
  33 H33            3.3297    -0.4967     0.1697 H       
  34 H34            1.1604     3.1720    -0.1764 H       
  35 H35            4.3591     1.7790     0.4479 H       
  36 H36            1.4986     5.5902    -3.0820 H       
  37 H37            2.7860     6.6688    -3.1279 H       
  38 H38           -0.5271    -2.4995    -0.6958 H       
  39 H39           -0.5826    -2.3661     1.0782 H       
  40 H40           -2.4354    -3.7769     0.3232 H       
  41 H41           -3.0882    -2.2410     0.9420 H       
  42 H42           -4.3171    -3.9223    -2.0963 H       
  43 H43           -4.6026    -3.7401    -0.3429 H       
  44 H44           -6.2207    -2.5930    -2.2932 H       
  45 H45           -6.0325    -1.9170    -0.6421 H       
  46 H46           -4.5446    -1.1216    -3.2081 H       
  47 H47           -5.2937    -0.0526    -1.9751 H       
  48 H48           -3.5870    -0.5379    -0.3522 H       
  49 H49           -2.6326    -0.5216    -1.8669 H       
  50 H50            5.1107     9.1168    -3.5258 H       
  51 H51            9.0957     5.3809     0.5928 H       
  52 H52            6.7905     4.6033    -0.0219 H       
@<TRIPOS>BOND
   1    1    2 ar
   2    1    6 ar
   3    1   31 1
   4    2    3 ar
   5    2    7 1
   6    3    4 ar
   7    3   32 1
   8    4    5 ar
   9    4   33 1
  10    5    6 ar
  11    5    8 1
  12    6   34 1
  13    7   17 1
  14    8    9 1
  15    8   35 1
  16    9   10 2
  17    9   11 1
  18   10   13 1
  19   11   12 2
  20   12   13 1
  21   12   15 1
  22   13   14 1
  23   14   16 ar
  24   14   24 ar
  25   15   36 1
  26   15   37 1
  27   16   27 ar
  28   16   30 1
  29   17   18 1
  30   17   38 1
  31   17   39 1
  32   18   19 1
  33   18   40 1
  34   18   41 1
  35   19   20 1
  36   19   23 1
  37   20   21 1
  38   20   42 1
  39   20   43 1
  40   21   22 1
  41   21   44 1
  42   21   45 1
  43   22   23 1
  44   22   46 1
  45   22   47 1
  46   23   48 1
  47   23   49 1
  48   24   25 ar
  49   25   26 ar
  50   25   50 1
  51   26   27 ar
  52   27   28 1
  53   28   29 1
  54   29   30 2
  55   29   51 1
  56   30   52 1

#	End of record

