#	Name: ASD10610176
#	Creating user name:	WinNT
#	Creation time:	15. 06. 2019 21:28

#	Modifying user name:	WinNT
#	Modification time:	15. 06. 2019 21:28

#	Program:	/corina/corina34_cracker 3.40 0067  02.08.2006

@<TRIPOS>MOLECULE
ASD10610176
  76   81    0    0    0
SMALL
NO_CHARGES


@<TRIPOS>ATOM
   1 C1            -0.7752    -0.0117     1.9160 C.2     
   2 N2            -0.1705     0.0628     0.7138 N.am    
   3 O3            -0.2592    -0.6421     2.8176 O.2     
   4 O4            -1.9482     0.6170     2.1196 O.3     
   5 O5             0.8619    -2.1469    -0.7286 O.3     
   6 C6             1.2048    -2.0520     0.6600 C.3     
   7 C7             1.1580    -0.5251     0.5244 C.3     
   8 C8             1.4978    -0.8778    -0.9290 C.3     
   9 C9             2.2496     0.2035     1.2650 C.2     
  10 N10            2.2040     1.5452     1.3835 N.am    
  11 O11            3.1692    -0.4176     1.7544 O.2     
  12 C12            3.3175     2.2637     2.0081 C.3     
  13 C13            3.1324     2.2701     3.5269 C.3     
  14 C14            3.4046     6.2892     0.5655 C.ar    
  15 C15            4.5702     5.6945     1.0446 C.ar    
  16 C16            4.5376     4.3932     1.5094 C.ar    
  17 C17            3.3484     3.6821     1.4999 C.ar    
  18 C18            2.1901     4.2692     1.0252 C.ar    
  19 C19            2.2122     5.5681     0.5583 C.ar    
  20 C20            3.4317     7.6874     0.0709 C.ar    
  21 C21            4.3277     8.0585    -0.9359 C.ar    
  22 C22            4.3467     9.3673    -1.3926 C.ar    
  23 C23            3.4818    10.3020    -0.8528 C.ar    
  24 C24            2.5935     9.9371     0.1444 C.ar    
  25 C25            2.5605     8.6347     0.6037 C.ar    
  26 F26            5.6663     3.8144     1.9744 F       
  27 O27            5.1775     7.1395    -1.4648 O.3     
  28 C28            4.6930     6.3643    -2.5631 C.3     
  29 C29            5.7442     5.3245    -2.9566 C.3     
  30 F30            6.9258     5.9741    -3.3296 F       
  31 F31            5.9982     4.4832    -1.8681 F       
  32 Cl32           1.5128    11.1186     0.8152 Cl      
  33 Cl33           5.4574     9.8336    -2.6427 Cl      
  34 C34           -2.5420     0.4935     3.4389 C.3     
  35 C35           -3.8605     1.2686     3.4793 C.3     
  36 C36           -4.5510     1.0505     4.8033 C.ar    
  37 C37           -5.0280    -0.0854     5.4228 C.ar    
  38 C38           -5.6317     0.0045     6.6644 C.ar    
  39 C39           -5.7587     1.2335     7.2867 C.ar    
  40 C40           -5.2849     2.3748     6.6742 C.ar    
  41 C41           -4.6742     2.2916     5.4214 C.ar    
  42 C42           -4.0856     3.3384     4.5496 C.ar    
  43 C43           -3.9673     4.7188     4.7218 C.ar    
  44 C44           -3.3685     5.4861     3.7446 C.ar    
  45 C45           -2.8833     4.8933     2.5927 C.ar    
  46 C46           -2.9975     3.5260     2.4151 C.ar    
  47 C47           -3.5947     2.7511     3.3869 C.ar    
  48 H48           -0.6149     0.5056    -0.0260 H       
  49 H49            0.4376    -2.4513     1.3234 H       
  50 H50            2.1992    -2.4360     0.8875 H       
  51 H51            2.5687    -0.9552    -1.1164 H       
  52 H52            0.9873    -0.2483    -1.6578 H       
  53 H53            1.4340     2.0352     1.0551 H       
  54 H54            4.2555     1.7678     1.7585 H       
  55 H55            3.9609     2.8046     3.9916 H       
  56 H56            2.1944     2.7660     3.7765 H       
  57 H57            3.1100     1.2442     3.8945 H       
  58 H58            5.4971     6.2488     1.0520 H       
  59 H59            1.2660     3.7104     1.0196 H       
  60 H60            1.3065     6.0248     0.1876 H       
  61 H61            3.4998    11.3209    -1.2104 H       
  62 H62            1.8632     8.3523     1.3785 H       
  63 H63            3.7724     5.8581    -2.2725 H       
  64 H64            4.4950     7.0198    -3.4112 H       
  65 H65            5.3746     4.7332    -3.7944 H       
  66 H66           -2.7318    -0.5579     3.6549 H       
  67 H67           -1.8586     0.8999     4.1844 H       
  68 H68           -4.5075     0.9506     2.6618 H       
  69 H69           -4.9298    -1.0458     4.9387 H       
  70 H70           -6.0047    -0.8861     7.1483 H       
  71 H71           -6.2309     1.2995     8.2557 H       
  72 H72           -5.3864     3.3324     7.1633 H       
  73 H73           -4.3448     5.1857     5.6196 H       
  74 H74           -3.2778     6.5538     3.8793 H       
  75 H75           -2.4150     5.4987     1.8308 H       
  76 H76           -2.6183     3.0652     1.5149 H       
@<TRIPOS>BOND
   1    1    2 am
   2    1    3 2
   3    1    4 1
   4    2    7 1
   5    2   48 1
   6    4   34 1
   7    5    6 1
   8    5    8 1
   9    6    7 1
  10    6   49 1
  11    6   50 1
  12    7    8 1
  13    7    9 1
  14    8   51 1
  15    8   52 1
  16    9   10 am
  17    9   11 2
  18   10   12 1
  19   10   53 1
  20   12   13 1
  21   12   17 1
  22   12   54 1
  23   13   55 1
  24   13   56 1
  25   13   57 1
  26   14   15 ar
  27   14   19 ar
  28   14   20 1
  29   15   16 ar
  30   15   58 1
  31   16   17 ar
  32   16   26 1
  33   17   18 ar
  34   18   19 ar
  35   18   59 1
  36   19   60 1
  37   20   21 ar
  38   20   25 ar
  39   21   22 ar
  40   21   27 1
  41   22   23 ar
  42   22   33 1
  43   23   24 ar
  44   23   61 1
  45   24   25 ar
  46   24   32 1
  47   25   62 1
  48   27   28 1
  49   28   29 1
  50   28   63 1
  51   28   64 1
  52   29   30 1
  53   29   31 1
  54   29   65 1
  55   34   35 1
  56   34   66 1
  57   34   67 1
  58   35   36 1
  59   35   47 1
  60   35   68 1
  61   36   37 ar
  62   36   41 ar
  63   37   38 ar
  64   37   69 1
  65   38   39 ar
  66   38   70 1
  67   39   40 ar
  68   39   71 1
  69   40   41 ar
  70   40   72 1
  71   41   42 1
  72   42   43 ar
  73   42   47 ar
  74   43   44 ar
  75   43   73 1
  76   44   45 ar
  77   44   74 1
  78   45   46 ar
  79   45   75 1
  80   46   47 ar
  81   46   76 1

#	End of record

