#	Name: ASD10610013
#	Creating user name:	WinNT
#	Creation time:	15. 06. 2019 21:27

#	Modifying user name:	WinNT
#	Modification time:	15. 06. 2019 21:27

#	Program:	/corina/corina34_cracker 3.40 0067  02.08.2006

@<TRIPOS>MOLECULE
ASD10610013
  56   60    0    0    0
SMALL
NO_CHARGES


@<TRIPOS>ATOM
   1 C1             0.6146     1.0910    -0.4655 C.ar    
   2 C2             0.6907    -0.2997    -0.4112 C.ar    
   3 C3             1.9248    -0.9155    -0.2149 C.ar    
   4 C4             3.0673    -0.1501    -0.0747 C.ar    
   5 C5             2.9859     1.2303    -0.1293 C.ar    
   6 C6             1.7598     1.8461    -0.3246 C.ar    
   7 C7             4.3645     1.8305     0.0493 C.3     
   8 C8            -0.5354    -1.1194    -0.5611 C.ar    
   9 C9            -0.5625    -2.1783    -1.4633 C.ar    
  10 C10           -1.7074    -2.9405    -1.6014 C.ar    
  11 C11           -2.8325    -2.6574    -0.8455 C.ar    
  12 C12           -2.8225    -1.6089     0.0562 C.ar    
  13 C13           -1.6733    -0.8346     0.2108 C.ar    
  14 F14           -3.9239    -1.3380     0.7901 F       
  15 C15           -1.6568     0.2902     1.1755 C.2     
  16 N16           -2.6787     0.6812     1.9710 N.2     
  17 N17            4.5285     2.3291     1.4171 N.am    
  18 C18            4.1269     3.5764     1.7323 C.2     
  19 O19            3.7115     4.3168     0.8662 O.2     
  20 C20            4.1942     4.0512     3.1610 C.3     
  21 N21            3.8984     2.9932     4.1303 N.am    
  22 C22            2.6665     2.4485     4.1783 C.2     
  23 C23            2.3264     1.4480     5.2527 C.3     
  24 O24            1.8317     2.7636     3.3569 O.2     
  25 F25            1.0009     1.0284     5.0965 F       
  26 F26            3.1801     0.3444     5.1493 F       
  27 F27            2.4824     2.0421     6.5096 F       
  28 Cl28          -1.7349    -4.2600    -2.7292 Cl      
  29 C29           -2.2235     1.7033     2.6516 C.2     
  30 O30           -0.9610     1.9055     2.2618 O.3     
  31 N31           -0.6492     1.0879     1.4218 N.2     
  32 C32            4.5056    -0.5692     0.1440 C.3     
  33 C33            5.3478     0.6719    -0.2198 C.3     
  34 C34            5.4647     4.8579     3.4892 C.3     
  35 O35            4.5796     5.7482     4.1983 O.3     
  36 C36            3.4272     5.3621     3.4177 C.3     
  37 C37           -2.9811     2.5019     3.6808 C.3     
  38 H38           -0.3378     1.5755    -0.6219 H       
  39 H39            1.9890    -1.9927    -0.1717 H       
  40 H40            1.7008     2.9236    -0.3666 H       
  41 H41            4.5219     2.6363    -0.6677 H       
  42 H42            0.3112    -2.4046    -2.0564 H       
  43 H43           -3.7225    -3.2583    -0.9610 H       
  44 H44            4.9260     1.7615     2.0958 H       
  45 H45            4.5891     2.6847     4.7375 H       
  46 H46            4.6655    -0.8424     1.1870 H       
  47 H47            4.7599    -1.4036    -0.5096 H       
  48 H48            5.6400     0.6476    -1.2696 H       
  49 H49            6.2230     0.7488     0.4254 H       
  50 H50            6.1681     4.3301     4.1333 H       
  51 H51            5.9382     5.3090     2.6172 H       
  52 H52            3.2778     5.9668     2.5232 H       
  53 H53            2.5182     5.2360     4.0059 H       
  54 H54           -2.8347     2.0576     4.6653 H       
  55 H55           -2.6136     3.5280     3.6871 H       
  56 H56           -4.0429     2.4977     3.4345 H       
@<TRIPOS>BOND
   1    1    2 ar
   2    1    6 ar
   3    1   38 1
   4    2    3 ar
   5    2    8 1
   6    3    4 ar
   7    3   39 1
   8    4    5 ar
   9    4   32 1
  10    5    6 ar
  11    5    7 1
  12    6   40 1
  13    7   17 1
  14    7   33 1
  15    7   41 1
  16    8    9 ar
  17    8   13 ar
  18    9   10 ar
  19    9   42 1
  20   10   11 ar
  21   10   28 1
  22   11   12 ar
  23   11   43 1
  24   12   13 ar
  25   12   14 1
  26   13   15 1
  27   15   16 1
  28   15   31 2
  29   16   29 2
  30   17   18 am
  31   17   44 1
  32   18   19 2
  33   18   20 1
  34   20   21 1
  35   20   34 1
  36   20   36 1
  37   21   22 am
  38   21   45 1
  39   22   23 1
  40   22   24 2
  41   23   25 1
  42   23   26 1
  43   23   27 1
  44   29   30 1
  45   29   37 1
  46   30   31 1
  47   32   33 1
  48   32   46 1
  49   32   47 1
  50   33   48 1
  51   33   49 1
  52   34   35 1
  53   34   50 1
  54   34   51 1
  55   35   36 1
  56   36   52 1
  57   36   53 1
  58   37   54 1
  59   37   55 1
  60   37   56 1

#	End of record

