#	Name: ASD11000294
#	Creating user name:	WinNT
#	Creation time:	15. 06. 2019 21:29

#	Modifying user name:	WinNT
#	Modification time:	15. 06. 2019 21:29

#	Program:	/corina/corina34_cracker 3.40 0067  02.08.2006

@<TRIPOS>MOLECULE
ASD11000294
  25   26    0    0    0
SMALL
NO_CHARGES


@<TRIPOS>ATOM
   1 C1             2.2769     1.3401    -0.0524 C.ar    
   2 N2             2.2897     0.0225    -0.0400 N.ar    
   3 C3             1.1527    -0.6671    -0.0323 C.ar    
   4 C4            -0.0589     0.0275    -0.0375 C.ar    
   5 C5            -0.0230     1.4078    -0.0506 C.ar    
   6 N6             1.1508     2.0242    -0.0577 N.ar    
   7 N7             1.1698    -2.0533    -0.0197 N.pl3   
   8 C8             2.3828    -2.7387    -0.1405 C.ar    
   9 C9             2.5721    -3.9409     0.5290 C.ar    
  10 C10            3.7716    -4.6162     0.4074 C.ar    
  11 C11            4.7840    -4.0949    -0.3813 C.ar    
  12 C12            4.5972    -2.8974    -1.0484 C.ar    
  13 C13            3.3979    -2.2214    -0.9346 C.ar    
  14 Cl14           6.2899    -4.9452    -0.5325 Cl      
  15 Cl15           4.0101    -6.1186     1.2440 Cl      
  16 C16           -1.3024     2.2040    -0.0572 C.3     
  17 Cl17          -1.8115     2.5376     1.6400 Cl      
  18 H18            3.2157     1.8741    -0.0539 H       
  19 H19           -1.0004    -0.5017    -0.0318 H       
  20 H20            0.3405    -2.5477     0.0730 H       
  21 H21            1.7830    -4.3472     1.1443 H       
  22 H22            5.3882    -2.4929    -1.6625 H       
  23 H23            3.2514    -1.2889    -1.4594 H       
  24 H24           -1.1411     3.1467    -0.5801 H       
  25 H25           -2.0815     1.6355    -0.5651 H       
@<TRIPOS>BOND
   1    1    2 ar
   2    1    6 ar
   3    1   18 1
   4    2    3 ar
   5    3    4 ar
   6    3    7 1
   7    4    5 ar
   8    4   19 1
   9    5    6 ar
  10    5   16 1
  11    7    8 1
  12    7   20 1
  13    8    9 ar
  14    8   13 ar
  15    9   10 ar
  16    9   21 1
  17   10   11 ar
  18   10   15 1
  19   11   12 ar
  20   11   14 1
  21   12   13 ar
  22   12   22 1
  23   13   23 1
  24   16   17 1
  25   16   24 1
  26   16   25 1

#	End of record

