#	Name: ASD13540001
#	Creating user name:	WinNT
#	Creation time:	15. 06. 2019 21:30

#	Modifying user name:	WinNT
#	Modification time:	15. 06. 2019 21:30

#	Program:	/corina/corina34_cracker 3.40 0067  02.08.2006

@<TRIPOS>MOLECULE
ASD13540001
  33   34    0    0    0
SMALL
NO_CHARGES


@<TRIPOS>ATOM
   1 B1             0.0747     1.6212     0.0168 Du      
   2 C2             0.0973     0.0997    -0.3695 C.ar    
   3 O3             1.2797     2.2802     0.3774 O.3     
   4 C4            -1.2793     2.4159    -0.0019 C.ar    
   5 C5            -2.1235     2.3331    -1.1077 C.ar    
   6 C6            -3.3122     3.0335    -1.1189 C.ar    
   7 C7            -3.6665     3.8175    -0.0351 C.ar    
   8 C8            -2.8319     3.9032     1.0653 C.ar    
   9 C9            -1.6439     3.2021     1.0896 C.ar    
  10 C10           -1.0958    -0.5766    -0.6180 C.ar    
  11 C11            1.3108    -0.5782    -0.4707 C.ar    
  12 C12            1.3249    -1.9154    -0.8105 C.ar    
  13 C13            0.1371    -2.5834    -1.0506 C.ar    
  14 C14           -1.0702    -1.9138    -0.9571 C.ar    
  15 C15            1.1333     3.6863     0.5859 C.3     
  16 C16            2.5083     4.3115     0.8300 C.3     
  17 N17            3.3274     4.1817    -0.3825 N.3     
  18 H18           -1.8477     1.7221    -1.9545 H       
  19 H19           -3.9672     2.9701    -1.9753 H       
  20 H20           -4.5975     4.3647    -0.0483 H       
  21 H21           -3.1132     4.5166     1.9086 H       
  22 H22           -0.9954     3.2661     1.9508 H       
  23 H23           -2.0387    -0.0549    -0.5450 H       
  24 H24            2.2385    -0.0577    -0.2839 H       
  25 H25            2.2647    -2.4416    -0.8895 H       
  26 H26            0.1526    -3.6301    -1.3162 H       
  27 H27           -1.9941    -2.4388    -1.1498 H       
  28 H28            0.6796     4.1391    -0.2957 H       
  29 H29            0.4959     3.8606     1.4527 H       
  30 H30            2.3890     5.3665     1.0767 H       
  31 H31            2.9992     3.7983     1.6569 H       
  32 H32            4.2412     4.5875    -0.2466 H       
  33 H33            3.3992     3.2168    -0.6688 H       
@<TRIPOS>BOND
   1    1    2 1
   2    1    3 1
   3    1    4 1
   4    2   11 ar
   5    2   10 ar
   6    3   15 1
   7    4    5 ar
   8    4    9 ar
   9    5    6 ar
  10    5   18 1
  11    6    7 ar
  12    6   19 1
  13    7    8 ar
  14    7   20 1
  15    8    9 ar
  16    8   21 1
  17    9   22 1
  18   10   14 ar
  19   10   23 1
  20   11   12 ar
  21   11   24 1
  22   12   13 ar
  23   12   25 1
  24   13   14 ar
  25   13   26 1
  26   14   27 1
  27   15   16 1
  28   15   28 1
  29   15   29 1
  30   16   17 1
  31   16   30 1
  32   16   31 1
  33   17   32 1
  34   17   33 1

#	End of record

