#	Name: ASD13010004
#	Creating user name:	WinNT
#	Creation time:	15. 06. 2019 21:30

#	Modifying user name:	WinNT
#	Modification time:	15. 06. 2019 21:30

#	Program:	/corina/corina34_cracker 3.40 0067  02.08.2006

@<TRIPOS>MOLECULE
ASD13010004
  50   53    0    0    0
SMALL
NO_CHARGES


@<TRIPOS>ATOM
   1 C1             0.5743     1.6300    -2.1433 C.ar    
   2 C2             0.2485     0.5171    -1.4276 C.ar    
   3 C3             1.2031    -0.1177    -0.6192 C.ar    
   4 C4             2.4972     0.3862    -0.5402 C.ar    
   5 C5             1.8656     2.1517    -2.0792 C.ar    
   6 N6             2.4787     3.2285    -2.6670 N.pl3   
   7 C7             2.8344     1.5237    -1.2702 C.ar    
   8 C8             4.0651     2.3060    -1.4213 C.2     
   9 N9             3.8102     3.2888    -2.2446 N.2     
  10 C10            1.8705     4.1217    -3.5475 C.ar    
  11 N11            5.2866     2.0483    -0.7991 N.pl3   
  12 C12            6.3452     2.9516    -0.9360 C.ar    
  13 C13            6.1818     4.2789    -0.5576 C.ar    
  14 C14            7.5652     2.5230    -1.4454 C.ar    
  15 C15            8.6093     3.4188    -1.5792 C.ar    
  16 C16            8.4411     4.7399    -1.2070 C.ar    
  17 C17            7.2305     5.1688    -0.6944 C.ar    
  18 Cl18           4.6623     4.8186     0.0854 Cl      
  19 C19            0.6610     5.8975    -5.2979 C.ar    
  20 C20            0.3013     4.5463    -5.3107 C.ar    
  21 C21            0.9035     3.6673    -4.4396 C.ar    
  22 C22            2.2275     5.4669    -3.5288 C.ar    
  23 C23            1.6287     6.3516    -4.3964 C.ar    
  24 C24            0.0183     6.8421    -6.2299 C.2     
  25 O25           -0.8249     6.4467    -7.0104 O.2     
  26 O26            0.3661     8.1440    -6.2163 O.3     
  27 Cl27           7.7777     0.8646    -1.9125 Cl      
  28 C28            0.8335    -1.3226     0.1497 C.2     
  29 O29            0.1187    -2.1684    -0.3521 O.2     
  30 N30            1.2883    -1.4849     1.4080 N.am    
  31 C31            1.0062    -2.7254     2.1346 C.3     
  32 C32            2.0649    -0.4209     2.0491 C.3     
  33 H33           -0.1688     2.1066    -2.7655 H       
  34 H34           -0.7543     0.1201    -1.4831 H       
  35 H35            3.2340    -0.1000     0.0819 H       
  36 H36            5.4017     1.2425    -0.2716 H       
  37 H37            9.5577     3.0864    -1.9747 H       
  38 H38            9.2588     5.4375    -1.3124 H       
  39 H39            7.1042     6.2004    -0.4007 H       
  40 H40           -0.4461     4.1924    -6.0054 H       
  41 H41            0.6256     2.6237    -4.4485 H       
  42 H42            2.9750     5.8169    -2.8323 H       
  43 H43            1.9090     7.3945    -4.3841 H       
  44 H44           -0.0827     8.7249    -6.8458 H       
  45 H45            1.8034    -3.4449     1.9481 H       
  46 H46            0.9485    -2.5157     3.2027 H       
  47 H47            0.0569    -3.1383     1.7935 H       
  48 H48            2.1050     0.4468     1.3907 H       
  49 H49            1.5907    -0.1414     2.9899 H       
  50 H50            3.0767    -0.7764     2.2438 H       
@<TRIPOS>BOND
   1    1    2 ar
   2    1    5 ar
   3    1   33 1
   4    2    3 ar
   5    2   34 1
   6    3    4 ar
   7    3   28 1
   8    4    7 ar
   9    4   35 1
  10    5    7 ar
  11    5    6 1
  12    6    9 1
  13    6   10 1
  14    7    8 1
  15    8    9 2
  16    8   11 1
  17   10   22 ar
  18   10   21 ar
  19   11   12 1
  20   11   36 1
  21   12   14 ar
  22   12   13 ar
  23   13   17 ar
  24   13   18 1
  25   14   15 ar
  26   14   27 1
  27   15   16 ar
  28   15   37 1
  29   16   17 ar
  30   16   38 1
  31   17   39 1
  32   19   20 ar
  33   19   23 ar
  34   19   24 1
  35   20   21 ar
  36   20   40 1
  37   21   41 1
  38   22   23 ar
  39   22   42 1
  40   23   43 1
  41   24   25 2
  42   24   26 1
  43   26   44 1
  44   28   29 2
  45   28   30 am
  46   30   31 1
  47   30   32 1
  48   31   45 1
  49   31   46 1
  50   31   47 1
  51   32   48 1
  52   32   49 1
  53   32   50 1

#	End of record

