#	Name: ASD11030019
#	Creating user name:	WinNT
#	Creation time:	15. 06. 2019 21:29

#	Modifying user name:	WinNT
#	Modification time:	15. 06. 2019 21:29

#	Program:	/corina/corina34_cracker 3.40 0067  02.08.2006

@<TRIPOS>MOLECULE
ASD11030019
  37   40    0    0    0
SMALL
NO_CHARGES


@<TRIPOS>ATOM
   1 Cl1           -0.0716     0.0575     1.2777 Cl      
   2 C2            -0.0834     1.7836     1.0930 C.ar    
   3 C3             1.1008     2.4953     1.1866 C.ar    
   4 C4             1.0978     3.8669     1.0412 C.ar    
   5 C5            -0.1025     4.5376     0.7989 C.ar    
   6 C6            -1.2931     3.8144     0.7052 C.ar    
   7 C7            -1.2764     2.4426     0.8471 C.ar    
   8 C8            -0.1127     6.0068     0.6427 C.2     
   9 N9             0.9259     6.7922     0.7081 N.2     
  10 N10            0.7378     8.0292     0.5510 N.2     
  11 C11           -0.4904     8.4317     0.3334 C.2     
  12 S12           -1.5317     7.0070     0.3271 S.3     
  13 N13           -0.8894     9.7148     0.1418 N.2     
  14 C14           -0.0044    10.6902     0.1652 C.2     
  15 N15            1.3406    10.5657     0.3697 N.am    
  16 C16            2.0895    11.6558     0.3617 C.2     
  17 O17            3.2933    11.6208     0.5363 O.2     
  18 C18            1.3652    12.9109     0.1267 C.2     
  19 C19            1.8761    14.1661     0.0675 C.2     
  20 C20            0.9743    15.3230    -0.0273 C.ar    
  21 C21           -0.3557    15.2141     0.3937 C.ar    
  22 C22           -1.1963    16.3033     0.3019 C.ar    
  23 C23           -0.7288    17.5028    -0.2049 C.ar    
  24 C24            0.5876    17.6203    -0.6246 C.ar    
  25 C25            1.4430    16.5403    -0.5336 C.ar    
  26 F26            1.0354    18.7953    -1.1186 F       
  27 S27           -0.3273    12.4166    -0.0701 S.3     
  28 H28            2.0287     1.9753     1.3741 H       
  29 H29            2.0220     4.4209     1.1151 H       
  30 H30           -2.2247     4.3278     0.5182 H       
  31 H31           -2.1966     1.8821     0.7745 H       
  32 H32            1.7390     9.6939     0.5183 H       
  33 H33            2.9455    14.3154     0.0900 H       
  34 H34           -0.7232    14.2788     0.7893 H       
  35 H35           -2.2230    16.2197     0.6264 H       
  36 H36           -1.3926    18.3519    -0.2744 H       
  37 H37            2.4683    16.6323    -0.8603 H       
@<TRIPOS>BOND
   1    1    2 1
   2    2    3 ar
   3    2    7 ar
   4    3    4 ar
   5    3   28 1
   6    4    5 ar
   7    4   29 1
   8    5    6 ar
   9    5    8 1
  10    6    7 ar
  11    6   30 1
  12    7   31 1
  13    8    9 2
  14    8   12 1
  15    9   10 1
  16   10   11 2
  17   11   12 1
  18   11   13 1
  19   13   14 2
  20   14   15 1
  21   14   27 1
  22   15   16 am
  23   15   32 1
  24   16   17 2
  25   16   18 1
  26   18   19 2
  27   18   27 1
  28   19   20 1
  29   19   33 1
  30   20   21 ar
  31   20   25 ar
  32   21   22 ar
  33   21   34 1
  34   22   23 ar
  35   22   35 1
  36   23   24 ar
  37   23   36 1
  38   24   25 ar
  39   24   26 1
  40   25   37 1

#	End of record

