#	Name: ASD13580001
#	Creating user name:	WinNT
#	Creation time:	15. 06. 2019 21:30

#	Modifying user name:	WinNT
#	Modification time:	15. 06. 2019 21:30

#	Program:	/corina/corina34_cracker 3.40 0067  02.08.2006

@<TRIPOS>MOLECULE
ASD13580001
  27   29    0    0    0
SMALL
NO_CHARGES


@<TRIPOS>ATOM
   1 C1            -0.0170     1.4010     0.0097 C.ar    
   2 C2             0.0021    -0.0041     0.0020 C.ar    
   3 C3             1.1938    -0.6601    -0.0129 C.ar    
   4 C4             2.4062     0.0267    -0.0209 C.ar    
   5 C5             2.4566     1.3844    -0.0136 C.ar    
   6 C6             1.2557     2.1254     0.0015 C.ar    
   7 C7             1.2723     3.5209     0.0094 C.ar    
   8 C8             0.0718     4.2326     0.0252 C.ar    
   9 C9            -1.2088     3.5224     0.0335 C.ar    
  10 C10           -1.2349     2.1121     0.0310 C.ar    
  11 C11           -2.3988     4.2695     0.0499 C.ar    
  12 C12            0.0637     5.6437     0.0340 C.ar    
  13 C13           -1.1220     6.3069     0.0498 C.ar    
  14 C14           -2.3391     5.6286     0.0577 C.ar    
  15 C15           -2.5134     1.3937     0.0449 C.2     
  16 O16           -3.0286     1.0897     1.1038 O.2     
  17 O17           -3.1179     1.0700    -1.1167 O.3     
  18 H18           -0.9239    -0.5599     0.0083 H       
  19 H19            1.2003    -1.7400    -0.0184 H       
  20 H20            3.3290    -0.5343    -0.0328 H       
  21 H21            3.4093     1.8932    -0.0193 H       
  22 H22            2.2138     4.0499     0.0036 H       
  23 H23           -3.3552     3.7678     0.0559 H       
  24 H24            0.9937     6.1928     0.0285 H       
  25 H25           -1.1211     7.3869     0.0569 H       
  26 H26           -3.2580     6.1959     0.0699 H       
  27 H27           -3.9590     0.5966    -1.0570 H       
@<TRIPOS>BOND
   1    1    2 ar
   2    1    6 ar
   3    1   10 ar
   4    2    3 ar
   5    2   18 1
   6    3    4 ar
   7    3   19 1
   8    4    5 ar
   9    4   20 1
  10    5    6 ar
  11    5   21 1
  12    6    7 ar
  13    7    8 ar
  14    7   22 1
  15    8    9 ar
  16    8   12 ar
  17    9   10 ar
  18    9   11 ar
  19   10   15 1
  20   11   14 ar
  21   11   23 1
  22   12   13 ar
  23   12   24 1
  24   13   14 ar
  25   13   25 1
  26   14   26 1
  27   15   16 2
  28   15   17 1
  29   17   27 1

#	End of record

