#	Name: ASD10610109
#	Creating user name:	WinNT
#	Creation time:	15. 06. 2019 21:28

#	Modifying user name:	WinNT
#	Modification time:	15. 06. 2019 21:28

#	Program:	/corina/corina34_cracker 3.40 0067  02.08.2006

@<TRIPOS>MOLECULE
ASD10610109
  63   68    0    0    0
SMALL
NO_CHARGES


@<TRIPOS>ATOM
   1 C1             0.0695     1.2588    -0.1703 C.ar    
   2 C2             0.1405    -0.1331    -0.1735 C.ar    
   3 C3             1.3976    -0.7418    -0.1230 C.ar    
   4 C4             2.5209     0.0665    -0.0717 C.ar    
   5 C5             2.3706     1.4417    -0.0715 C.ar    
   6 N6             1.1649     1.9854    -0.1205 N.ar    
   7 C7             3.9890    -0.2918    -0.0118 C.3     
   8 C8             4.7352     0.9981    -0.4141 C.3     
   9 C9             3.7338     2.1004    -0.0097 C.3     
  10 C10           -1.0939    -0.9523    -0.2289 C.ar    
  11 C11           -1.2104    -1.9793    -1.1609 C.ar    
  12 C12           -2.3623    -2.7413    -1.2101 C.ar    
  13 C13           -3.4062    -2.4894    -0.3358 C.ar    
  14 C14           -3.3068    -1.4724     0.5960 C.ar    
  15 C15           -2.1486    -0.6998     0.6622 C.ar    
  16 F16           -4.3293    -1.2319     1.4456 F       
  17 Cl17          -2.5016    -4.0210    -2.3749 Cl      
  18 C18           -2.0367     0.3919     1.6594 C.2     
  19 N19           -2.9475     0.7466     2.5448 N.2     
  20 N20           -2.4730     1.7332     3.2247 N.pl3   
  21 N21           -1.2914     2.0151     2.7989 N.2     
  22 N22           -0.9874     1.2071     1.8405 N.2     
  23 C23           -3.1696     2.4257     4.3117 C.3     
  24 N24            3.8009     3.2189    -0.9535 N.am    
  25 C25            3.4292     4.4539    -0.5623 C.2     
  26 O26            2.9545     4.6234     0.5408 O.2     
  27 C27            3.6034     5.6243    -1.4955 C.3     
  28 N28            4.8018     5.5881    -2.3375 N.am    
  29 C29            2.3393     6.2463    -2.0922 C.3     
  30 C30            3.1225     6.9931    -1.0096 C.3     
  31 C31            6.0237     5.6656    -1.7742 C.2     
  32 C32            7.2263     5.7405    -2.6271 C.ar    
  33 O33            6.1356     5.6738    -0.5636 O.2     
  34 C34            8.5050     5.8216    -2.0614 C.ar    
  35 N35            9.5547     5.8870    -2.8594 N.ar    
  36 C36            9.4103     5.8766    -4.1762 C.ar    
  37 N37            8.2188     5.8015    -4.7503 N.ar    
  38 C38            7.1192     5.7266    -4.0235 C.ar    
  39 O39           10.5124     5.9453    -4.9579 O.3     
  40 C40           10.3067     5.9310    -6.3719 C.3     
  41 H41           -0.8937     1.7454    -0.2136 H       
  42 H42            1.4908    -1.8177    -0.1236 H       
  43 H43            4.2651    -0.5887     1.0000 H       
  44 H44            4.2120    -1.0932    -0.7162 H       
  45 H45            5.6664     1.0970     0.1438 H       
  46 H46            4.9216     1.0190    -1.4879 H       
  47 H47            3.9409     2.4463     1.0030 H       
  48 H48           -0.4003    -2.1807    -1.8462 H       
  49 H49           -4.3027    -3.0900    -0.3821 H       
  50 H50           -2.9410     1.9374     5.2590 H       
  51 H51           -2.8414     3.4645     4.3498 H       
  52 H52           -4.2445     2.3906     4.1349 H       
  53 H53            4.1128     3.0707    -1.8599 H       
  54 H54            4.7158     5.5084    -3.3004 H       
  55 H55            2.3994     6.6290    -3.1111 H       
  56 H56            1.3817     5.8091    -1.8097 H       
  57 H57            2.6798     7.0471    -0.0150 H       
  58 H58            3.6975     7.8667    -1.3165 H       
  59 H59            8.6303     5.8308    -0.9888 H       
  60 H60            6.1512     5.6656    -4.4985 H       
  61 H61            9.8029     5.0073    -6.6565 H       
  62 H62            9.6910     6.7837    -6.6581 H       
  63 H63           11.2693     5.9912    -6.8797 H       
@<TRIPOS>BOND
   1    1    2 ar
   2    1    6 ar
   3    1   41 1
   4    2    3 ar
   5    2   10 1
   6    3    4 ar
   7    3   42 1
   8    4    5 ar
   9    4    7 1
  10    5    6 ar
  11    5    9 1
  12    7    8 1
  13    7   43 1
  14    7   44 1
  15    8    9 1
  16    8   45 1
  17    8   46 1
  18    9   24 1
  19    9   47 1
  20   10   11 ar
  21   10   15 ar
  22   11   12 ar
  23   11   48 1
  24   12   13 ar
  25   12   17 1
  26   13   14 ar
  27   13   49 1
  28   14   15 ar
  29   14   16 1
  30   15   18 1
  31   18   19 2
  32   18   22 1
  33   19   20 1
  34   20   21 1
  35   20   23 1
  36   21   22 2
  37   23   50 1
  38   23   51 1
  39   23   52 1
  40   24   25 am
  41   24   53 1
  42   25   26 2
  43   25   27 1
  44   27   28 1
  45   27   29 1
  46   27   30 1
  47   28   31 am
  48   28   54 1
  49   29   30 1
  50   29   55 1
  51   29   56 1
  52   30   57 1
  53   30   58 1
  54   31   32 1
  55   31   33 2
  56   32   34 ar
  57   32   38 ar
  58   34   35 ar
  59   34   59 1
  60   35   36 ar
  61   36   37 ar
  62   36   39 1
  63   37   38 ar
  64   38   60 1
  65   39   40 1
  66   40   61 1
  67   40   62 1
  68   40   63 1

#	End of record

