#	Name: ASD13620005
#	Creating user name:	WinNT
#	Creation time:	15. 06. 2019 21:30

#	Modifying user name:	WinNT
#	Modification time:	15. 06. 2019 21:30

#	Program:	/corina/corina34_cracker 3.40 0067  02.08.2006

@<TRIPOS>MOLECULE
ASD13620005
  54   57    0    0    0
SMALL
NO_CHARGES


@<TRIPOS>ATOM
   1 N1            -0.1703     1.4872     0.0525 N.ar    
   2 C2            -0.3201     0.1949    -0.1681 C.ar    
   3 C3             0.7700    -0.6240    -0.3845 C.ar    
   4 C4             2.0457    -0.0749    -0.3592 C.ar    
   5 C5             2.1723     1.2833    -0.1167 C.ar    
   6 C6             1.0259     2.0571     0.0759 C.ar    
   7 N7             1.1319     3.4312     0.2646 N.3     
   8 N8             3.4366     1.8850    -0.0721 N.am    
   9 C9             3.5446     3.1349     0.4275 C.2     
  10 C10            2.3295     3.7969     1.0257 C.3     
  11 C11            2.5096     5.3158     0.9896 C.3     
  12 O12            4.6075     3.7183     0.3958 O.2     
  13 C13            1.4349     6.0000    -1.1640 C.ar    
  14 C14            2.5943     5.7777    -0.4424 C.ar    
  15 C15            4.6200     1.1711    -0.5581 C.3     
  16 C16            4.7371     1.3498    -2.0498 C.ar    
  17 C17            5.7244     0.6823    -2.7506 C.ar    
  18 C18            6.6834    -0.2241    -2.0228 C.3     
  19 F19            7.5374    -0.8371    -2.9459 F       
  20 C20            3.8540     2.1767    -2.7182 C.ar    
  21 C21            3.9614     2.3407    -4.0868 C.ar    
  22 C22            4.9522     1.6782    -4.7865 C.ar    
  23 C23            5.8315     0.8460    -4.1189 C.ar    
  24 C24            3.8310     5.9781    -1.0295 C.ar    
  25 C25            1.5054     6.4234    -2.4751 C.ar    
  26 C26            2.7498     6.6274    -3.0734 C.ar    
  27 C27            3.9155     6.4013    -2.3398 C.ar    
  28 C28            2.8328     7.0806    -4.4783 C.2     
  29 O29            1.8160     7.2764    -5.1148 O.2     
  30 N30            4.0360     7.2766    -5.0531 N.am    
  31 F31            7.4388     0.5276    -1.1164 F       
  32 F32            5.9643    -1.2042    -1.3304 F       
  33 C33           -0.0791     3.9707     0.8974 C.3     
  34 H34           -1.3130    -0.2297    -0.1794 H       
  35 H35            0.6327    -1.6789    -0.5708 H       
  36 H36            2.9170    -0.6914    -0.5241 H       
  37 H37            2.2144     3.4709     2.0594 H       
  38 H38            1.6596     5.7942     1.4760 H       
  39 H39            3.4268     5.5854     1.5131 H       
  40 H40            0.4727     5.8375    -0.7013 H       
  41 H41            5.5104     1.5713    -0.0731 H       
  42 H42            4.5254     0.1104    -0.3256 H       
  43 H43            3.0798     2.6944    -2.1714 H       
  44 H44            3.2709     2.9863    -4.6091 H       
  45 H45            5.0359     1.8060    -5.8556 H       
  46 H46            6.6057     0.3282    -4.6656 H       
  47 H47            4.7322     5.8031    -0.4606 H       
  48 H48            0.5997     6.5962    -3.0375 H       
  49 H49            4.8814     6.5577    -2.7968 H       
  50 H50            4.8474     7.1204    -4.5451 H       
  51 H51            4.0905     7.5740    -5.9748 H       
  52 H52           -0.2688     3.4399     1.8304 H       
  53 H53            0.0611     5.0315     1.1049 H       
  54 H54           -0.9283     3.8408     0.2265 H       
@<TRIPOS>BOND
   1    1    2 ar
   2    1    6 ar
   3    2    3 ar
   4    2   34 1
   5    3    4 ar
   6    3   35 1
   7    4    5 ar
   8    4   36 1
   9    5    6 ar
  10    5    8 1
  11    6    7 1
  12    7   10 1
  13    7   33 1
  14    8    9 am
  15    8   15 1
  16    9   12 2
  17    9   10 1
  18   10   11 1
  19   10   37 1
  20   11   14 1
  21   11   38 1
  22   11   39 1
  23   13   25 ar
  24   13   14 ar
  25   13   40 1
  26   14   24 ar
  27   15   16 1
  28   15   41 1
  29   15   42 1
  30   16   17 ar
  31   16   20 ar
  32   17   18 1
  33   17   23 ar
  34   18   19 1
  35   18   31 1
  36   18   32 1
  37   20   21 ar
  38   20   43 1
  39   21   22 ar
  40   21   44 1
  41   22   23 ar
  42   22   45 1
  43   23   46 1
  44   24   27 ar
  45   24   47 1
  46   25   26 ar
  47   25   48 1
  48   26   27 ar
  49   26   28 1
  50   27   49 1
  51   28   29 2
  52   28   30 am
  53   30   50 1
  54   30   51 1
  55   33   52 1
  56   33   53 1
  57   33   54 1

#	End of record

