#	Name: ASD10160049
#	Creating user name:	WinNT
#	Creation time:	15. 06. 2019 21:25

#	Modifying user name:	WinNT
#	Modification time:	15. 06. 2019 21:25

#	Program:	/corina/corina34_cracker 3.40 0067  02.08.2006

@<TRIPOS>MOLECULE
ASD10160049
  42   43    0    0    0
SMALL
NO_CHARGES


@<TRIPOS>ATOM
   1 C1            -0.0179     1.4718     0.0101 C.2     
   2 C2             0.0021    -0.0041     0.0020 C.ar    
   3 C3             1.2206    -0.6877    -0.0133 C.ar    
   4 C4             1.2359    -2.0668    -0.0209 C.ar    
   5 C5             0.0397    -2.7773    -0.0133 C.ar    
   6 C6            -1.1753    -2.0996     0.0015 C.ar    
   7 C7            -1.1974    -0.7207     0.0154 C.ar    
   8 O8             1.0266     2.0940     0.0035 O.2     
   9 N9            -1.1942     2.1297     0.0193 N.am    
  10 S10           -1.2166     3.7855     0.0284 S.o2    
  11 O11           -2.5980     4.1171     0.0625 O.2     
  12 O12           -0.3511     4.1419     1.0976 O.2     
  13 C13           -0.4880     4.2569    -1.5646 C.3     
  14 F14           -2.3347    -2.7932     0.0083 F       
  15 F15            2.4136    -2.7286    -0.0361 F       
  16 O16            0.0581    -4.1350    -0.0208 O.3     
  17 C17            0.0796    -4.0602     2.3604 C.ar    
  18 C18            0.0782    -4.7797     1.1760 C.ar    
  19 C19            0.0972    -6.1709     1.2268 C.ar    
  20 C20            0.1168    -6.7849     2.4678 C.ar    
  21 C21            0.1169    -5.9975     3.6128 C.ar    
  22 N22            0.0990    -4.6785     3.5259 N.ar    
  23 O23            0.1361    -6.5895     4.8346 O.3     
  24 C24            0.1352    -5.7267     5.9737 C.3     
  25 C25           -0.5661    -6.4239     7.1411 C.3     
  26 C26            1.5772    -5.3995     6.3669 C.3     
  27 Cl27           0.1404    -8.5164     2.5916 Cl      
  28 H28            2.1495    -0.1368    -0.0195 H       
  29 H29           -2.1409    -0.1953     0.0318 H       
  30 H30           -2.0275     1.6333     0.0205 H       
  31 H31           -1.0900     3.8462    -2.3752 H       
  32 H32           -0.4628     5.3436    -1.6453 H       
  33 H33            0.5266     3.8640    -1.6305 H       
  34 H34            0.0695    -2.9807     2.3290 H       
  35 H35            0.0962    -6.7572     0.3199 H       
  36 H36           -0.3932    -4.8048     5.7307 H       
  37 H37           -0.0377    -7.3458     7.3841 H       
  38 H38           -0.5668    -5.7658     8.0100 H       
  39 H39           -1.5934    -6.6570     6.8610 H       
  40 H40            2.1056    -6.3214     6.6098 H       
  41 H41            2.0768    -4.9028     5.5352 H       
  42 H42            1.5765    -4.7414     7.2357 H       
@<TRIPOS>BOND
   1    1    2 1
   2    1    8 2
   3    1    9 am
   4    2    3 ar
   5    2    7 ar
   6    3    4 ar
   7    3   28 1
   8    4    5 ar
   9    4   15 1
  10    5    6 ar
  11    5   16 1
  12    6    7 ar
  13    6   14 1
  14    7   29 1
  15    9   10 am
  16    9   30 1
  17   10   11 2
  18   10   12 2
  19   10   13 1
  20   13   31 1
  21   13   32 1
  22   13   33 1
  23   16   18 1
  24   17   18 ar
  25   17   22 ar
  26   17   34 1
  27   18   19 ar
  28   19   20 ar
  29   19   35 1
  30   20   21 ar
  31   20   27 1
  32   21   22 ar
  33   21   23 1
  34   23   24 1
  35   24   25 1
  36   24   26 1
  37   24   36 1
  38   25   37 1
  39   25   38 1
  40   25   39 1
  41   26   40 1
  42   26   41 1
  43   26   42 1

#	End of record

