#	Name: ASD10610034
#	Creating user name:	WinNT
#	Creation time:	15. 06. 2019 21:27

#	Modifying user name:	WinNT
#	Modification time:	15. 06. 2019 21:27

#	Program:	/corina/corina34_cracker 3.40 0067  02.08.2006

@<TRIPOS>MOLECULE
ASD10610034
  50   54    0    0    0
SMALL
NO_CHARGES


@<TRIPOS>ATOM
   1 C1            -0.0187     1.5258     0.0104 C.3     
   2 C2             0.0021    -0.0041     0.0020 C.3     
   3 C3             1.3165     0.7789    -0.0063 C.3     
   4 C4            -0.4420     2.2229    -1.2568 C.2     
   5 O5            -0.3149     1.6661    -2.3267 O.2     
   6 N6            -0.9617     3.4652    -1.2012 N.am    
   7 C7            -1.3732     4.1429    -2.4331 C.3     
   8 C8            -2.4561     5.1991    -2.1271 C.3     
   9 C9            -1.6201     6.4787    -1.9133 C.3     
  10 C10           -0.3555     6.2649    -2.7177 C.ar    
  11 C11            0.5925     7.1734    -3.1513 C.ar    
  12 C12            1.6911     6.7387    -3.8885 C.ar    
  13 C13            1.8294     5.3839    -4.1871 C.ar    
  14 C14            0.8789     4.4857    -3.7510 C.ar    
  15 C15           -0.2133     4.9216    -3.0168 C.ar    
  16 C16            2.7082     7.7117    -4.3539 C.ar    
  17 C17            4.0723     7.4711    -4.1235 C.ar    
  18 C18            5.0193     8.3938    -4.5660 C.ar    
  19 C19            4.6121     9.5379    -5.2275 C.ar    
  20 C20            3.2664     9.7735    -5.4538 C.ar    
  21 C21            2.3162     8.8652    -5.0261 C.ar    
  22 O22            4.3875     4.4338    -2.4213 O.3     
  23 N23            3.7234     5.3012    -2.9483 N.2     
  24 C24            4.5029     6.2436    -3.4136 C.2     
  25 N25            5.7756     5.8869    -3.1255 N.2     
  26 C26            5.6862     4.7407    -2.4983 C.2     
  27 C27            6.8325     3.9218    -1.9631 C.3     
  28 F28            6.3339     8.1705    -4.3482 F       
  29 Cl29           2.7703    11.2145    -6.2851 Cl      
  30 N30           -0.4076     2.1920     1.2606 N.3     
  31 H31           -0.2728    -0.5162     0.9241 H       
  32 H32           -0.2904    -0.5063    -0.9201 H       
  33 H33            1.8888     0.7918    -0.9339 H       
  34 H34            1.9064     0.7818     0.9103 H       
  35 H35           -1.0634     3.9105    -0.3455 H       
  36 H36           -1.7454     3.4187    -3.1578 H       
  37 H37           -3.1335     5.3158    -2.9730 H       
  38 H38           -3.0056     4.9397    -1.2222 H       
  39 H39           -2.1607     7.3499    -2.2830 H       
  40 H40           -1.3802     6.6016    -0.8571 H       
  41 H41            0.4809     8.2219    -2.9175 H       
  42 H42            2.6784     5.0391    -4.7587 H       
  43 H43            0.9858     3.4363    -3.9826 H       
  44 H44            5.3473    10.2515    -5.5691 H       
  45 H45            1.2687     9.0531    -5.2100 H       
  46 H46            6.4449     3.0187    -1.4917 H       
  47 H47            7.4967     3.6474    -2.7827 H       
  48 H48            7.3851     4.5069    -1.2280 H       
  49 H49           -0.3879     3.1954     1.1569 H       
  50 H50           -1.3151     1.8782     1.5704 H       
@<TRIPOS>BOND
   1    1    2 1
   2    1    3 1
   3    1    4 1
   4    1   30 1
   5    2    3 1
   6    2   31 1
   7    2   32 1
   8    3   33 1
   9    3   34 1
  10    4    5 2
  11    4    6 am
  12    6    7 1
  13    6   35 1
  14    7    8 1
  15    7   15 1
  16    7   36 1
  17    8    9 1
  18    8   37 1
  19    8   38 1
  20    9   10 1
  21    9   39 1
  22    9   40 1
  23   10   11 ar
  24   10   15 ar
  25   11   12 ar
  26   11   41 1
  27   12   13 ar
  28   12   16 1
  29   13   14 ar
  30   13   42 1
  31   14   15 ar
  32   14   43 1
  33   16   17 ar
  34   16   21 ar
  35   17   18 ar
  36   17   24 1
  37   18   19 ar
  38   18   28 1
  39   19   20 ar
  40   19   44 1
  41   20   21 ar
  42   20   29 1
  43   21   45 1
  44   22   23 1
  45   22   26 1
  46   23   24 2
  47   24   25 1
  48   25   26 2
  49   26   27 1
  50   27   46 1
  51   27   47 1
  52   27   48 1
  53   30   49 1
  54   30   50 1

#	End of record

