#	Name: ASD10610095
#	Creating user name:	WinNT
#	Creation time:	15. 06. 2019 21:28

#	Modifying user name:	WinNT
#	Modification time:	15. 06. 2019 21:28

#	Program:	/corina/corina34_cracker 3.40 0067  02.08.2006

@<TRIPOS>MOLECULE
ASD10610095
  54   57    0    0    0
SMALL
NO_CHARGES


@<TRIPOS>ATOM
   1 O1             0.0621     1.5152     0.0888 O.3     
   2 C2            -0.0039     0.0857     0.0048 C.3     
   3 C3             1.3548     0.0230     0.7135 C.3     
   4 C4             1.4915     1.4082     0.0696 C.3     
   5 C5             1.2777     0.0364     2.2184 C.2     
   6 O6             0.3261     0.5450     2.7724 O.2     
   7 N7             2.2662    -0.5166     2.9488 N.am    
   8 C8             2.2481    -0.4051     4.4094 C.3     
   9 C9             2.8817     0.9233     4.8274 C.3     
  10 C10            3.0293    -1.5453     5.0100 C.ar    
  11 C11            2.5058    -2.2365     6.0908 C.ar    
  12 C12            3.2287    -3.2846     6.6387 C.ar    
  13 C13            4.4666    -3.6028     6.0725 C.ar    
  14 C14            4.9227    -2.8584     4.9860 C.ar    
  15 N15            4.1984    -1.8735     4.4955 N.ar    
  16 F16            1.3047    -1.8925     6.6049 F       
  17 C17            5.2815    -4.7140     6.6193 C.ar    
  18 C18            5.8003    -5.6971     5.7614 C.ar    
  19 C19            6.5652    -6.7373     6.2877 C.ar    
  20 C20            6.8086    -6.7956     7.6478 C.ar    
  21 C21            6.2958    -5.8254     8.4923 C.ar    
  22 C22            5.5409    -4.7847     7.9845 C.ar    
  23 O23            4.8123    -4.9459     2.4931 O.3     
  24 N24            4.8382    -4.7136     3.6832 N.2     
  25 C25            5.5358    -5.6298     4.3048 C.2     
  26 N26            5.9709    -6.5035     3.3682 N.2     
  27 C27            5.5055    -6.0578     2.2281 C.2     
  28 C28            5.7125    -6.6813     0.8719 C.3     
  29 F29            7.0679    -7.6877     5.4696 F       
  30 Cl30           6.6094    -5.9122    10.1975 Cl      
  31 N31            2.2723    -0.9885     0.1830 N.am    
  32 C32            1.9648    -2.2967     0.2845 C.2     
  33 O33            0.8903    -2.6339     0.7348 O.2     
  34 C34            2.9560    -3.3406    -0.1615 C.3     
  35 F35            2.4143    -4.6145     0.0405 F       
  36 F36            3.2392    -3.1644    -1.5202 F       
  37 F37            4.1346    -3.2119     0.5810 F       
  38 H38           -0.8170    -0.3451     0.5891 H       
  39 H39            0.0239    -0.2895    -1.0182 H       
  40 H40            1.9097     1.3784    -0.9365 H       
  41 H41            1.9886     2.1362     0.7107 H       
  42 H42            2.9896    -0.9885     2.5074 H       
  43 H43            1.2181    -0.4439     4.7640 H       
  44 H44            3.9117     0.9620     4.4728 H       
  45 H45            2.3166     1.7480     4.3930 H       
  46 H46            2.8682     1.0063     5.9142 H       
  47 H47            2.8456    -3.8408     7.4814 H       
  48 H48            5.8774    -3.0940     4.5394 H       
  49 H49            7.4014    -7.6022     8.0534 H       
  50 H50            5.1485    -4.0286     8.6483 H       
  51 H51            5.2046    -6.0829     0.1155 H       
  52 H52            6.7787    -6.7203     0.6488 H       
  53 H53            5.3038    -7.6918     0.8704 H       
  54 H54            3.1011    -0.7166    -0.2413 H       
@<TRIPOS>BOND
   1    1    2 1
   2    1    4 1
   3    2    3 1
   4    2   38 1
   5    2   39 1
   6    3    4 1
   7    3    5 1
   8    3   31 1
   9    4   40 1
  10    4   41 1
  11    5    6 2
  12    5    7 am
  13    7    8 1
  14    7   42 1
  15    8    9 1
  16    8   10 1
  17    8   43 1
  18    9   44 1
  19    9   45 1
  20    9   46 1
  21   10   11 ar
  22   10   15 ar
  23   11   12 ar
  24   11   16 1
  25   12   13 ar
  26   12   47 1
  27   13   14 ar
  28   13   17 1
  29   14   15 ar
  30   14   48 1
  31   17   18 ar
  32   17   22 ar
  33   18   19 ar
  34   18   25 1
  35   19   20 ar
  36   19   29 1
  37   20   21 ar
  38   20   49 1
  39   21   22 ar
  40   21   30 1
  41   22   50 1
  42   23   24 1
  43   23   27 1
  44   24   25 2
  45   25   26 1
  46   26   27 2
  47   27   28 1
  48   28   51 1
  49   28   52 1
  50   28   53 1
  51   31   32 am
  52   31   54 1
  53   32   33 2
  54   32   34 1
  55   34   35 1
  56   34   36 1
  57   34   37 1

#	End of record

