#	Name: ASD13490065
#	Creating user name:	WinNT
#	Creation time:	15. 06. 2019 21:30

#	Modifying user name:	WinNT
#	Modification time:	15. 06. 2019 21:30

#	Program:	/corina/corina34_cracker 3.40 0067  02.08.2006

@<TRIPOS>MOLECULE
ASD13490065
  63   67    0    0    0
SMALL
NO_CHARGES


@<TRIPOS>ATOM
   1 C1            -0.0382     1.3763    -0.0135 C.ar    
   2 C2             0.8760     1.5510     1.0176 C.ar    
   3 C3             2.0764     0.8632     1.0021 C.ar    
   4 C4             2.3660    -0.0089    -0.0551 C.ar    
   5 C5             1.4418    -0.1790    -1.0870 C.ar    
   6 C6             0.2487     0.5105    -1.0637 C.ar    
   7 C7             3.6463    -0.7461    -0.0780 C.2     
   8 O8             4.8801    -0.2227     0.0929 O.3     
   9 C9             5.7651    -1.2258     0.0007 C.2     
  10 N10            5.1245    -2.3391    -0.2192 N.2     
  11 C11            3.8085    -2.0809    -0.2691 C.2     
  12 C12            7.2602    -1.0878     0.1300 C.3     
  13 O13            2.9720     1.0336     2.0093 O.3     
  14 C14            2.6093     1.9389     3.0537 C.3     
  15 N15           -1.2509     2.0674     0.0072 N.3     
  16 C16           -1.0306     3.5132     0.1455 C.3     
  17 C17           -2.3655     4.2478    -0.0175 C.3     
  18 N18           -3.3337     3.6729     0.9287 N.am    
  19 C19           -3.5089     2.2127     0.9440 C.3     
  20 C20           -2.1289     1.5582     1.0691 C.3     
  21 C21           -4.0414     4.4632     1.7601 C.2     
  22 O22           -3.8839     5.6655     1.7343 O.2     
  23 C23           -0.0527     3.9860    -0.9320 C.3     
  24 C24           -5.0282     3.8530     2.7217 C.3     
  25 N25           -5.6632     4.9134     3.5082 N.pl3   
  26 N26           -6.0611     6.3021     5.1432 N.2     
  27 C27           -5.2744     5.3487     4.7370 C.2     
  28 C28           -7.0073     6.5460     4.2003 C.ar    
  29 C29           -8.0742     7.4444     4.1155 C.ar    
  30 C30           -6.7635     5.6602     3.1373 C.ar    
  31 C31           -7.5819     5.6847     2.0161 C.ar    
  32 C32           -8.6290     6.5793     1.9545 C.ar    
  33 C33           -8.8691     7.4544     3.0046 C.ar    
  34 C34          -10.0186     8.4250     2.9186 C.3     
  35 F35           -9.5799     9.6166     2.3315 F       
  36 F36          -11.0402     7.8702     2.1403 F       
  37 F37          -10.5030     8.6892     4.2042 F       
  38 H38            0.6499     2.2241     1.8314 H       
  39 H39            1.6617    -0.8506    -1.9037 H       
  40 H40           -0.4656     0.3779    -1.8628 H       
  41 H41            3.0220    -2.8026    -0.4336 H       
  42 H42            7.5476    -1.2121     1.1740 H       
  43 H43            7.7492    -1.8514    -0.4749 H       
  44 H44            7.5652    -0.1001    -0.2157 H       
  45 H45            3.4104     1.9820     3.7917 H       
  46 H46            2.4481     2.9319     2.6341 H       
  47 H47            1.6928     1.5935     3.5321 H       
  48 H48           -0.6166     3.7254     1.1313 H       
  49 H49           -2.2288     5.3077     0.1972 H       
  50 H50           -2.7306     4.1219    -1.0367 H       
  51 H51           -4.1281     1.9270     1.7943 H       
  52 H52           -3.9839     1.8912     0.0171 H       
  53 H53           -2.2288     0.4772     0.9713 H       
  54 H54           -1.6997     1.7976     2.0420 H       
  55 H55           -0.4188     3.6832    -1.9130 H       
  56 H56            0.0314     5.0722    -0.8950 H       
  57 H57            0.9259     3.5396    -0.7557 H       
  58 H58           -5.7901     3.3086     2.1638 H       
  59 H59           -4.5077     3.1670     3.3900 H       
  60 H60           -4.4350     4.9596     5.2942 H       
  61 H61           -8.2677     8.1325     4.9252 H       
  62 H62           -7.3990     5.0064     1.1959 H       
  63 H63           -9.2665     6.5996     1.0831 H       
@<TRIPOS>BOND
   1    1    2 ar
   2    1    6 ar
   3    1   15 1
   4    2    3 ar
   5    2   38 1
   6    3    4 ar
   7    3   13 1
   8    4    5 ar
   9    4    7 1
  10    5    6 ar
  11    5   39 1
  12    6   40 1
  13    7    8 1
  14    7   11 2
  15    8    9 1
  16    9   10 2
  17    9   12 1
  18   10   11 1
  19   11   41 1
  20   12   42 1
  21   12   43 1
  22   12   44 1
  23   13   14 1
  24   14   45 1
  25   14   46 1
  26   14   47 1
  27   15   16 1
  28   15   20 1
  29   16   17 1
  30   16   23 1
  31   16   48 1
  32   17   18 1
  33   17   49 1
  34   17   50 1
  35   18   19 1
  36   18   21 am
  37   19   20 1
  38   19   51 1
  39   19   52 1
  40   20   53 1
  41   20   54 1
  42   21   22 2
  43   21   24 1
  44   23   55 1
  45   23   56 1
  46   23   57 1
  47   24   25 1
  48   24   58 1
  49   24   59 1
  50   25   30 1
  51   25   27 1
  52   26   27 2
  53   26   28 1
  54   27   60 1
  55   28   30 ar
  56   28   29 ar
  57   29   33 ar
  58   29   61 1
  59   30   31 ar
  60   31   32 ar
  61   31   62 1
  62   32   33 ar
  63   32   63 1
  64   33   34 1
  65   34   35 1
  66   34   36 1
  67   34   37 1

#	End of record

