#	Name: ASD11710025
#	Creating user name:	WinNT
#	Creation time:	15. 06. 2019 21:29

#	Modifying user name:	WinNT
#	Modification time:	15. 06. 2019 21:29

#	Program:	/corina/corina34_cracker 3.40 0067  02.08.2006

@<TRIPOS>MOLECULE
ASD11710025
  50   52    0    0    0
SMALL
NO_CHARGES


@<TRIPOS>ATOM
   1 C1            -1.3029     1.2732     0.1947 C.3     
   2 N2            -1.0541    -0.1621     0.3507 N.am    
   3 C3            -0.2431    -0.6026     1.3329 C.2     
   4 C4            -0.1000    -2.0535     1.5784 C.ar    
   5 O5             0.3707     0.1930     2.0168 O.2     
   6 C6             0.0778    -2.5302     2.8781 C.ar    
   7 C7            -0.1480    -2.9529     0.5121 C.ar    
   8 C8            -0.0143    -4.3055     0.7482 C.ar    
   9 C9             0.1666    -4.7712     2.0385 C.ar    
  10 C10            0.2102    -3.8853     3.1004 C.ar    
  11 S11            0.3353    -6.5005     2.3313 S.o2    
  12 N12            1.9568    -6.8326     2.3850 N.am    
  13 C13            2.7514    -6.6180     1.2565 C.ar    
  14 C14            3.9706    -5.9635     1.3779 C.ar    
  15 C15            2.3268    -7.0636     0.0112 C.ar    
  16 C16            3.1149    -6.8498    -1.1025 C.ar    
  17 C17            4.3257    -6.1932    -0.9790 C.ar    
  18 C18            4.7538    -5.7529     0.2600 C.ar    
  19 O19           -0.1662    -6.7367     3.6396 O.2     
  20 O20           -0.1701    -7.1544     1.1753 O.2     
  21 C21           -0.2740     1.8632    -0.7350 C.ar    
  22 C22           -0.5166     1.9084    -2.0951 C.ar    
  23 C23            0.4272     2.4496    -2.9479 C.ar    
  24 C24            1.6134     2.9459    -2.4405 C.ar    
  25 C25            1.8556     2.9015    -1.0802 C.ar    
  26 C26            0.9100     2.3643    -0.2270 C.ar    
  27 C27           -0.8667    -1.2149    -1.8488 C.3     
  28 C28           -1.6869    -1.1186    -0.5609 C.3     
  29 H29           -2.2987     1.4262    -0.2213 H       
  30 H30           -1.2364     1.7613     1.1670 H       
  31 H31            0.1121    -1.8398     3.7079 H       
  32 H32           -0.2898    -2.5907    -0.4954 H       
  33 H33           -0.0512    -5.0025    -0.0760 H       
  34 H34            0.3517    -4.2552     4.1052 H       
  35 H35            2.3547    -7.1762     3.2002 H       
  36 H36            4.3056    -5.6194     2.3453 H       
  37 H37            1.3816    -7.5771    -0.0858 H       
  38 H38            2.7854    -7.1960    -2.0710 H       
  39 H39            4.9404    -6.0279    -1.8515 H       
  40 H40            5.6999    -5.2405     0.3531 H       
  41 H41           -1.4433     1.5207    -2.4916 H       
  42 H42            0.2380     2.4843    -4.0106 H       
  43 H43            2.3511     3.3681    -3.1068 H       
  44 H44            2.7825     3.2890    -0.6838 H       
  45 H45            1.0992     2.3296     0.8357 H       
  46 H46           -0.9723    -0.2906    -2.4168 H       
  47 H47            0.1831    -1.3707    -1.6002 H       
  48 H48           -1.2266    -2.0520    -2.4470 H       
  49 H49           -1.7327    -2.0982    -0.0851 H       
  50 H50           -2.6963    -0.7819    -0.7973 H       
@<TRIPOS>BOND
   1    1    2 1
   2    1   21 1
   3    1   29 1
   4    1   30 1
   5    2    3 am
   6    2   28 1
   7    3    4 1
   8    3    5 2
   9    4    6 ar
  10    4    7 ar
  11    6   10 ar
  12    6   31 1
  13    7    8 ar
  14    7   32 1
  15    8    9 ar
  16    8   33 1
  17    9   10 ar
  18    9   11 1
  19   10   34 1
  20   11   12 am
  21   11   19 2
  22   11   20 2
  23   12   13 1
  24   12   35 1
  25   13   14 ar
  26   13   15 ar
  27   14   18 ar
  28   14   36 1
  29   15   16 ar
  30   15   37 1
  31   16   17 ar
  32   16   38 1
  33   17   18 ar
  34   17   39 1
  35   18   40 1
  36   21   22 ar
  37   21   26 ar
  38   22   23 ar
  39   22   41 1
  40   23   24 ar
  41   23   42 1
  42   24   25 ar
  43   24   43 1
  44   25   26 ar
  45   25   44 1
  46   26   45 1
  47   27   28 1
  48   27   46 1
  49   27   47 1
  50   27   48 1
  51   28   49 1
  52   28   50 1

#	End of record

