#	Name: ASD11010001
#	Creating user name:	WinNT
#	Creation time:	15. 06. 2019 21:29

#	Modifying user name:	WinNT
#	Modification time:	15. 06. 2019 21:29

#	Program:	/corina/corina34_cracker 3.40 0067  02.08.2006

@<TRIPOS>MOLECULE
ASD11010001
  51   54    0    0    0
SMALL
NO_CHARGES


@<TRIPOS>ATOM
   1 C1            -2.1891     1.1314     0.1395 C.3     
   2 S2            -1.6585    -0.6032     0.1181 S.3     
   3 C3            -0.6726    -0.7340     1.5726 C.ar    
   4 C4            -0.4898     0.3735     2.3892 C.ar    
   5 C5             0.2862     0.2688     3.5283 C.ar    
   6 C6             0.8842    -0.9391     3.8603 C.ar    
   7 C7             0.7003    -2.0547     3.0484 C.ar    
   8 C8            -0.0832    -1.9463     1.9051 C.ar    
   9 N9             1.2707    -3.2882     3.3538 N.pl3   
  10 C10            0.6222    -4.4904     2.8240 C.3     
  11 C11            1.2120    -4.8256     1.4526 C.3     
  12 C12            0.4445    -5.9991     0.8404 C.3     
  13 C13            0.6280    -7.2407     1.7161 C.3     
  14 C14           -0.1251    -8.4173     1.0891 C.3     
  15 C15            0.3955    -8.6470    -0.3325 C.3     
  16 C16            0.2187    -7.3646    -1.1487 C.3     
  17 N17            0.9583    -6.2695    -0.5084 N.3     
  18 C18            0.9255    -5.0570    -1.3370 C.3     
  19 C19            2.4162    -3.4561     4.1285 C.ar    
  20 C20            2.8134    -2.5083     5.0665 C.ar    
  21 S21            1.8757    -1.0382     5.3117 S.3     
  22 C22            3.9615    -2.7171     5.8200 C.ar    
  23 C23            4.7124    -3.8640     5.6401 C.ar    
  24 C24            4.3204    -4.8067     4.7084 C.ar    
  25 C25            3.1788    -4.6068     3.9556 C.ar    
  26 H26           -1.3133     1.7796     0.1117 H       
  27 H27           -2.8161     1.3302    -0.7296 H       
  28 H28           -2.7568     1.3265     1.0494 H       
  29 H29           -0.9528     1.3155     2.1348 H       
  30 H30            0.4282     1.1311     4.1629 H       
  31 H31           -0.2270    -2.8066     1.2682 H       
  32 H32            0.7904    -5.3242     3.5055 H       
  33 H33           -0.4485    -4.3121     2.7253 H       
  34 H34            1.1293    -3.9570     0.7993 H       
  35 H35            2.2616    -5.0971     1.5650 H       
  36 H36           -0.6149    -5.7493     0.7820 H       
  37 H37            1.6884    -7.4832     1.7860 H       
  38 H38            0.2323    -7.0450     2.7127 H       
  39 H39            0.0385    -9.3143     1.6863 H       
  40 H40           -1.1907    -8.1909     1.0546 H       
  41 H41            1.4522    -8.9116    -0.2947 H       
  42 H42           -0.1663    -9.4560    -0.7994 H       
  43 H43            0.6015    -7.5204    -2.1573 H       
  44 H44           -0.8396    -7.1083    -1.1976 H       
  45 H45           -0.0938    -4.6733    -1.3795 H       
  46 H46            1.5801    -4.3018    -0.9020 H       
  47 H47            1.2660    -5.2961    -2.3445 H       
  48 H48            4.2687    -1.9812     6.5483 H       
  49 H49            5.6049    -4.0231     6.2271 H       
  50 H50            4.9082    -5.7018     4.5679 H       
  51 H51            2.8772    -5.3474     3.2297 H       
@<TRIPOS>BOND
   1    1    2 1
   2    1   26 1
   3    1   27 1
   4    1   28 1
   5    2    3 1
   6    3    4 ar
   7    3    8 ar
   8    4    5 ar
   9    4   29 1
  10    5    6 ar
  11    5   30 1
  12    6    7 ar
  13    6   21 1
  14    7    8 ar
  15    7    9 1
  16    8   31 1
  17    9   10 1
  18    9   19 1
  19   10   11 1
  20   10   32 1
  21   10   33 1
  22   11   12 1
  23   11   34 1
  24   11   35 1
  25   12   13 1
  26   12   17 1
  27   12   36 1
  28   13   14 1
  29   13   37 1
  30   13   38 1
  31   14   15 1
  32   14   39 1
  33   14   40 1
  34   15   16 1
  35   15   41 1
  36   15   42 1
  37   16   17 1
  38   16   43 1
  39   16   44 1
  40   17   18 1
  41   18   45 1
  42   18   46 1
  43   18   47 1
  44   19   20 ar
  45   19   25 ar
  46   20   21 1
  47   20   22 ar
  48   22   23 ar
  49   22   48 1
  50   23   24 ar
  51   23   49 1
  52   24   25 ar
  53   24   50 1
  54   25   51 1

#	End of record

