#	Name: ASD11000273
#	Creating user name:	WinNT
#	Creation time:	15. 06. 2019 21:29

#	Modifying user name:	WinNT
#	Modification time:	15. 06. 2019 21:29

#	Program:	/corina/corina34_cracker 3.40 0067  02.08.2006

@<TRIPOS>MOLECULE
ASD11000273
  57   58    0    0    0
SMALL
NO_CHARGES


@<TRIPOS>ATOM
   1 C1             0.2175     1.6544    -1.0136 C.2     
   2 N2             0.1750     0.2913    -0.7388 N.pl3   
   3 C3             1.4215    -0.3763    -0.3334 C.3     
   4 C4             2.5425     0.1733    -1.1862 C.2     
   5 C5             2.4265     1.4425    -1.7091 C.2     
   6 N6             1.3076     2.1858    -1.4969 N.2     
   7 O7             3.6382    -0.5667    -1.4306 O.3     
   8 C8             3.4731    -1.7251    -2.2904 C.3     
   9 C9             4.7753    -2.4790    -2.3730 C.ar    
  10 C10            5.0520    -3.4825    -1.4634 C.ar    
  11 C11            6.2465    -4.1740    -1.5392 C.ar    
  12 C12            7.1641    -3.8625    -2.5250 C.ar    
  13 C13            6.8871    -2.8596    -3.4352 C.ar    
  14 C14            5.6907    -2.1710    -3.3620 C.ar    
  15 C15           -0.9690     2.4968    -0.7648 C.2     
  16 O16           -1.9296     2.0360    -0.1810 O.2     
  17 O17           -0.9867     3.7773    -1.1854 O.3     
  18 C18            1.7015    -0.0940     1.1202 C.2     
  19 O19            1.8682    -1.0081     1.8915 O.2     
  20 C20            3.5214     1.9981    -2.5031 C.2     
  21 O21            3.4690     3.1481    -2.8885 O.2     
  22 C22           -1.0782    -0.4593    -0.8499 C.3     
  23 C23           -1.9781     0.2025    -1.8954 C.3     
  24 C24           -0.7753    -1.8976    -1.2747 C.3     
  25 C25           -1.7900    -0.4667     0.5045 C.3     
  26 C26           -2.1862     4.5464    -0.9063 C.3     
  27 C27           -2.4128     4.6072     0.6056 C.3     
  28 C28           -2.0215     5.9652    -1.4548 C.3     
  29 C29           -3.3883     3.8772    -1.5757 C.3     
  30 H30            1.3319    -1.4512    -0.4904 H       
  31 H31            2.7018    -2.3761    -1.8787 H       
  32 H32            3.1785    -1.3983    -3.2876 H       
  33 H33            4.3350    -3.7259    -0.6932 H       
  34 H34            6.4630    -4.9575    -0.8281 H       
  35 H35            8.0977    -4.4023    -2.5838 H       
  36 H36            7.6042    -2.6160    -4.2052 H       
  37 H37            5.4726    -1.3901    -4.0754 H       
  38 H38            1.7530     0.9257     1.4721 H       
  39 H39            4.3768     1.3854    -2.7468 H       
  40 H40           -1.3608     0.6751    -2.6594 H       
  41 H41           -2.6139    -0.5526    -2.3578 H       
  42 H42           -2.6009     0.9564    -1.4139 H       
  43 H43           -0.1342    -2.3690    -0.5298 H       
  44 H44           -1.7077    -2.4560    -1.3573 H       
  45 H45           -0.2682    -1.8923    -2.2395 H       
  46 H46           -1.8208     0.5469     0.9042 H       
  47 H47           -2.8068    -0.8386     0.3785 H       
  48 H48           -1.2495    -1.1135     1.1955 H       
  49 H49           -1.5564     5.0839     1.0824 H       
  50 H50           -3.3133     5.1845     0.8151 H       
  51 H51           -2.5302     3.5964     0.9963 H       
  52 H52           -1.8601     5.9219    -2.5319 H       
  53 H53           -2.9220     6.5425    -1.2453 H       
  54 H54           -1.1651     6.4419    -0.9779 H       
  55 H55           -3.5057     2.8664    -1.1850 H       
  56 H56           -4.2888     4.4545    -1.3662 H       
  57 H57           -3.2269     3.8339    -2.6528 H       
@<TRIPOS>BOND
   1    1    2 1
   2    1    6 2
   3    1   15 1
   4    2    3 1
   5    2   22 1
   6    3    4 1
   7    3   18 1
   8    3   30 1
   9    4    5 2
  10    4    7 1
  11    5    6 1
  12    5   20 1
  13    7    8 1
  14    8    9 1
  15    8   31 1
  16    8   32 1
  17    9   10 ar
  18    9   14 ar
  19   10   11 ar
  20   10   33 1
  21   11   12 ar
  22   11   34 1
  23   12   13 ar
  24   12   35 1
  25   13   14 ar
  26   13   36 1
  27   14   37 1
  28   15   16 2
  29   15   17 1
  30   17   26 1
  31   18   19 2
  32   18   38 1
  33   20   21 2
  34   20   39 1
  35   22   23 1
  36   22   25 1
  37   22   24 1
  38   23   40 1
  39   23   41 1
  40   23   42 1
  41   24   43 1
  42   24   44 1
  43   24   45 1
  44   25   46 1
  45   25   47 1
  46   25   48 1
  47   26   27 1
  48   26   29 1
  49   26   28 1
  50   27   49 1
  51   27   50 1
  52   27   51 1
  53   28   52 1
  54   28   53 1
  55   28   54 1
  56   29   55 1
  57   29   56 1
  58   29   57 1

#	End of record

