#	Name: ASD10160465
#	Creating user name:	WinNT
#	Creation time:	15. 06. 2019 21:26

#	Modifying user name:	WinNT
#	Modification time:	15. 06. 2019 21:26

#	Program:	/corina/corina34_cracker 3.40 0067  02.08.2006

@<TRIPOS>MOLECULE
ASD10160465
  27   29    0    0    0
SMALL
NO_CHARGES


@<TRIPOS>ATOM
   1 C1            -3.2011     5.6813    -4.5653 C.1     
   2 C2            -2.3961     5.6500    -3.3814 C.ar    
   3 C3            -1.0757     6.1141    -3.4175 C.ar    
   4 C4            -0.3038     6.0818    -2.2736 C.ar    
   5 C5            -0.8350     5.5895    -1.0890 C.ar    
   6 C6            -2.1474     5.1266    -1.0487 C.ar    
   7 C7            -2.9281     5.1611    -2.1843 C.ar    
   8 N8            -3.8397     5.7062    -5.5044 N.1     
   9 O9            -0.0720     5.5592     0.0337 O.3     
  10 C10            1.2971     7.5249    -0.1902 C.2     
  11 C11            1.1608     6.1282    -0.0173 C.2     
  12 C12            2.2819     5.3583     0.0981 C.2     
  13 C13            3.5482     5.9628     0.0437 C.2     
  14 C14            3.6603     7.2971    -0.1217 C.2     
  15 N15            2.5475     8.0818    -0.2389 N.pl3   
  16 N16            0.4080     8.4988    -0.3219 N.2     
  17 C17            1.0490     9.6615    -0.4592 C.2     
  18 C18            2.3794     9.4285    -0.4101 C.2     
  19 F19           -2.6586     4.6483     0.1067 F       
  20 F20           -0.5579     6.5924    -4.5700 F       
  21 H21            0.7149     6.4395    -2.3002 H       
  22 H22           -3.9476     4.8062    -2.1506 H       
  23 H23            2.1955     4.2900     0.2310 H       
  24 H24            4.4372     5.3563     0.1351 H       
  25 H25            4.6399     7.7500    -0.1616 H       
  26 H26            0.5826    10.6273    -0.5853 H       
  27 H27            3.1630    10.1675    -0.4894 H       
@<TRIPOS>BOND
   1    1    2 1
   2    1    8 3
   3    2    3 ar
   4    2    7 ar
   5    3    4 ar
   6    3   20 1
   7    4    5 ar
   8    4   21 1
   9    5    6 ar
  10    5    9 1
  11    6    7 ar
  12    6   19 1
  13    7   22 1
  14    9   11 1
  15   10   11 1
  16   10   15 1
  17   10   16 2
  18   11   12 2
  19   12   13 1
  20   12   23 1
  21   13   14 2
  22   13   24 1
  23   14   15 1
  24   14   25 1
  25   15   18 1
  26   16   17 1
  27   17   18 2
  28   17   26 1
  29   18   27 1

#	End of record

