#	Name: ASD10410073
#	Creating user name:	WinNT
#	Creation time:	15. 06. 2019 21:26

#	Modifying user name:	WinNT
#	Modification time:	15. 06. 2019 21:26

#	Program:	/corina/corina34_cracker 3.40 0067  02.08.2006

@<TRIPOS>MOLECULE
ASD10410073
  61   66    0    0    0
SMALL
NO_CHARGES


@<TRIPOS>ATOM
   1 C1             0.0472     1.2899     0.5351 C.ar    
   2 C2             0.0015    -0.0026     0.0293 C.ar    
   3 C3             1.1491    -0.5850    -0.4927 C.ar    
   4 C4             2.3355     0.1210    -0.5088 C.ar    
   5 C5             2.3812     1.4138    -0.0034 C.ar    
   6 C6             1.2335     1.9962     0.5186 C.ar    
   7 N7             3.5845     2.1297    -0.0193 N.pl3   
   8 C8             3.5671     3.5210    -0.1174 C.2     
   9 N9             4.6173     4.3030    -0.0408 N.2     
  10 N10            2.4769     4.2726    -0.3106 N.2     
  11 C11            2.8167     5.5430    -0.3548 C.2     
  12 N12            4.1581     5.6216    -0.1897 N.pl3   
  13 C13            4.9316     6.7836    -0.1706 C.ar    
  14 N14            1.9567     6.6086    -0.5405 N.pl3   
  15 N15           -1.2011    -0.7186     0.0460 N.3     
  16 C16           -1.0252    -2.0573    -0.5341 C.3     
  17 C17           -2.3392    -2.8344    -0.4249 C.3     
  18 N18           -3.4012    -2.0964    -1.1230 N.3     
  19 C19           -3.5771    -0.7577    -0.5428 C.3     
  20 C20           -2.2631     0.0194    -0.6520 C.3     
  21 C21           -4.6634    -2.8478    -1.1054 C.3     
  22 N22            4.5043     7.8746    -0.7893 N.ar    
  23 N23            5.1837     8.9652    -0.8080 N.ar    
  24 C24            6.3588     9.0660    -0.2075 C.ar    
  25 C25            6.8811     7.9716     0.4880 C.ar    
  26 C26            6.1532     6.7985     0.5051 C.ar    
  27 C27            8.1856     8.0889     1.2220 C.3     
  28 C28            7.1378    10.3260    -0.2371 C.ar    
  29 C29            8.4887    10.2986     0.1043 C.ar    
  30 C30            9.1513     8.9957     0.4639 C.3     
  31 C31            6.5336    11.5268    -0.5978 C.ar    
  32 C32            7.2753    12.6914    -0.6040 C.ar    
  33 C33            8.6128    12.6633    -0.2515 C.ar    
  34 C34            9.2181    11.4709     0.1018 C.ar    
  35 H35           -0.8462     1.7443     0.9373 H       
  36 H36            1.1136    -1.5903    -0.8857 H       
  37 H37            3.2282    -0.3321    -0.9140 H       
  38 H38            1.2689     3.0016     0.9113 H       
  39 H39            4.4303     1.6581     0.0379 H       
  40 H40            1.0062     6.4509    -0.6525 H       
  41 H41            2.3036     7.5143    -0.5588 H       
  42 H42           -0.7434    -1.9649    -1.5830 H       
  43 H43           -0.2425    -2.5884     0.0076 H       
  44 H44           -2.2194    -3.8172    -0.8807 H       
  45 H45           -2.6069    -2.9504     0.6253 H       
  46 H46           -4.3598    -0.2266    -1.0846 H       
  47 H47           -3.8589    -0.8501     0.5060 H       
  48 H48           -2.3829     1.0022    -0.1963 H       
  49 H49           -1.9954     0.1353    -1.7023 H       
  50 H50           -4.9732    -3.0136    -0.0736 H       
  51 H51           -5.4321    -2.2791    -1.6287 H       
  52 H52           -4.5214    -3.8082    -1.6010 H       
  53 H53            6.5195     5.9209     1.0169 H       
  54 H54            8.0040     8.5060     2.2125 H       
  55 H55            8.6294     7.0988     1.3259 H       
  56 H56           10.0212     9.1961     1.0894 H       
  57 H57            9.4740     8.4935    -0.4481 H       
  58 H58            5.4892    11.5475    -0.8721 H       
  59 H59            6.8109    13.6253    -0.8846 H       
  60 H60            9.1876    13.5776    -0.2522 H       
  61 H61           10.2626    11.4567     0.3759 H       
@<TRIPOS>BOND
   1    1    2 ar
   2    1    6 ar
   3    1   35 1
   4    2    3 ar
   5    2   15 1
   6    3    4 ar
   7    3   36 1
   8    4    5 ar
   9    4   37 1
  10    5    6 ar
  11    5    7 1
  12    6   38 1
  13    7    8 1
  14    7   39 1
  15    8    9 2
  16    8   10 1
  17    9   12 1
  18   10   11 2
  19   11   12 1
  20   11   14 1
  21   12   13 1
  22   13   22 ar
  23   13   26 ar
  24   14   40 1
  25   14   41 1
  26   15   16 1
  27   15   20 1
  28   16   17 1
  29   16   42 1
  30   16   43 1
  31   17   18 1
  32   17   44 1
  33   17   45 1
  34   18   19 1
  35   18   21 1
  36   19   20 1
  37   19   46 1
  38   19   47 1
  39   20   48 1
  40   20   49 1
  41   21   50 1
  42   21   51 1
  43   21   52 1
  44   22   23 ar
  45   23   24 ar
  46   24   25 ar
  47   24   28 1
  48   25   26 ar
  49   25   27 1
  50   26   53 1
  51   27   30 1
  52   27   54 1
  53   27   55 1
  54   28   29 ar
  55   28   31 ar
  56   29   30 1
  57   29   34 ar
  58   30   56 1
  59   30   57 1
  60   31   32 ar
  61   31   58 1
  62   32   33 ar
  63   32   59 1
  64   33   34 ar
  65   33   60 1
  66   34   61 1

#	End of record

