#	Name: ASD10950010
#	Creating user name:	WinNT
#	Creation time:	15. 06. 2019 21:28

#	Modifying user name:	WinNT
#	Modification time:	15. 06. 2019 21:28

#	Program:	/corina/corina34_cracker 3.40 0067  02.08.2006

@<TRIPOS>MOLECULE
ASD10950010
  60   64    0    0    0
SMALL
NO_CHARGES


@<TRIPOS>ATOM
   1 C1             0.7352     1.3637    -2.2138 C.3     
   2 O2             0.6322    -0.0341    -1.8346 O.3     
   3 C3             1.1536    -0.3846    -0.6430 C.2     
   4 O4             1.6800     0.4546     0.0600 O.2     
   5 C5             1.0853    -1.7894    -0.1913 C.ar    
   6 C6             1.6248    -2.1561     1.0432 C.ar    
   7 C7             1.5577    -3.4698     1.4588 C.ar    
   8 C8             0.9574    -4.4231     0.6554 C.ar    
   9 C9             0.4208    -4.0665    -0.5691 C.ar    
  10 C10            0.4759    -2.7555    -0.9945 C.ar    
  11 C11            0.8882    -5.8563     1.1160 C.3     
  12 N12           -0.4711    -6.3793     0.9352 N.am    
  13 C13           -1.6860    -5.8592     1.5674 C.3     
  14 C14           -2.3053    -4.7829     0.6737 C.3     
  15 C15           -3.5550    -4.2479     1.3240 C.2     
  16 C16           -4.8126    -4.6578     1.0950 C.2     
  17 N17           -5.6848    -3.9420     1.8690 N.pl3   
  18 C18           -4.9921    -3.0309     2.6344 C.ar    
  19 C19           -3.6274    -3.1862     2.3307 C.ar    
  20 C20           -2.6768    -2.3842     2.9655 C.ar    
  21 C21           -3.0780    -1.4514     3.8796 C.ar    
  22 C22           -4.4236    -1.2946     4.1831 C.ar    
  23 C23           -5.3777    -2.0774     3.5713 C.ar    
  24 C24           -0.4041    -7.4212     0.0866 C.2     
  25 O25           -1.3539    -8.0845    -0.2795 O.2     
  26 C26            0.9959    -7.6391    -0.3350 C.2     
  27 C27            1.7888    -6.7198     0.2638 C.2     
  28 C28            3.2409    -6.5870     0.1138 C.2     
  29 O29            3.7147    -6.2665    -0.9599 O.2     
  30 C30            4.1297    -6.8427     1.2675 C.ar    
  31 C31            5.5089    -6.6635     1.1431 C.ar    
  32 C32            6.3337    -6.9035     2.2227 C.ar    
  33 C33            5.7980    -7.3211     3.4277 C.ar    
  34 C34            4.4298    -7.5017     3.5593 C.ar    
  35 C35            3.5928    -7.2588     2.4876 C.ar    
  36 F36            3.9138    -7.9101     4.7392 F       
  37 O37            1.4178    -8.6042    -1.1839 O.3     
  38 H38            1.7855     1.6519    -2.2576 H       
  39 H39            0.2773     1.5095    -3.1922 H       
  40 H40            0.2201     1.9792    -1.4763 H       
  41 H41            2.0939    -1.4131     1.6711 H       
  42 H42            1.9749    -3.7549     2.4133 H       
  43 H43           -0.0461    -4.8157    -1.1914 H       
  44 H44            0.0567    -2.4785    -1.9504 H       
  45 H45            1.1809    -5.9275     2.1635 H       
  46 H46           -2.3997    -6.6713     1.7059 H       
  47 H47           -1.4350    -5.4270     2.5361 H       
  48 H48           -1.5916    -3.9707     0.5352 H       
  49 H49           -2.5563    -5.2151    -0.2950 H       
  50 H50           -5.0943    -5.4368     0.4020 H       
  51 H51           -6.6477    -4.0588     1.8771 H       
  52 H52           -1.6282    -2.5011     2.7349 H       
  53 H53           -2.3423    -0.8313     4.3703 H       
  54 H54           -4.7251    -0.5531     4.9082 H       
  55 H55           -6.4220    -1.9477     3.8141 H       
  56 H56            5.9294    -6.3380     0.2031 H       
  57 H57            7.4005    -6.7654     2.1266 H       
  58 H58            6.4484    -7.5075     4.2695 H       
  59 H59            2.5269    -7.3996     2.5902 H       
  60 H60            0.7097    -9.1729    -1.5161 H       
@<TRIPOS>BOND
   1    1    2 1
   2    1   38 1
   3    1   39 1
   4    1   40 1
   5    2    3 1
   6    3    4 2
   7    3    5 1
   8    5    6 ar
   9    5   10 ar
  10    6    7 ar
  11    6   41 1
  12    7    8 ar
  13    7   42 1
  14    8    9 ar
  15    8   11 1
  16    9   10 ar
  17    9   43 1
  18   10   44 1
  19   11   12 1
  20   11   27 1
  21   11   45 1
  22   12   13 1
  23   12   24 am
  24   13   14 1
  25   13   46 1
  26   13   47 1
  27   14   15 1
  28   14   48 1
  29   14   49 1
  30   15   16 2
  31   15   19 1
  32   16   17 1
  33   16   50 1
  34   17   18 1
  35   17   51 1
  36   18   19 ar
  37   18   23 ar
  38   19   20 ar
  39   20   21 ar
  40   20   52 1
  41   21   22 ar
  42   21   53 1
  43   22   23 ar
  44   22   54 1
  45   23   55 1
  46   24   25 2
  47   24   26 1
  48   26   27 2
  49   26   37 1
  50   27   28 1
  51   28   29 2
  52   28   30 1
  53   30   31 ar
  54   30   35 ar
  55   31   32 ar
  56   31   56 1
  57   32   33 ar
  58   32   57 1
  59   33   34 ar
  60   33   58 1
  61   34   35 ar
  62   34   36 1
  63   35   59 1
  64   37   60 1

#	End of record

