#	Name: ASD12970008
#	Creating user name:	WinNT
#	Creation time:	15. 06. 2019 21:30

#	Modifying user name:	WinNT
#	Modification time:	15. 06. 2019 21:30

#	Program:	/corina/corina34_cracker 3.40 0067  02.08.2006

@<TRIPOS>MOLECULE
ASD12970008
  17   17    0    0    0
SMALL
NO_CHARGES


@<TRIPOS>ATOM
   1 C1            -0.0184     1.5085     0.0103 C.2     
   2 C2             0.0021    -0.0041     0.0020 C.3     
   3 C3             0.9051    -0.4727    -1.1438 C.3     
   4 C4             2.2833     0.1756    -1.0023 C.3     
   5 C5             2.1594     1.6935    -1.1441 C.3     
   6 C6             1.3035     2.2437     0.0017 C.3     
   7 O7            -1.0635     2.1135     0.0186 O.2     
   8 H8             0.3946    -0.3701     0.9507 H       
   9 H9            -1.0086    -0.3831    -0.1499 H       
  10 H10            1.0078    -1.5572    -1.1054 H       
  11 H11            0.4631    -0.1827    -2.0969 H       
  12 H12            2.6977    -0.0642    -0.0230 H       
  13 H13            2.9455    -0.2080    -1.7785 H       
  14 H14            3.1511     2.1443    -1.1060 H       
  15 H15            1.6877     1.9323    -2.0973 H       
  16 H16            1.1291     3.3088    -0.1505 H       
  17 H17            1.8165     2.0857     0.9503 H       
@<TRIPOS>BOND
   1    1    2 1
   2    1    6 1
   3    1    7 2
   4    2    3 1
   5    2    8 1
   6    2    9 1
   7    3    4 1
   8    3   10 1
   9    3   11 1
  10    4    5 1
  11    4   12 1
  12    4   13 1
  13    5    6 1
  14    5   14 1
  15    5   15 1
  16    6   16 1
  17    6   17 1

#	End of record

