#	Name: ASD12070001
#	Creating user name:	WinNT
#	Creation time:	15. 06. 2019 21:30

#	Modifying user name:	WinNT
#	Modification time:	15. 06. 2019 21:30

#	Program:	/corina/corina34_cracker 3.40 0067  02.08.2006

@<TRIPOS>MOLECULE
ASD12070001
  79   81    0    0    0
SMALL
NO_CHARGES


@<TRIPOS>ATOM
   1 C1            -0.0173     1.4248     0.0099 C.3     
   2 O2             0.0021    -0.0041     0.0020 O.3     
   3 C3             1.4189     1.9549    -0.0010 C.3     
   4 O4             2.1280     1.4359     1.1258 O.3     
   5 C5             2.1106     1.5065    -1.2920 C.3     
   6 O6             2.1863     0.0799    -1.3231 O.3     
   7 C7             1.2986     2.0029    -2.4923 C.3     
   8 O8             1.8950     1.5289    -3.7012 O.3     
   9 C9            -0.1329     1.4709    -2.3852 C.3     
  10 O10           -0.7073     1.8984    -1.1485 O.3     
  11 C11           -0.9665     2.0114    -3.5487 C.3     
  12 O12           -2.2687     1.4240    -3.5151 O.3     
  13 C13           -0.8909    -3.0989    -1.2683 C.3     
  14 O14           -2.1836    -3.6931    -1.1342 O.3     
  15 C15           -2.1701    -4.9803    -0.5139 C.3     
  16 C16           -6.4156   -10.7274     1.7509 C.3     
  17 C17           -1.0098    -1.7892    -2.0521 C.3     
  18 O18           -1.6008    -2.0478    -3.3272 O.3     
  19 C19           -3.5997    -5.5178    -0.4231 C.3     
  20 C20           -7.8265   -11.3186     1.7295 C.3     
  21 C21           -1.8914    -0.8123    -1.2680 C.3     
  22 O22           -3.2088    -1.3516    -1.1434 O.3     
  23 C23           -3.5852    -6.8960     0.2410 C.3     
  24 C24           -7.8121   -12.6969     2.3937 C.3     
  25 C25           -1.2893    -0.6035     0.1249 C.3     
  26 C26           -5.0149    -7.4334     0.3318 C.3     
  27 C27           -7.3383   -12.5601     3.8420 C.3     
  28 C28           -1.1596    -1.9590     0.8246 C.3     
  29 O29           -0.3534    -2.8295     0.0281 O.3     
  30 C30           -5.0004    -8.8117     0.9960 C.3     
  31 C31           -5.9273   -11.9689     3.8634 C.3     
  32 C32           -0.5034    -1.7660     2.1932 C.3     
  33 O33           -0.4879    -3.0114     2.8939 O.3     
  34 C34           -6.4300    -9.3491     1.0868 C.3     
  35 C35           -5.9418   -10.5906     3.1993 C.3     
  36 H36           -0.5278     1.7765     0.9064 H       
  37 H37            1.4056     3.0438     0.0470 H       
  38 H38            1.7417     1.6772     1.9789 H       
  39 H39            3.1159     1.9259    -1.3317 H       
  40 H40            2.6817    -0.3039    -0.5867 H       
  41 H41            1.2838     3.0928    -2.4964 H       
  42 H42            2.8065     1.8241    -3.8322 H       
  43 H43           -0.1196     0.3816    -2.4225 H       
  44 H44           -1.0540     3.0943    -3.4607 H       
  45 H45           -0.4795     1.7617    -4.4914 H       
  46 H46           -2.8530     1.7217    -4.2257 H       
  47 H47           -0.2301    -3.7827    -1.8011 H       
  48 H48           -1.5622    -5.6633    -1.1074 H       
  49 H49           -1.7492    -4.8965     0.4880 H       
  50 H50           -5.7376   -11.3854     1.2075 H       
  51 H51           -0.0191    -1.3565    -2.1908 H       
  52 H52           -1.0969    -2.6638    -3.8766 H       
  53 H53           -4.2076    -4.8348     0.1704 H       
  54 H54           -4.0207    -5.6017    -1.4250 H       
  55 H55           -8.5045   -10.6605     2.2730 H       
  56 H56           -8.1640   -11.4161     0.6977 H       
  57 H57           -1.9360     0.1414    -1.7940 H       
  58 H58           -3.6482    -1.5157    -1.9890 H       
  59 H59           -2.9774    -7.5789    -0.3524 H       
  60 H60           -3.1643    -6.8121     1.2430 H       
  61 H61           -8.8173   -13.1181     2.3784 H       
  62 H62           -7.1341   -13.3550     1.8502 H       
  63 H63           -1.9393     0.0481     0.7088 H       
  64 H64           -5.6227    -6.7505     0.9253 H       
  65 H65           -5.4358    -7.5173    -0.6701 H       
  66 H66           -8.0163   -11.9020     4.3855 H       
  67 H67           -7.3280   -13.5420     4.3152 H       
  68 H68           -2.1491    -2.3973     0.9543 H       
  69 H69           -4.3925    -9.4946     0.4025 H       
  70 H70           -4.5795    -8.7278     1.9979 H       
  71 H71           -5.5898   -11.8714     4.8953 H       
  72 H72           -5.2493   -12.6269     3.3200 H       
  73 H73            0.5187    -1.4117     2.0594 H       
  74 H74           -1.0698    -1.0330     2.7676 H       
  75 H75           -0.0852    -2.9638     3.7718 H       
  76 H76           -6.8510    -9.4330     0.0848 H       
  77 H77           -7.0379    -8.6662     1.6802 H       
  78 H78           -4.9366   -10.1694     3.2145 H       
  79 H79           -6.6198    -9.9325     3.7427 H       
@<TRIPOS>BOND
   1    1    2 1
   2    1    3 1
   3    1   10 1
   4    1   36 1
   5    2   25 1
   6    3    4 1
   7    3    5 1
   8    3   37 1
   9    4   38 1
  10    5    6 1
  11    5    7 1
  12    5   39 1
  13    6   40 1
  14    7    8 1
  15    7    9 1
  16    7   41 1
  17    8   42 1
  18    9   10 1
  19    9   11 1
  20    9   43 1
  21   11   12 1
  22   11   44 1
  23   11   45 1
  24   12   46 1
  25   13   14 1
  26   13   17 1
  27   13   29 1
  28   13   47 1
  29   14   15 1
  30   15   19 1
  31   15   48 1
  32   15   49 1
  33   16   20 1
  34   16   34 1
  35   16   35 1
  36   16   50 1
  37   17   18 1
  38   17   21 1
  39   17   51 1
  40   18   52 1
  41   19   23 1
  42   19   53 1
  43   19   54 1
  44   20   24 1
  45   20   55 1
  46   20   56 1
  47   21   22 1
  48   21   25 1
  49   21   57 1
  50   22   58 1
  51   23   26 1
  52   23   59 1
  53   23   60 1
  54   24   27 1
  55   24   61 1
  56   24   62 1
  57   25   28 1
  58   25   63 1
  59   26   30 1
  60   26   64 1
  61   26   65 1
  62   27   31 1
  63   27   66 1
  64   27   67 1
  65   28   29 1
  66   28   32 1
  67   28   68 1
  68   30   34 1
  69   30   69 1
  70   30   70 1
  71   31   35 1
  72   31   71 1
  73   31   72 1
  74   32   33 1
  75   32   73 1
  76   32   74 1
  77   33   75 1
  78   34   76 1
  79   34   77 1
  80   35   78 1
  81   35   79 1

#	End of record

