#	Name: ASD10410102
#	Creating user name:	WinNT
#	Creation time:	15. 06. 2019 21:26

#	Modifying user name:	WinNT
#	Modification time:	15. 06. 2019 21:26

#	Program:	/corina/corina34_cracker 3.40 0067  02.08.2006

@<TRIPOS>MOLECULE
ASD10410102
  70   76    0    0    0
SMALL
NO_CHARGES


@<TRIPOS>ATOM
   1 C1            -0.0464     1.3929    -0.0606 C.ar    
   2 C2            -0.0104     0.0098     0.0593 C.ar    
   3 C3             1.2078    -0.6448     0.1859 C.ar    
   4 C4             2.3833     0.0794     0.1922 C.ar    
   5 C5             2.3475     1.4625     0.0719 C.ar    
   6 C6             1.1292     2.1171    -0.0543 C.ar    
   7 N7             3.5397     2.1971     0.0787 N.pl3   
   8 C8             3.6256     3.3930    -0.6324 C.2     
   9 N9             4.6494     4.2122    -0.6205 N.2     
  10 N10            2.6784     3.8847    -1.4402 N.2     
  11 C11            3.0809     5.0279    -1.9518 C.2     
  12 N12            4.3260     5.2859    -1.4660 N.pl3   
  13 C13            5.1179     6.3896    -1.7495 C.ar    
  14 N14            2.3687     5.8228    -2.8279 N.pl3   
  15 N15           -1.2021    -0.7244     0.0529 N.3     
  16 C16           -0.9351    -2.1629     0.1908 C.3     
  17 C17           -2.2628    -2.9212     0.2594 C.3     
  18 N18           -3.0436    -2.6474    -0.9552 N.3     
  19 C19           -3.3105    -1.2089    -1.0931 C.3     
  20 C20           -1.9828    -0.4507    -1.1617 C.3     
  21 N21            5.2913     6.8002    -2.9975 N.ar    
  22 C22            6.0438     7.8511    -3.2817 C.ar    
  23 N23            6.6643     8.5539    -2.3639 N.ar    
  24 C24            6.5567     8.2251    -1.0689 C.ar    
  25 C25            5.7569     7.1104    -0.7140 C.ar    
  26 C26           -5.0988    -3.1283    -2.2496 C.3     
  27 C27           -5.2057    -4.5087    -2.9666 C.3     
  28 C28           -3.7577    -4.8033    -3.4644 C.3     
  29 C29           -2.9531    -5.0930    -2.1767 C.3     
  30 C30           -4.2942    -3.4180    -0.9619 C.3     
  31 C31           -3.9908    -4.9463    -1.0221 C.3     
  32 C32           -5.2890    -5.4721    -1.7303 C.3     
  33 C33            7.2052     8.9526    -0.0613 C.ar    
  34 C34            7.0616     8.5743     1.2402 C.ar    
  35 C35            6.2803     7.4749     1.5865 C.ar    
  36 C36            5.6300     6.7492     0.6326 C.ar    
  37 C37            6.1950     8.2587    -4.7247 C.3     
  38 F38            5.4258     9.4013    -4.9696 F       
  39 F39            7.5399     8.5356    -4.9925 F       
  40 F40            5.7597     7.2174    -5.5514 F       
  41 H41           -0.9935     1.9016    -0.1632 H       
  42 H42            1.2356    -1.7204     0.2798 H       
  43 H43            3.3307    -0.4297     0.2910 H       
  44 H44            1.1013     3.1927    -0.1478 H       
  45 H45            4.3057     1.8737     0.5782 H       
  46 H46            1.4844     5.5513    -3.1197 H       
  47 H47            2.7528     6.6526    -3.1516 H       
  48 H48           -0.3618    -2.5104    -0.6686 H       
  49 H49           -0.3669    -2.3414     1.1037 H       
  50 H50           -2.0673    -3.9910     0.3325 H       
  51 H51           -2.8242    -2.5931     1.1342 H       
  52 H52           -3.8788    -1.0304    -2.0060 H       
  53 H53           -3.8838    -0.8614    -0.2337 H       
  54 H54           -2.1784     0.6191    -1.2348 H       
  55 H55           -1.4214    -0.7787    -2.0365 H       
  56 H56           -4.5664    -2.4141    -2.8777 H       
  57 H57           -6.0909    -2.7513    -2.0011 H       
  58 H58           -5.9939    -4.5976    -3.7143 H       
  59 H59           -3.7511    -5.6736    -4.1205 H       
  60 H60           -3.3492    -3.9343    -3.9803 H       
  61 H61           -2.5510    -6.1058    -2.1997 H       
  62 H62           -2.1490    -4.3665    -2.0595 H       
  63 H63           -4.8900    -3.1816    -0.0803 H       
  64 H64           -3.7209    -5.4161    -0.0763 H       
  65 H65           -6.1823    -5.2929    -1.1319 H       
  66 H66           -5.2007    -6.5189    -2.0210 H       
  67 H67            7.8150     9.8071    -0.3147 H       
  68 H68            7.5619     9.1360     2.0152 H       
  69 H69            6.1839     7.1962     2.6255 H       
  70 H70            5.0269     5.8984     0.9133 H       
@<TRIPOS>BOND
   1    1    2 ar
   2    1    6 ar
   3    1   41 1
   4    2    3 ar
   5    2   15 1
   6    3    4 ar
   7    3   42 1
   8    4    5 ar
   9    4   43 1
  10    5    6 ar
  11    5    7 1
  12    6   44 1
  13    7    8 1
  14    7   45 1
  15    8    9 2
  16    8   10 1
  17    9   12 1
  18   10   11 2
  19   11   12 1
  20   11   14 1
  21   12   13 1
  22   13   21 ar
  23   13   25 ar
  24   14   46 1
  25   14   47 1
  26   15   16 1
  27   15   20 1
  28   16   17 1
  29   16   48 1
  30   16   49 1
  31   17   18 1
  32   17   50 1
  33   17   51 1
  34   18   19 1
  35   18   30 1
  36   19   20 1
  37   19   52 1
  38   19   53 1
  39   20   54 1
  40   20   55 1
  41   21   22 ar
  42   22   23 ar
  43   22   37 1
  44   23   24 ar
  45   24   25 ar
  46   24   33 ar
  47   25   36 ar
  48   26   27 1
  49   26   30 1
  50   26   56 1
  51   26   57 1
  52   27   28 1
  53   27   32 1
  54   27   58 1
  55   28   29 1
  56   28   59 1
  57   28   60 1
  58   29   31 1
  59   29   61 1
  60   29   62 1
  61   30   31 1
  62   30   63 1
  63   31   32 1
  64   31   64 1
  65   32   65 1
  66   32   66 1
  67   33   34 ar
  68   33   67 1
  69   34   35 ar
  70   34   68 1
  71   35   36 ar
  72   35   69 1
  73   36   70 1
  74   37   38 1
  75   37   39 1
  76   37   40 1

#	End of record

