#	Name: ASD14870009
#	Creating user name:	WinNT
#	Creation time:	15. 06. 2019 21:31

#	Modifying user name:	WinNT
#	Modification time:	15. 06. 2019 21:31

#	Program:	/corina/corina34_cracker 3.40 0067  02.08.2006

@<TRIPOS>MOLECULE
ASD14870009
  63   67    0    0    0
SMALL
NO_CHARGES


@<TRIPOS>ATOM
   1 C1             0.6208    -6.9476     1.3155 C.ar    
   2 C2             0.9815    -6.3015     0.1493 C.ar    
   3 C3             1.7908    -5.1744     0.2024 C.ar    
   4 C4             2.2368    -4.6979     1.4281 C.ar    
   5 C5             1.8751    -5.3452     2.5932 C.ar    
   6 C6             1.0667    -6.4710     2.5393 C.ar    
   7 O7             0.7106    -7.1076     3.6872 O.3     
   8 C8            -0.1236    -8.2605     3.5576 C.3     
   9 N9             2.1572    -4.5193    -0.9787 N.am    
  10 S10            2.1271    -2.8652    -1.0518 S.o2    
  11 O11            2.1035    -2.5248    -2.4312 O.2     
  12 O12            1.1329    -2.4409    -0.1294 O.2     
  13 C13            3.6682    -2.2872    -0.4230 C.ar    
  14 C14            4.5044    -3.1558     0.2538 C.ar    
  15 C15            5.7146    -2.7050     0.7489 C.ar    
  16 C16            6.0866    -1.3878     0.5758 C.ar    
  17 C17            5.2502    -0.5047    -0.0963 C.ar    
  18 C18            4.0368    -0.9730    -0.6130 C.ar    
  19 N19            5.6332     0.8354    -0.2292 N.pl3   
  20 C20            3.1974    -0.0122    -1.3603 C.3     
  21 C21            4.7883     1.8055    -0.9590 C.3     
  22 C22            3.3516     1.3846    -0.6878 C.3     
  23 C23            2.2517     2.1085    -1.4761 C.3     
  24 C24            1.1717     1.0282    -1.5607 C.2     
  25 C25            1.7255    -0.1753    -1.4737 C.2     
  26 C26            5.0310     3.1998    -0.4411 C.ar    
  27 C27            5.5960     3.3849     0.8069 C.ar    
  28 C28            5.8200     4.6626     1.2851 C.ar    
  29 C29            5.4798     5.7608     0.5174 C.ar    
  30 C30            4.9134     5.5822    -0.7346 C.ar    
  31 C31            4.6929     4.2961    -1.2181 C.ar    
  32 O32            4.1373     4.1157    -2.4462 O.3     
  33 O33            4.5782     6.6614    -1.4911 O.3     
  34 C34            5.0325     4.0279    -3.5566 C.3     
  35 C35            4.8379     7.9510    -0.9328 C.3     
  36 H36           -0.0123    -7.8216     1.2747 H       
  37 H37            0.6346    -6.6730    -0.8036 H       
  38 H38            2.8665    -3.8215     1.4702 H       
  39 H39            2.2221    -4.9749     3.5466 H       
  40 H40           -1.0602    -7.9791     3.0762 H       
  41 H41            0.3850    -9.0108     2.9523 H       
  42 H42           -0.3320    -8.6711     4.5456 H       
  43 H43            2.4288    -5.0342    -1.7546 H       
  44 H44            4.2125    -4.1858     0.3961 H       
  45 H45            6.3696    -3.3855     1.2725 H       
  46 H46            7.0326    -1.0412     0.9649 H       
  47 H47            6.4680     1.1332     0.1650 H       
  48 H48            3.5928     0.0654    -2.3731 H       
  49 H49            4.9979     1.7579    -2.0276 H       
  50 H50            3.1394     1.3473     0.3807 H       
  51 H51            1.8900     2.9805    -0.9311 H       
  52 H52            2.6027     2.3885    -2.4693 H       
  53 H53            0.1143     1.2168    -1.6740 H       
  54 H54            1.1944    -1.1157    -1.4835 H       
  55 H55            5.8628     2.5295     1.4099 H       
  56 H56            6.2613     4.8032     2.2607 H       
  57 H57            5.6551     6.7579     0.8935 H       
  58 H58            4.4609     3.8847    -4.4736 H       
  59 H59            5.6122     4.9480    -3.6297 H       
  60 H60            5.7072     3.1838    -3.4135 H       
  61 H61            4.2826     8.0622    -0.0015 H       
  62 H62            5.9048     8.0527    -0.7340 H       
  63 H63            4.5245     8.7216    -1.6371 H       
@<TRIPOS>BOND
   1    1    2 ar
   2    1    6 ar
   3    1   36 1
   4    2    3 ar
   5    2   37 1
   6    3    4 ar
   7    3    9 1
   8    4    5 ar
   9    4   38 1
  10    5    6 ar
  11    5   39 1
  12    6    7 1
  13    7    8 1
  14    8   40 1
  15    8   41 1
  16    8   42 1
  17    9   10 am
  18    9   43 1
  19   10   11 2
  20   10   12 2
  21   10   13 1
  22   13   14 ar
  23   13   18 ar
  24   14   15 ar
  25   14   44 1
  26   15   16 ar
  27   15   45 1
  28   16   17 ar
  29   16   46 1
  30   17   18 ar
  31   17   19 1
  32   18   20 1
  33   19   21 1
  34   19   47 1
  35   20   22 1
  36   20   25 1
  37   20   48 1
  38   21   22 1
  39   21   26 1
  40   21   49 1
  41   22   23 1
  42   22   50 1
  43   23   24 1
  44   23   51 1
  45   23   52 1
  46   24   25 2
  47   24   53 1
  48   25   54 1
  49   26   27 ar
  50   26   31 ar
  51   27   28 ar
  52   27   55 1
  53   28   29 ar
  54   28   56 1
  55   29   30 ar
  56   29   57 1
  57   30   31 ar
  58   30   33 1
  59   31   32 1
  60   32   34 1
  61   33   35 1
  62   34   58 1
  63   34   59 1
  64   34   60 1
  65   35   61 1
  66   35   62 1
  67   35   63 1

#	End of record

