#	Name: ASD10410110
#	Creating user name:	WinNT
#	Creation time:	15. 06. 2019 21:26

#	Modifying user name:	WinNT
#	Modification time:	15. 06. 2019 21:26

#	Program:	/corina/corina34_cracker 3.40 0067  02.08.2006

@<TRIPOS>MOLECULE
ASD10410110
  56   60    0    0    0
SMALL
NO_CHARGES


@<TRIPOS>ATOM
   1 C1            -0.0187     1.3941    -0.0783 C.ar    
   2 C2            -0.0066     0.0110     0.0275 C.ar    
   3 C3             1.1996    -0.6680     0.1173 C.ar    
   4 C4             2.3896     0.0324     0.1013 C.ar    
   5 C5             2.3785     1.4171    -0.0046 C.ar    
   6 C6             1.1703     2.0962    -0.0944 C.ar    
   7 N7             3.5843     2.1280    -0.0209 N.pl3   
   8 C8             3.6703     3.3296    -0.7029 C.2     
   9 N9             4.7471     4.1670    -0.7092 N.pl3   
  10 N10            2.7316     3.8520    -1.4569 N.2     
  11 C11            3.1608     5.0239    -1.9609 C.2     
  12 C12            4.4138     5.2454    -1.5114 C.2     
  13 N13            2.4316     5.8689    -2.8113 N.pl3   
  14 C14            5.9531     3.9741    -0.0359 C.ar    
  15 N15            6.1276     2.8912     0.6961 N.ar    
  16 C16            6.9740     4.9317    -0.1477 C.ar    
  17 N17            8.1154     4.7678     0.4776 N.ar    
  18 C18            8.3118     3.6785     1.2301 C.ar    
  19 C19            7.2854     2.7074     1.3410 C.ar    
  20 C20            9.5247     3.4782     1.9111 C.ar    
  21 C21            9.6966     2.3612     2.6696 C.ar    
  22 C22            8.6856     1.4088     2.7827 C.ar    
  23 C23            7.4997     1.5665     2.1337 C.ar    
  24 O24           -1.1780    -0.6795     0.0438 O.3     
  25 C25           -1.0913    -2.1015     0.1549 C.3     
  26 C26           -2.4995    -2.6997     0.1567 C.3     
  27 C27           -3.1753    -2.4801    -1.2095 C.3     
  28 C28           -2.4304    -4.2343     0.3310 C.3     
  29 C29           -3.5405    -4.7417    -0.6234 C.3     
  30 N30           -3.4410    -3.8176    -1.7821 N.3     
  31 C31           -4.6847    -3.8180    -2.5640 C.3     
  32 H32           -0.9582     1.9216    -0.1526 H       
  33 H33            1.2081    -1.7448     0.2000 H       
  34 H34            3.3287    -0.4964     0.1715 H       
  35 H35            1.1607     3.1730    -0.1771 H       
  36 H36            4.3596     1.7787     0.4458 H       
  37 H37            5.0363     6.0995    -1.7338 H       
  38 H38            1.5336     5.6243    -3.0847 H       
  39 H39            2.8254     6.6977    -3.1259 H       
  40 H40            6.8181     5.8114    -0.7546 H       
  41 H41           10.3174     4.2075     1.8326 H       
  42 H42           10.6303     2.2107     3.1912 H       
  43 H43            8.8470     0.5308     3.3905 H       
  44 H44            6.7251     0.8202     2.2305 H       
  45 H45           -0.5291    -2.4984    -0.6904 H       
  46 H46           -0.5842    -2.3632     1.0836 H       
  47 H47           -3.0983    -2.2539     0.9510 H       
  48 H48           -4.1127    -1.9398    -1.0774 H       
  49 H49           -2.5103    -1.9201    -1.8669 H       
  50 H50           -1.4555    -4.6137     0.0249 H       
  51 H51           -2.6490    -4.5158     1.3610 H       
  52 H52           -3.3429    -5.7683    -0.9320 H       
  53 H53           -4.5196    -4.6625    -0.1512 H       
  54 H54           -5.5115    -3.4949    -1.9315 H       
  55 H55           -4.5838    -3.1348    -3.4073 H       
  56 H56           -4.8814    -4.8245    -2.9332 H       
@<TRIPOS>BOND
   1    1    2 ar
   2    1    6 ar
   3    1   32 1
   4    2    3 ar
   5    2   24 1
   6    3    4 ar
   7    3   33 1
   8    4    5 ar
   9    4   34 1
  10    5    6 ar
  11    5    7 1
  12    6   35 1
  13    7    8 1
  14    7   36 1
  15    8    9 1
  16    8   10 2
  17    9   14 1
  18    9   12 1
  19   10   11 1
  20   11   12 2
  21   11   13 1
  22   12   37 1
  23   13   38 1
  24   13   39 1
  25   14   15 ar
  26   14   16 ar
  27   15   19 ar
  28   16   17 ar
  29   16   40 1
  30   17   18 ar
  31   18   19 ar
  32   18   20 ar
  33   19   23 ar
  34   20   21 ar
  35   20   41 1
  36   21   22 ar
  37   21   42 1
  38   22   23 ar
  39   22   43 1
  40   23   44 1
  41   24   25 1
  42   25   26 1
  43   25   45 1
  44   25   46 1
  45   26   27 1
  46   26   28 1
  47   26   47 1
  48   27   30 1
  49   27   48 1
  50   27   49 1
  51   28   29 1
  52   28   50 1
  53   28   51 1
  54   29   30 1
  55   29   52 1
  56   29   53 1
  57   30   31 1
  58   31   54 1
  59   31   55 1
  60   31   56 1

#	End of record

