#	Name: ASD10220054
#	Creating user name:	WinNT
#	Creation time:	15. 06. 2019 21:26

#	Modifying user name:	WinNT
#	Modification time:	15. 06. 2019 21:26

#	Program:	/corina/corina34_cracker 3.40 0067  02.08.2006

@<TRIPOS>MOLECULE
ASD10220054
  36   39    0    0    0
SMALL
NO_CHARGES


@<TRIPOS>ATOM
   1 C1             0.1255     1.5376     0.4934 C.2     
   2 C2             0.1511     0.0605     0.3992 C.ar    
   3 C3            -1.0174    -0.6875     0.6720 C.ar    
   4 C4            -2.2557     0.0352     1.0136 C.2     
   5 C5            -2.3497     1.4237     0.8664 C.2     
   6 C6            -1.2212     2.2189     0.3766 C.2     
   7 O7            -3.4225    -0.4031     1.4803 O.3     
   8 C8            -4.2910     0.6051     1.6513 C.2     
   9 C9            -3.6978     1.7850     1.2894 C.2     
  10 O10           -1.3544     3.3310    -0.0929 O.2     
  11 O11            1.1430     2.1765     0.6625 O.2     
  12 C12           -4.2933     3.1305     1.3211 C.2     
  13 O13           -4.9385     3.5325     0.3716 O.2     
  14 C14           -4.1073     3.9931     2.5065 C.ar    
  15 C15            1.3225    -0.6044     0.0456 C.ar    
  16 C16           -0.9823    -2.0738     0.6040 C.ar    
  17 C17           -4.5771     5.3084     2.4973 C.ar    
  18 C18           -4.4009     6.1080     3.6067 C.ar    
  19 C19           -3.7592     5.6096     4.7284 C.ar    
  20 C20           -3.2911     4.3062     4.7438 C.ar    
  21 C21           -3.4662     3.4947     3.6429 C.ar    
  22 C22            0.1948    -2.7163     0.2558 C.ar    
  23 C23            1.3359    -1.9862    -0.0242 C.ar    
  24 C24           -5.7014     0.4613     2.1622 C.3     
  25 Br25          -3.5207     6.7136     6.2450 Br      
  26 H26            2.2184    -0.0427    -0.1739 H       
  27 H27           -1.8696    -2.6496     0.8223 H       
  28 H28           -5.0770     5.6984     1.6230 H       
  29 H29           -4.7637     7.1252     3.6009 H       
  30 H30           -2.7912     3.9235     5.6213 H       
  31 H31           -3.1010     2.4783     3.6562 H       
  32 H32            0.2217    -3.7947     0.2030 H       
  33 H33            2.2453    -2.4994    -0.2999 H       
  34 H34           -5.9364    -0.5957     2.2875 H       
  35 H35           -5.7940     0.9703     3.1216 H       
  36 H36           -6.3939     0.9052     1.4470 H       
@<TRIPOS>BOND
   1    1    2 1
   2    1   11 2
   3    1    6 1
   4    2    3 ar
   5    2   15 ar
   6    3    4 1
   7    3   16 ar
   8    4    5 2
   9    4    7 1
  10    5    6 1
  11    5    9 1
  12    6   10 2
  13    7    8 1
  14    8    9 2
  15    8   24 1
  16    9   12 1
  17   12   13 2
  18   12   14 1
  19   14   17 ar
  20   14   21 ar
  21   15   23 ar
  22   15   26 1
  23   16   22 ar
  24   16   27 1
  25   17   18 ar
  26   17   28 1
  27   18   19 ar
  28   18   29 1
  29   19   20 ar
  30   19   25 1
  31   20   21 ar
  32   20   30 1
  33   21   31 1
  34   22   23 ar
  35   22   32 1
  36   23   33 1
  37   24   34 1
  38   24   35 1
  39   24   36 1

#	End of record

