#	Name: ASD14450001
#	Creating user name:	WinNT
#	Creation time:	15. 06. 2019 21:31

#	Modifying user name:	WinNT
#	Modification time:	15. 06. 2019 21:31

#	Program:	/corina/corina34_cracker 3.40 0067  02.08.2006

@<TRIPOS>MOLECULE
ASD14450001
  47   50    0    0    0
SMALL
NO_CHARGES


@<TRIPOS>ATOM
   1 C1            -0.0172     1.3611    -0.0101 C.ar    
   2 C2             0.0016    -0.0042    -0.0147 C.ar    
   3 C3             1.2131    -0.6921    -0.0156 C.ar    
   4 C4             2.4139    -0.0017    -0.0119 C.ar    
   5 C5             2.4114     1.3855    -0.0077 C.ar    
   6 C6             1.1853     2.0723    -0.0068 C.ar    
   7 C7             1.1949     3.5447    -0.0019 C.2     
   8 O8             3.5720     2.0757    -0.0045 O.3     
   9 C9             3.5995     3.4176    -0.0008 C.2     
  10 C10            2.4209     4.1828     0.0012 C.2     
  11 C11           -0.0675     4.3164    -0.0007 C.ar    
  12 C12           -0.3981     5.1208    -1.0923 C.ar    
  13 C13           -1.5766     5.8378    -1.0850 C.ar    
  14 C14           -2.4299     5.7611     0.0016 C.ar    
  15 C15           -2.1077     4.9659     1.0871 C.ar    
  16 C16           -0.9355     4.2386     1.0895 C.ar    
  17 O17            4.6761     3.9882     0.0024 O.2     
  18 C18            3.7190    -0.7552    -0.0119 C.3     
  19 O19            1.2168    -2.0497    -0.0197 O.3     
  20 C20           -0.0489    -2.7023     0.0999 C.3     
  21 C21           -0.6866    -2.8147    -1.2609 C.2     
  22 O22           -0.0784    -2.4632    -2.2440 O.2     
  23 O23           -1.9302    -3.3054    -1.3808 O.3     
  24 C24            0.1489    -4.0801     0.6773 C.ar    
  25 C25            0.5114    -6.6081     1.7363 C.ar    
  26 C26            1.4622    -6.0709     0.8888 C.ar    
  27 C27            1.2808    -4.8070     0.3591 C.ar    
  28 C28           -0.7989    -4.6149     1.5298 C.ar    
  29 C29           -0.6175    -5.8788     2.0594 C.ar    
  30 H30           -0.9590     1.8897    -0.0136 H       
  31 H31           -0.9280    -0.5540    -0.0172 H       
  32 H32            2.4726     5.2615     0.0045 H       
  33 H33            0.2674     5.1820    -1.9407 H       
  34 H34           -1.8337     6.4607    -1.9290 H       
  35 H35           -3.3511     6.3247     0.0026 H       
  36 H36           -2.7776     4.9109     1.9325 H       
  37 H37           -0.6875     3.6145     1.9353 H       
  38 H38            4.0352    -0.9341    -1.0395 H       
  39 H39            4.4778    -0.1675     0.5047 H       
  40 H40            3.5879    -1.7090     0.4992 H       
  41 H41           -0.6961    -2.1221     0.7576 H       
  42 H42           -2.2971    -3.3582    -2.2740 H       
  43 H43            0.6531    -7.5955     2.1502 H       
  44 H44            2.3443    -6.6407     0.6364 H       
  45 H45            2.0233    -4.3876    -0.3037 H       
  46 H46           -1.6809    -4.0450     1.7822 H       
  47 H47           -1.3604    -6.2985     2.7216 H       
@<TRIPOS>BOND
   1    1    2 ar
   2    1    6 ar
   3    1   30 1
   4    2    3 ar
   5    2   31 1
   6    3    4 ar
   7    3   19 1
   8    4    5 ar
   9    4   18 1
  10    5    6 ar
  11    5    8 1
  12    6    7 1
  13    7   10 2
  14    7   11 1
  15    8    9 1
  16    9   10 1
  17    9   17 2
  18   10   32 1
  19   11   12 ar
  20   11   16 ar
  21   12   13 ar
  22   12   33 1
  23   13   14 ar
  24   13   34 1
  25   14   15 ar
  26   14   35 1
  27   15   16 ar
  28   15   36 1
  29   16   37 1
  30   18   38 1
  31   18   39 1
  32   18   40 1
  33   19   20 1
  34   20   21 1
  35   20   24 1
  36   20   41 1
  37   21   22 2
  38   21   23 1
  39   23   42 1
  40   24   28 ar
  41   24   27 ar
  42   25   26 ar
  43   25   29 ar
  44   25   43 1
  45   26   27 ar
  46   26   44 1
  47   27   45 1
  48   28   29 ar
  49   28   46 1
  50   29   47 1

#	End of record

