#	Name: ASD11030005
#	Creating user name:	WinNT
#	Creation time:	15. 06. 2019 21:29

#	Modifying user name:	WinNT
#	Modification time:	15. 06. 2019 21:29

#	Program:	/corina/corina34_cracker 3.40 0067  02.08.2006

@<TRIPOS>MOLECULE
ASD11030005
  24   25    0    0    0
SMALL
NO_CHARGES


@<TRIPOS>ATOM
   1 Cl1            0.0021    -0.0041     0.0020 Cl      
   2 C2            -0.0224     1.7987     0.0119 C.3     
   3 C3             1.3914     2.3204     0.0012 C.2     
   4 O4             2.3238     1.5449    -0.0118 O.2     
   5 N5             1.6197     3.6486     0.0062 N.am    
   6 C6             2.9234     4.1296    -0.0037 C.2     
   7 N7             4.0077     3.4074    -0.0184 N.2     
   8 N8             5.1146     4.0115    -0.0263 N.2     
   9 C9             5.0935     5.3148    -0.0193 C.2     
  10 S10            3.4049     5.8274    -0.0063 S.3     
  11 C11            6.2737     6.2049    -0.0265 C.ar    
  12 C12            7.5598     5.6626    -0.0427 C.ar    
  13 C13            8.6574     6.4976    -0.0493 C.ar    
  14 C14            8.4853     7.8726    -0.0394 C.ar    
  15 C15            7.2106     8.4163    -0.0227 C.ar    
  16 C16            6.1060     7.5905    -0.0228 C.ar    
  17 F17            9.5639     8.6861    -0.0455 F       
  18 H18           -0.5496     2.1598    -0.8711 H       
  19 H19           -0.5326     2.1503     0.9087 H       
  20 H20            0.8740     4.2689     0.0166 H       
  21 H21            7.6950     4.5912    -0.0498 H       
  22 H22            9.6530     6.0791    -0.0619 H       
  23 H23            7.0820     9.4886    -0.0147 H       
  24 H24            5.1131     8.0151    -0.0098 H       
@<TRIPOS>BOND
   1    1    2 1
   2    2    3 1
   3    2   18 1
   4    2   19 1
   5    3    4 2
   6    3    5 am
   7    5    6 1
   8    5   20 1
   9    6    7 2
  10    6   10 1
  11    7    8 1
  12    8    9 2
  13    9   10 1
  14    9   11 1
  15   11   12 ar
  16   11   16 ar
  17   12   13 ar
  18   12   21 1
  19   13   14 ar
  20   13   22 1
  21   14   15 ar
  22   14   17 1
  23   15   16 ar
  24   15   23 1
  25   16   24 1

#	End of record

