#	Name: ASD10160203
#	Creating user name:	WinNT
#	Creation time:	15. 06. 2019 21:25

#	Modifying user name:	WinNT
#	Modification time:	15. 06. 2019 21:25

#	Program:	/corina/corina34_cracker 3.40 0067  02.08.2006

@<TRIPOS>MOLECULE
ASD10160203
  32   33    0    0    0
SMALL
NO_CHARGES


@<TRIPOS>ATOM
   1 C1            -0.0336     1.4701     0.0134 C.2     
   2 C2            -0.0095    -0.0043     0.0045 C.ar    
   3 C3             1.2056    -0.6857    -0.1325 C.ar    
   4 C4             1.2229    -2.0661    -0.1398 C.ar    
   5 C5             0.0378    -2.7777    -0.0121 C.ar    
   6 C6            -1.1729    -2.1036     0.1244 C.ar    
   7 C7            -1.1995    -0.7259     0.1386 C.ar    
   8 O8             1.0031     2.0958    -0.0983 O.2     
   9 N9            -1.2052     2.1241     0.1398 N.am    
  10 S10           -1.2323     3.7799     0.1499 S.o2    
  11 O11           -2.6044     4.1069     0.3219 O.2     
  12 O12           -0.2652     4.1403     1.1267 O.2     
  13 C13           -0.6685     4.2519    -1.5084 C.3     
  14 F14           -2.3231    -2.8015     0.2479 F       
  15 F15            2.3591     0.0062    -0.2577 F       
  16 O16            0.0593    -4.1351    -0.0206 O.3     
  17 C17           -0.1519    -4.7681    -1.2022 C.ar    
  18 C18           -0.0382    -6.1521    -1.2720 C.ar    
  19 C19           -0.2563    -6.7852    -2.4840 C.ar    
  20 C20           -0.5818    -6.0081    -3.5875 C.ar    
  21 C21           -0.6774    -4.6384    -3.4447 C.ar    
  22 N22           -0.4692    -4.0635    -2.2753 N.ar    
  23 Cl23           0.3722    -7.0737     0.1408 Cl      
  24 H24            2.1597    -2.5930    -0.2454 H       
  25 H25           -2.1387    -0.2042     0.2490 H       
  26 H26           -2.0326     1.6250     0.2249 H       
  27 H27           -1.3472     3.8383    -2.2543 H       
  28 H28           -0.6552     5.3386    -1.5921 H       
  29 H29            0.3358     3.8623    -1.6753 H       
  30 H30           -0.1749    -7.8587    -2.5691 H       
  31 H31           -0.7579    -6.4703    -4.5475 H       
  32 H32           -0.9304    -4.0297    -4.3003 H       
@<TRIPOS>BOND
   1    1    2 1
   2    1    8 2
   3    1    9 am
   4    2    3 ar
   5    2    7 ar
   6    3    4 ar
   7    3   15 1
   8    4    5 ar
   9    4   24 1
  10    5    6 ar
  11    5   16 1
  12    6    7 ar
  13    6   14 1
  14    7   25 1
  15    9   10 am
  16    9   26 1
  17   10   11 2
  18   10   12 2
  19   10   13 1
  20   13   27 1
  21   13   28 1
  22   13   29 1
  23   16   17 1
  24   17   18 ar
  25   17   22 ar
  26   18   19 ar
  27   18   23 1
  28   19   20 ar
  29   19   30 1
  30   20   21 ar
  31   20   31 1
  32   21   22 ar
  33   21   32 1

#	End of record

