#	Name: ASD10410188
#	Creating user name:	WinNT
#	Creation time:	15. 06. 2019 21:27

#	Modifying user name:	WinNT
#	Modification time:	15. 06. 2019 21:27

#	Program:	/corina/corina34_cracker 3.40 0067  02.08.2006

@<TRIPOS>MOLECULE
ASD10410188
  73   79    0    0    0
SMALL
NO_CHARGES


@<TRIPOS>ATOM
   1 C1             0.5272     1.3107     0.8501 C.ar    
   2 C2             0.3335    -0.0284     1.1618 C.ar    
   3 C3             1.4229    -0.8853     1.2510 C.ar    
   4 C4             2.6984    -0.4057     1.0297 C.ar    
   5 C5             2.8922     0.9338     0.7174 C.ar    
   6 C6             1.8030     1.7905     0.6282 C.ar    
   7 C7             1.2127    -2.3386     1.5899 C.3     
   8 N8             4.1860     1.4205     0.4933 N.pl3   
   9 C9             4.3880     2.4861    -0.3832 C.2     
  10 N10            5.5319     3.0926    -0.5914 N.2     
  11 N11            3.4467     3.0489    -1.1500 N.2     
  12 C12            3.9747     4.0261    -1.8554 C.2     
  13 N13            5.2957     4.0995    -1.5414 N.pl3   
  14 C14            6.2288     4.9948    -2.0591 C.ar    
  15 N15            3.3065     4.8320    -2.7568 N.pl3   
  16 N16           -0.9596    -0.5146     1.3867 N.3     
  17 C17           -1.3602    -1.4540     0.3300 C.3     
  18 C18           -2.7440    -2.0221     0.6537 C.3     
  19 N19           -3.7089    -0.9195     0.7677 N.3     
  20 C20           -3.3083     0.0199     1.8244 C.3     
  21 C21           -1.9245     0.5880     1.5007 C.3     
  22 C22           -3.1815    -2.9695    -0.4652 C.3     
  23 N23            5.8672     5.9015    -2.9579 N.ar    
  24 C24            6.7479     6.7527    -3.4520 C.ar    
  25 N25            8.0069     6.7531    -3.0918 N.ar    
  26 C26            8.4734     5.8685    -2.1824 C.ar    
  27 C27            7.5651     4.9567    -1.6350 C.ar    
  28 C28           -5.0660    -1.4298     1.0037 C.3     
  29 C29           -6.0205    -0.2668     1.4132 C.3     
  30 C30           -5.6680    -1.9862    -0.3069 C.3     
  31 C31           -6.9295    -1.1070    -0.5657 C.3     
  32 C32           -5.7561     0.8466     0.3541 C.3     
  33 C33           -6.3580     0.2902    -0.9564 C.3     
  34 C34           -7.3958    -0.8282     0.9067 C.3     
  35 C35            9.7704     5.7070    -1.6703 C.2     
  36 C36            9.9214     4.7397    -0.7796 C.2     
  37 S37            8.3978     3.9175    -0.4882 S.3     
  38 C38           10.9185     6.5797    -2.1075 C.3     
  39 H39           -0.3203     1.9761     0.7767 H       
  40 H40            3.5455    -1.0719     1.0998 H       
  41 H41            1.9536     2.8319     0.3850 H       
  42 H42            1.1004    -2.9135     0.6707 H       
  43 H43            2.0724    -2.7097     2.1478 H       
  44 H44            0.3131    -2.4438     2.1964 H       
  45 H45            4.9416     1.0163     0.9478 H       
  46 H46            2.3586     4.7004    -2.9152 H       
  47 H47            3.7852     5.5296    -3.2314 H       
  48 H48           -1.3960    -0.9320    -0.6262 H       
  49 H49           -0.6372    -2.2678     0.2736 H       
  50 H50           -2.7018    -2.5673     1.5966 H       
  51 H51           -4.0313     0.8337     1.8808 H       
  52 H52           -3.2725    -0.5021     2.7806 H       
  53 H53           -1.6129     1.2630     2.2978 H       
  54 H54           -1.9667     1.1332     0.5578 H       
  55 H55           -2.4048    -3.7155    -0.6339 H       
  56 H56           -4.1075    -3.4676    -0.1781 H       
  57 H57           -3.3436    -2.4004    -1.3805 H       
  58 H58            6.4169     7.4765    -4.1821 H       
  59 H59           -5.0528    -2.2000     1.7748 H       
  60 H60           -5.9702     0.0461     2.4562 H       
  61 H61           -4.9569    -1.8811    -1.1263 H       
  62 H62           -5.9523    -3.0309    -0.1810 H       
  63 H63           -7.6707    -1.5259    -1.2463 H       
  64 H64           -6.2583     1.7706     0.6407 H       
  65 H65           -4.6853     1.0150     0.2390 H       
  66 H66           -5.5832     0.1850    -1.7158 H       
  67 H67           -7.1562     0.9406    -1.3142 H       
  68 H68           -7.6798    -1.7436     1.4258 H       
  69 H69           -8.1849    -0.0775     0.9504 H       
  70 H70           10.8547     4.4914    -0.2961 H       
  71 H71           10.9796     7.4525    -1.4574 H       
  72 H72           11.8486     6.0147    -2.0453 H       
  73 H73           10.7580     6.9032    -3.1359 H       
@<TRIPOS>BOND
   1    1    2 ar
   2    1    6 ar
   3    1   39 1
   4    2    3 ar
   5    2   16 1
   6    3    4 ar
   7    3    7 1
   8    4    5 ar
   9    4   40 1
  10    5    6 ar
  11    5    8 1
  12    6   41 1
  13    7   42 1
  14    7   43 1
  15    7   44 1
  16    8    9 1
  17    8   45 1
  18    9   10 2
  19    9   11 1
  20   10   13 1
  21   11   12 2
  22   12   13 1
  23   12   15 1
  24   13   14 1
  25   14   23 ar
  26   14   27 ar
  27   15   46 1
  28   15   47 1
  29   16   17 1
  30   16   21 1
  31   17   18 1
  32   17   48 1
  33   17   49 1
  34   18   19 1
  35   18   22 1
  36   18   50 1
  37   19   20 1
  38   19   28 1
  39   20   21 1
  40   20   51 1
  41   20   52 1
  42   21   53 1
  43   21   54 1
  44   22   55 1
  45   22   56 1
  46   22   57 1
  47   23   24 ar
  48   24   25 ar
  49   24   58 1
  50   25   26 ar
  51   26   27 ar
  52   26   35 1
  53   27   37 1
  54   28   29 1
  55   28   30 1
  56   28   59 1
  57   29   32 1
  58   29   34 1
  59   29   60 1
  60   30   31 1
  61   30   61 1
  62   30   62 1
  63   31   33 1
  64   31   34 1
  65   31   63 1
  66   32   33 1
  67   32   64 1
  68   32   65 1
  69   33   66 1
  70   33   67 1
  71   34   68 1
  72   34   69 1
  73   35   36 2
  74   35   38 1
  75   36   37 1
  76   36   70 1
  77   38   71 1
  78   38   72 1
  79   38   73 1

#	End of record

