#	Name: ASD10610038
#	Creating user name:	WinNT
#	Creation time:	15. 06. 2019 21:27

#	Modifying user name:	WinNT
#	Modification time:	15. 06. 2019 21:27

#	Program:	/corina/corina34_cracker 3.40 0067  02.08.2006

@<TRIPOS>MOLECULE
ASD10610038
  64   69    0    0    0
SMALL
NO_CHARGES


@<TRIPOS>ATOM
   1 C1             2.0165     3.5185    -2.7436 C.ar    
   2 N2             3.1343     3.5020    -3.4543 N.ar    
   3 C3             4.1442     2.7238    -3.1119 C.ar    
   4 C4             4.0199     1.9091    -1.9795 C.ar    
   5 C5             2.8211     1.9575    -1.2568 C.ar    
   6 N6             1.8592     2.7635    -1.6665 N.ar    
   7 C7             5.1229     1.0225    -1.5590 C.2     
   8 O8             6.1565     0.9929    -2.1985 O.2     
   9 N9             4.9840     0.2459    -0.4662 N.am    
  10 C10            6.0326    -0.7136    -0.1115 C.3     
  11 C11            7.4409    -0.1651     0.1268 C.3     
  12 C12            6.5983    -0.6490     1.3087 C.3     
  13 C13            5.9144    -2.0723    -0.7527 C.2     
  14 N14            4.6992    -2.6203    -0.9512 N.am    
  15 O15            6.9128    -2.6726    -1.0900 O.2     
  16 C16            4.5873    -3.9847    -1.4728 C.3     
  17 C17            3.2437    -4.6127    -1.0458 C.3     
  18 C18            2.3246    -4.2719    -2.2379 C.3     
  19 C19            3.2522    -4.1325    -3.4262 C.ar    
  20 C20            2.9776    -4.1487    -4.7813 C.ar    
  21 C21            4.0088    -3.9985    -5.7051 C.ar    
  22 C22            5.3184    -3.8324    -5.2564 C.ar    
  23 C23            5.5825    -3.8181    -3.9036 C.ar    
  24 C24            4.5535    -3.9673    -2.9865 C.ar    
  25 C25            3.7157    -4.0157    -7.1582 C.ar    
  26 C26            4.2123    -2.9994    -7.9903 C.ar    
  27 C27            3.9297    -3.0266    -9.3554 C.ar    
  28 C28            3.1642    -4.0510    -9.8818 C.ar    
  29 C29            2.6753    -5.0523    -9.0597 C.ar    
  30 C30            2.9519    -5.0420    -7.7053 C.ar    
  31 O31            6.0433    -0.7593    -6.0278 O.3     
  32 N32            5.3696    -1.7585    -6.1648 N.2     
  33 C33            5.0317    -1.9039    -7.4206 C.2     
  34 N34            5.5711    -0.8668    -8.1014 N.2     
  35 C35            6.2074    -0.1521    -7.2073 C.2     
  36 C36            6.9795     1.1171    -7.4606 C.3     
  37 F37            4.4031    -2.0526   -10.1632 F       
  38 Cl38           1.7153    -6.3314    -9.7348 Cl      
  39 O39            1.0077     4.3349    -3.1259 O.3     
  40 C40           -0.1780     4.3184    -2.3284 C.3     
  41 H41            5.0524     2.7153    -3.6963 H       
  42 H42            2.6856     1.3446    -0.3780 H       
  43 H43            4.1898     0.3223     0.0853 H       
  44 H44            8.2819    -0.7871    -0.1798 H       
  45 H45            7.5872     0.9097     0.0196 H       
  46 H46            6.1902     0.1075     1.9790 H       
  47 H47            6.8849    -1.5893     1.7795 H       
  48 H48            3.8987    -2.1112    -0.7488 H       
  49 H49            5.4189    -4.5946    -1.1201 H       
  50 H50            3.3407    -5.6919    -0.9275 H       
  51 H51            2.8753    -4.1529    -0.1287 H       
  52 H52            1.6110    -5.0781    -2.4077 H       
  53 H53            1.8004    -3.3339    -2.0552 H       
  54 H54            1.9615    -4.2777    -5.1239 H       
  55 H55            6.1236    -3.7157    -5.9667 H       
  56 H56            6.5969    -3.6898    -3.5560 H       
  57 H57            2.9462    -4.0699   -10.9394 H       
  58 H58            2.5711    -5.8286    -7.0708 H       
  59 H59            7.3977     1.4814    -6.5222 H       
  60 H60            7.7871     0.9167    -8.1647 H       
  61 H61            6.3123     1.8711    -7.8780 H       
  62 H62           -0.5997     3.3133    -2.3253 H       
  63 H63            0.0664     4.6130    -1.3078 H       
  64 H64           -0.9050     5.0162    -2.7438 H       
@<TRIPOS>BOND
   1    1    2 ar
   2    1    6 ar
   3    1   39 1
   4    2    3 ar
   5    3    4 ar
   6    3   41 1
   7    4    5 ar
   8    4    7 1
   9    5    6 ar
  10    5   42 1
  11    7    8 2
  12    7    9 am
  13    9   10 1
  14    9   43 1
  15   10   11 1
  16   10   12 1
  17   10   13 1
  18   11   12 1
  19   11   44 1
  20   11   45 1
  21   12   46 1
  22   12   47 1
  23   13   14 am
  24   13   15 2
  25   14   16 1
  26   14   48 1
  27   16   17 1
  28   16   24 1
  29   16   49 1
  30   17   18 1
  31   17   50 1
  32   17   51 1
  33   18   19 1
  34   18   52 1
  35   18   53 1
  36   19   20 ar
  37   19   24 ar
  38   20   21 ar
  39   20   54 1
  40   21   22 ar
  41   21   25 1
  42   22   23 ar
  43   22   55 1
  44   23   24 ar
  45   23   56 1
  46   25   26 ar
  47   25   30 ar
  48   26   27 ar
  49   26   33 1
  50   27   28 ar
  51   27   37 1
  52   28   29 ar
  53   28   57 1
  54   29   30 ar
  55   29   38 1
  56   30   58 1
  57   31   32 1
  58   31   35 1
  59   32   33 2
  60   33   34 1
  61   34   35 2
  62   35   36 1
  63   36   59 1
  64   36   60 1
  65   36   61 1
  66   39   40 1
  67   40   62 1
  68   40   63 1
  69   40   64 1

#	End of record

