#	Name: ASD11920024
#	Creating user name:	WinNT
#	Creation time:	15. 06. 2019 21:29

#	Modifying user name:	WinNT
#	Modification time:	15. 06. 2019 21:29

#	Program:	/corina/corina34_cracker 3.40 0067  02.08.2006

@<TRIPOS>MOLECULE
ASD11920024
  41   42    0    0    0
SMALL
NO_CHARGES


@<TRIPOS>ATOM
   1 N1             0.0020     1.3525    -0.1208 N.am    
   2 C2             1.3172    -0.7397    -0.0145 C.3     
   3 C3             0.0088     0.0056    -0.0743 C.2     
   4 O4            -1.0381    -0.6067    -0.0805 O.2     
   5 Cl5            0.2145    -1.7264     2.6088 Cl      
   6 Cl6            3.7625     0.9631    -0.4524 Cl      
   7 C7             2.0205    -5.3844     0.4524 C.3     
   8 C8             0.1988    -2.1164    -4.8104 C.3     
   9 C9             0.6302    -2.1796    -2.3474 C.ar    
  10 C10            0.2958    -2.8585    -3.5024 C.ar    
  11 C11            0.0495    -4.2188    -3.4600 C.ar    
  12 C12            0.1370    -4.9034    -2.2620 C.ar    
  13 C13            0.4718    -4.2306    -1.1031 C.ar    
  14 C14            0.7194    -2.8645    -1.1420 C.ar    
  15 C15            2.0733    -0.3289     1.2227 C.ar    
  16 C16            1.6356    -0.7391     2.4692 C.ar    
  17 C17            2.3304    -0.3620     3.6047 C.ar    
  18 C18            3.4616     0.4244     3.4938 C.ar    
  19 C19            3.8994     0.8346     2.2485 C.ar    
  20 C20            3.2084     0.4538     1.1119 C.ar    
  21 C21            0.5669    -4.9777     0.2022 C.3     
  22 N22            1.0569    -2.1808     0.0283 N.pl3   
  23 O23           -0.2515    -6.1476     0.1422 O.3     
  24 H24            0.8393     1.8422    -0.1158 H       
  25 H25           -0.8401     1.8321    -0.1633 H       
  26 H26            1.9105    -0.5038    -0.8979 H       
  27 H27            2.6447    -4.4920     0.4981 H       
  28 H28            2.0893    -5.9247     1.3965 H       
  29 H29            2.3630    -6.0261    -0.3593 H       
  30 H30            1.1703    -2.1228    -5.3047 H       
  31 H31           -0.5377    -2.6025    -5.4502 H       
  32 H32           -0.1063    -1.0870    -4.6223 H       
  33 H33            0.8264    -1.1181    -2.3819 H       
  34 H34           -0.2122    -4.7474    -4.3648 H       
  35 H35           -0.0567    -5.9655    -2.2323 H       
  36 H36            1.9886    -0.6819     4.5780 H       
  37 H37            4.0035     0.7188     4.3804 H       
  38 H38            4.7832     1.4494     2.1625 H       
  39 H39            0.2243    -4.3359     1.0140 H       
  40 H40            1.1189    -2.6601     0.8693 H       
  41 H41           -0.0034    -6.7656    -0.5589 H       
@<TRIPOS>BOND
   1    1    3 am
   2    1   24 1
   3    1   25 1
   4    2    3 1
   5    2   15 1
   6    2   22 1
   7    2   26 1
   8    3    4 2
   9    5   16 1
  10    6   20 1
  11    7   21 1
  12    7   27 1
  13    7   28 1
  14    7   29 1
  15    8   10 1
  16    8   30 1
  17    8   31 1
  18    8   32 1
  19    9   10 ar
  20    9   14 ar
  21    9   33 1
  22   10   11 ar
  23   11   12 ar
  24   11   34 1
  25   12   13 ar
  26   12   35 1
  27   13   14 ar
  28   13   21 1
  29   14   22 1
  30   15   16 ar
  31   15   20 ar
  32   16   17 ar
  33   17   18 ar
  34   17   36 1
  35   18   19 ar
  36   18   37 1
  37   19   20 ar
  38   19   38 1
  39   21   23 1
  40   21   39 1
  41   22   40 1
  42   23   41 1

#	End of record

