#	Name: ASD11740001
#	Creating user name:	WinNT
#	Creation time:	15. 06. 2019 21:29

#	Modifying user name:	WinNT
#	Modification time:	15. 06. 2019 21:29

#	Program:	/corina/corina34_cracker 3.40 0067  02.08.2006

@<TRIPOS>MOLECULE
ASD11740001
  41   42    0    0    0
SMALL
NO_CHARGES


@<TRIPOS>ATOM
   1 C1             0.4056     1.8007    -0.1823 C.ar    
   2 C2             0.2514     0.4318    -0.1082 C.ar    
   3 C3             1.3574    -0.3930     0.0255 C.ar    
   4 C4             2.6239     0.1454     0.0858 C.ar    
   5 C5             2.7971     1.5301     0.0120 C.ar    
   6 C6             1.6751     2.3625    -0.1233 C.ar    
   7 N7             1.8330     3.7403    -0.1982 N.am    
   8 S8             0.7138     4.7411     0.5004 S.o2    
   9 O9             1.2464     6.0455     0.3155 O.2     
  10 O10           -0.5179     4.3612    -0.0977 O.2     
  11 C11            0.7351     4.2880     2.2568 C.3     
  12 C12            4.1495     2.1129     0.0764 C.2     
  13 N13            5.2239     1.3097     0.2067 N.am    
  14 O14            4.2958     3.3185     0.0118 O.2     
  15 C15            6.5142     1.8519     0.1534 C.ar    
  16 C16            7.5803     1.1772     0.7441 C.ar    
  17 C17            8.8545     1.7184     0.6882 C.ar    
  18 C18            9.0657     2.9253     0.0479 C.ar    
  19 C19            8.0079     3.5958    -0.5383 C.ar    
  20 C20            6.7350     3.0596    -0.4928 C.ar    
  21 O21            7.3708    -0.0093     1.3744 O.3     
  22 C22            8.5106    -0.6444     1.9572 C.3     
  23 C23            8.0817    -1.9571     2.6158 C.3     
  24 H24           -0.4610     2.4361    -0.2909 H       
  25 H25           -0.7374    -0.0001    -0.1541 H       
  26 H26            1.2255    -1.4633     0.0830 H       
  27 H27            3.4821    -0.5019     0.1903 H       
  28 H28            2.5988     4.1163    -0.6597 H       
  29 H29            1.7342     4.4493     2.6616 H       
  30 H30            0.0191     4.9048     2.7999 H       
  31 H31            0.4649     3.2375     2.3643 H       
  32 H32            5.1036     0.3561     0.3375 H       
  33 H33            9.6828     1.1975     1.1454 H       
  34 H34           10.0596     3.3458     0.0056 H       
  35 H35            8.1777     4.5387    -1.0368 H       
  36 H36            5.9107     3.5854    -0.9514 H       
  37 H37            9.2477    -0.8511     1.1813 H       
  38 H38            8.9483     0.0129     2.7084 H       
  39 H39            7.6440    -2.6145     1.8646 H       
  40 H40            8.9511    -2.4416     3.0604 H       
  41 H41            7.3446    -1.7505     3.3917 H       
@<TRIPOS>BOND
   1    1    2 ar
   2    1    6 ar
   3    1   24 1
   4    2    3 ar
   5    2   25 1
   6    3    4 ar
   7    3   26 1
   8    4    5 ar
   9    4   27 1
  10    5    6 ar
  11    5   12 1
  12    6    7 1
  13    7    8 am
  14    7   28 1
  15    8    9 2
  16    8   10 2
  17    8   11 1
  18   11   29 1
  19   11   30 1
  20   11   31 1
  21   12   13 am
  22   12   14 2
  23   13   15 1
  24   13   32 1
  25   15   16 ar
  26   15   20 ar
  27   16   17 ar
  28   16   21 1
  29   17   18 ar
  30   17   33 1
  31   18   19 ar
  32   18   34 1
  33   19   20 ar
  34   19   35 1
  35   20   36 1
  36   21   22 1
  37   22   23 1
  38   22   37 1
  39   22   38 1
  40   23   39 1
  41   23   40 1
  42   23   41 1

#	End of record

