#	Name: ASD10160259
#	Creating user name:	WinNT
#	Creation time:	15. 06. 2019 21:25

#	Modifying user name:	WinNT
#	Modification time:	15. 06. 2019 21:25

#	Program:	/corina/corina34_cracker 3.40 0067  02.08.2006

@<TRIPOS>MOLECULE
ASD10160259
  36   37    0    0    0
SMALL
NO_CHARGES


@<TRIPOS>ATOM
   1 C1             0.3705     1.1003     1.9617 C.2     
   2 C2             0.2882    -0.2777     1.4393 C.ar    
   3 C3             1.3726    -0.8330     0.7540 C.ar    
   4 C4             1.2914    -2.1204     0.2677 C.ar    
   5 C5             0.1312    -2.8660     0.4590 C.ar    
   6 C6            -0.9476    -2.3158     1.1398 C.ar    
   7 C7            -0.8714    -1.0320     1.6335 C.ar    
   8 O8             1.3823     1.7538     1.7961 O.2     
   9 N9            -0.6781     1.6361     2.6173 N.am    
  10 S10           -0.5857     3.1822     3.2034 S.o2    
  11 O11           -1.8381     3.3903     3.8418 O.2     
  12 O12            0.6267     3.2044     3.9441 O.2     
  13 C13           -0.4460     4.2202     1.7223 C.3     
  14 O14            0.0538    -4.1332    -0.0212 O.3     
  15 C15           -1.3996    -5.5720     1.2011 C.ar    
  16 C16           -1.1332    -4.7869     0.0907 C.ar    
  17 C17           -2.0962    -4.6754    -0.9085 C.ar    
  18 C18           -3.2899    -5.3579    -0.7523 C.ar    
  19 C19           -3.4864    -6.1259     0.3877 C.ar    
  20 N20           -2.5491    -6.2093     1.3167 N.ar    
  21 O21           -4.6539    -6.7991     0.5501 O.3     
  22 C22           -4.7965    -7.5719     1.7437 C.3     
  23 F23            2.3382    -2.6588    -0.3952 F       
  24 H24            2.2723    -0.2544     0.6054 H       
  25 H25           -1.8459    -2.8973     1.2862 H       
  26 H26           -1.7092    -0.6074     2.1667 H       
  27 H27           -1.4868     1.1162     2.7459 H       
  28 H28           -1.3240     4.0753     1.0929 H       
  29 H29           -0.3792     5.2673     2.0175 H       
  30 H30            0.4494     3.9415     1.1666 H       
  31 H31           -0.6560    -5.6672     1.9785 H       
  32 H32           -1.9160    -4.0703    -1.7847 H       
  33 H33           -4.0592    -5.2937    -1.5076 H       
  34 H34           -4.7120    -6.9184     2.6119 H       
  35 H35           -5.7725    -8.0573     1.7478 H       
  36 H36           -4.0138    -8.3296     1.7816 H       
@<TRIPOS>BOND
   1    1    2 1
   2    1    8 2
   3    1    9 am
   4    2    3 ar
   5    2    7 ar
   6    3    4 ar
   7    3   24 1
   8    4    5 ar
   9    4   23 1
  10    5    6 ar
  11    5   14 1
  12    6    7 ar
  13    6   25 1
  14    7   26 1
  15    9   10 am
  16    9   27 1
  17   10   11 2
  18   10   12 2
  19   10   13 1
  20   13   28 1
  21   13   29 1
  22   13   30 1
  23   14   16 1
  24   15   16 ar
  25   15   20 ar
  26   15   31 1
  27   16   17 ar
  28   17   18 ar
  29   17   32 1
  30   18   19 ar
  31   18   33 1
  32   19   20 ar
  33   19   21 1
  34   21   22 1
  35   22   34 1
  36   22   35 1
  37   22   36 1

#	End of record

