#	Name: ASD15280003
#	Creating user name:	WinNT
#	Creation time:	15. 06. 2019 21:31

#	Modifying user name:	WinNT
#	Modification time:	15. 06. 2019 21:31

#	Program:	/corina/corina34_cracker 3.40 0067  02.08.2006

@<TRIPOS>MOLECULE
ASD15280003
  40   42    0    0    0
SMALL
NO_CHARGES


@<TRIPOS>ATOM
   1 C1             0.1417     1.3792     0.1497 C.ar    
   2 C2             0.1244    -0.0025     0.1459 C.ar    
   3 C3             1.3074    -0.7092     0.0342 C.ar    
   4 C4             2.5099    -0.0338    -0.0738 C.ar    
   5 C5             2.5291     1.3494    -0.0702 C.ar    
   6 C6             1.3446     2.0569     0.0416 C.ar    
   7 F7             1.3620     3.4078     0.0448 F       
   8 Cl8            3.9948    -0.9221    -0.2134 Cl      
   9 C9             1.2870    -2.2160     0.0308 C.3     
  10 C10            1.4665    -2.7139     1.4367 C.2     
  11 C11            0.4239    -3.1967     2.1398 C.2     
  12 N12           -0.8185    -3.2450     1.5632 N.pl3   
  13 C13           -0.9379    -3.1444     0.1916 C.2     
  14 N14            0.0245    -2.6753    -0.5351 N.2     
  15 C15            2.7488    -2.6757     2.0305 C.2     
  16 O16            3.0599    -1.6931     2.9017 O.3     
  17 C17            4.3737    -1.7162     3.4636 C.3     
  18 O18            3.5722    -3.5287     1.7561 O.2     
  19 C19            0.6226    -3.6816     3.5527 C.3     
  20 C20           -2.1923    -3.5825    -0.4612 C.ar    
  21 N21           -3.1844    -4.0654     0.2768 N.ar    
  22 C22           -4.3152    -4.4656    -0.2627 C.ar    
  23 C23           -4.5145    -4.3973    -1.6344 C.ar    
  24 C24           -3.5034    -3.8989    -2.4448 C.ar    
  25 C25           -2.3240    -3.4790    -1.8473 C.ar    
  26 F26           -1.3136    -2.9867    -2.5969 F       
  27 F27           -5.6806    -4.8122    -2.1758 F       
  28 H28           -1.6090    -3.3497     2.1155 H       
  29 H29           -0.7832     1.9306     0.2324 H       
  30 H30           -0.8138    -0.5307     0.2306 H       
  31 H31            3.4677     1.8770    -0.1545 H       
  32 H32            2.1079    -2.5827    -0.5855 H       
  33 H33            4.5191    -2.6484     4.0093 H       
  34 H34            5.1118    -1.6438     2.6648 H       
  35 H35            4.4922    -0.8738     4.1451 H       
  36 H36            0.5607    -2.8369     4.2388 H       
  37 H37           -0.1517    -4.4079     3.7999 H       
  38 H38            1.6025    -4.1507     3.6415 H       
  39 H39           -5.0994    -4.8531     0.3707 H       
  40 H40           -3.6337    -3.8358    -3.5150 H       
@<TRIPOS>BOND
   1    1    2 ar
   2    1    6 ar
   3    1   29 1
   4    2    3 ar
   5    2   30 1
   6    3    4 ar
   7    3    9 1
   8    4    5 ar
   9    4    8 1
  10    5    6 ar
  11    5   31 1
  12    6    7 1
  13    9   10 1
  14    9   14 1
  15    9   32 1
  16   10   11 2
  17   10   15 1
  18   11   12 1
  19   11   19 1
  20   12   13 1
  21   12   28 1
  22   13   14 2
  23   13   20 1
  24   15   16 1
  25   15   18 2
  26   16   17 1
  27   17   33 1
  28   17   34 1
  29   17   35 1
  30   19   36 1
  31   19   37 1
  32   19   38 1
  33   20   21 ar
  34   20   25 ar
  35   21   22 ar
  36   22   23 ar
  37   22   39 1
  38   23   24 ar
  39   23   27 1
  40   24   25 ar
  41   24   40 1
  42   25   26 1

#	End of record

