#	Name: ASD13490092
#	Creating user name:	WinNT
#	Creation time:	15. 06. 2019 21:30

#	Modifying user name:	WinNT
#	Modification time:	15. 06. 2019 21:30

#	Program:	/corina/corina34_cracker 3.40 0067  02.08.2006

@<TRIPOS>MOLECULE
ASD13490092
  66   69    0    0    0
SMALL
NO_CHARGES


@<TRIPOS>ATOM
   1 C1             0.0534     0.9870     0.0764 C.3     
   2 C2             0.1831    -0.5333    -0.0374 C.3     
   3 C3             0.9589    -1.0708     1.1667 C.3     
   4 C4             2.3524    -0.4401     1.1987 C.3     
   5 C5             2.2224     1.0803     1.3124 C.3     
   6 C6             1.4481     1.6159     0.1056 C.3     
   7 C7             2.1969     1.2544    -1.1778 C.3     
   8 C8             3.6167     1.7096     1.3440 C.3     
   9 C9             4.3660     1.3579     0.0571 C.3     
  10 C10            3.5920     1.8977    -1.1465 C.3     
  11 C11            2.1657     1.4454    -3.7001 C.3     
  12 C12            1.3971     1.7083    -2.3941 C.3     
  13 C13            3.4920     2.1724    -3.5968 C.3     
  14 C14            4.4343     2.0448    -4.7891 C.3     
  15 C15            4.2920     1.5181    -2.4378 C.3     
  16 C16            5.6858     2.1208    -2.6449 C.3     
  17 C17            5.8615     2.0682    -4.1872 C.3     
  18 C18            4.2426     3.2240    -5.7449 C.3     
  19 C19            5.2926     3.1560    -6.8557 C.3     
  20 C20            5.1812     4.3999    -7.7395 C.3     
  21 C21            6.2154     4.3330    -8.8337 C.2     
  22 O22            6.9646     3.3874    -8.8997 O.2     
  23 O23            6.3042     5.3238    -9.7348 O.3     
  24 C24            1.3205     3.1367     0.2145 C.3     
  25 H25            1.6879     1.3321     2.2284 H       
  26 H26            3.4965     2.9806    -1.0670 H       
  27 C27            3.2485     3.6506    -3.2860 C.3     
  28 H28            2.3091     0.1714    -1.2271 H       
  29 H29            4.3270     0.4340    -2.5456 H       
  30 H30            4.2594     1.1033    -5.3097 H       
  31 C31            2.8436     3.1590    -6.3609 C.3     
  32 H32           -0.5000     1.3698    -0.7811 H       
  33 H33           -0.4782     1.2387     0.9941 H       
  34 H34           -0.8100    -0.9820    -0.0595 H       
  35 H35            0.7159    -0.7848    -0.9545 H       
  36 H36            0.4255    -0.8203     2.0837 H       
  37 H37            1.0520    -2.1537     1.0849 H       
  38 H38            2.9046    -0.8227     2.0571 H       
  39 H39            2.8861    -0.6915     0.2822 H       
  40 H40            3.5246     2.7926     1.4261 H       
  41 H41            4.1688     1.3262     2.2020 H       
  42 H42            5.3594     1.8059     0.0810 H       
  43 H43            4.4575     0.2749    -0.0257 H       
  44 H44            2.3375     0.3758    -3.8204 H       
  45 H45            1.5979     1.8285    -4.5480 H       
  46 H46            0.4515     1.1668    -2.4215 H       
  47 H47            1.1933     2.7757    -2.3088 H       
  48 H48            5.7178     3.1502    -2.2879 H       
  49 H49            6.4451     1.5158    -2.1493 H       
  50 H50            6.4023     1.1656    -4.4715 H       
  51 H51            6.3988     2.9514    -4.5328 H       
  52 H52            4.3547     4.1588    -5.1957 H       
  53 H53            6.2876     3.1128    -6.4129 H       
  54 H54            5.1248     2.2646    -7.4602 H       
  55 H55            4.1861     4.4432    -8.1823 H       
  56 H56            5.3490     5.2913    -7.1351 H       
  57 H57            6.9831     5.2365   -10.4179 H       
  58 H58            0.7879     3.3919     1.1306 H       
  59 H59            2.3142     3.5841     0.2353 H       
  60 H60            0.7685     3.5174    -0.6448 H       
  61 H61            2.6452     3.7372    -2.3824 H       
  62 H62            4.2043     4.1521    -3.1342 H       
  63 H63            2.7227     4.1154    -4.1200 H       
  64 H64            2.7578     2.2617    -6.9737 H       
  65 H65            2.0979     3.1290    -5.5664 H       
  66 H66            2.6784     4.0398    -6.9812 H       
@<TRIPOS>BOND
   1    1    2 1
   2    1    6 1
   3    1   32 1
   4    1   33 1
   5    2    3 1
   6    2   34 1
   7    2   35 1
   8    3    4 1
   9    3   36 1
  10    3   37 1
  11    4    5 1
  12    4   38 1
  13    4   39 1
  14    5    6 1
  15    5    8 1
  16    5   25 1
  17    6    7 1
  18    6   24 1
  19    7   10 1
  20    7   28 1
  21    7   12 1
  22    8    9 1
  23    8   40 1
  24    8   41 1
  25    9   10 1
  26    9   42 1
  27    9   43 1
  28   10   15 1
  29   10   26 1
  30   11   12 1
  31   11   13 1
  32   11   44 1
  33   11   45 1
  34   12   46 1
  35   12   47 1
  36   13   14 1
  37   13   27 1
  38   13   15 1
  39   14   17 1
  40   14   18 1
  41   14   30 1
  42   15   16 1
  43   15   29 1
  44   16   17 1
  45   16   48 1
  46   16   49 1
  47   17   50 1
  48   17   51 1
  49   18   19 1
  50   18   31 1
  51   18   52 1
  52   19   20 1
  53   19   53 1
  54   19   54 1
  55   20   21 1
  56   20   55 1
  57   20   56 1
  58   21   22 2
  59   21   23 1
  60   23   57 1
  61   24   58 1
  62   24   59 1
  63   24   60 1
  64   27   61 1
  65   27   62 1
  66   27   63 1
  67   31   64 1
  68   31   65 1
  69   31   66 1

#	End of record

