#	Name: ASD10950064
#	Creating user name:	WinNT
#	Creation time:	15. 06. 2019 21:28

#	Modifying user name:	WinNT
#	Modification time:	15. 06. 2019 21:28

#	Program:	/corina/corina34_cracker 3.40 0067  02.08.2006

@<TRIPOS>MOLECULE
ASD10950064
  49   51    0    0    0
SMALL
NO_CHARGES


@<TRIPOS>ATOM
   1 C1            -0.0176     1.4478     0.0100 C.3     
   2 O2             0.0021    -0.0041     0.0020 O.3     
   3 C3            -1.1897    -0.6319     0.0100 C.2     
   4 O4            -2.2173     0.0157     0.0233 O.2     
   5 C5            -1.2470    -2.1081     0.0026 C.ar    
   6 C6            -2.4807    -2.7620     0.0109 C.ar    
   7 C7            -2.5269    -4.1407     0.0040 C.ar    
   8 C8            -1.3545    -4.8753    -0.0111 C.ar    
   9 C9            -0.1286    -4.2337    -0.0194 C.ar    
  10 C10           -0.0679    -2.8555    -0.0184 C.ar    
  11 C11           -1.4129    -6.3812    -0.0181 C.3     
  12 N12           -0.3863    -6.9216    -0.9166 N.am    
  13 C13           -0.2836    -6.6717    -2.3565 C.3     
  14 C14            0.5839    -5.4349    -2.5989 C.3     
  15 C15            0.6895    -5.1779    -4.0801 C.ar    
  16 C16           -0.2365    -4.3664    -4.7085 C.ar    
  17 C17           -0.1397    -4.1306    -6.0671 C.ar    
  18 C18            0.8834    -4.7059    -6.7973 C.ar    
  19 C19            1.8100    -5.5166    -6.1687 C.ar    
  20 C20            1.7157    -5.7489    -4.8093 C.ar    
  21 C21            0.4443    -7.6865    -0.1853 C.2     
  22 O22            1.4076    -8.2842    -0.6219 O.2     
  23 C23            0.0114    -7.6915     1.2295 C.2     
  24 C24           -1.0960    -6.9195     1.3576 C.2     
  25 C25           -1.8158    -6.6669     2.5494 C.2     
  26 O26           -1.4525    -7.1651     3.5949 O.2     
  27 C27           -3.0333    -5.7793     2.5206 C.3     
  28 O28            0.6224    -8.3585     2.2339 O.3     
  29 H29            1.0050     1.8251     0.0023 H       
  30 H30           -0.5448     1.8089    -0.8731 H       
  31 H31           -0.5278     1.7993     0.9068 H       
  32 H32           -3.3966    -2.1898     0.0231 H       
  33 H33           -3.4804    -4.6478     0.0107 H       
  34 H34            0.7828    -4.8131    -0.0308 H       
  35 H35            0.8896    -2.3559    -0.0249 H       
  36 H36           -2.4010    -6.7159    -0.3339 H       
  37 H37            0.1700    -7.5348    -2.8437 H       
  38 H38           -1.2789    -6.5037    -2.7680 H       
  39 H39            0.1303    -4.5718    -2.1118 H       
  40 H40            1.5792    -5.6029    -2.1874 H       
  41 H41           -1.0359    -3.9170    -4.1380 H       
  42 H42           -0.8636    -3.4973    -6.5582 H       
  43 H43            0.9587    -4.5223    -7.8589 H       
  44 H44            2.6092    -5.9664    -6.7392 H       
  45 H45            2.4396    -6.3823    -4.3181 H       
  46 H46           -3.2026    -5.4277     1.5029 H       
  47 H47           -3.9023    -6.3434     2.8594 H       
  48 H48           -2.8757    -4.9248     3.1787 H       
  49 H49            1.4020    -8.8590     1.9566 H       
@<TRIPOS>BOND
   1    1    2 1
   2    1   29 1
   3    1   30 1
   4    1   31 1
   5    2    3 1
   6    3    4 2
   7    3    5 1
   8    5    6 ar
   9    5   10 ar
  10    6    7 ar
  11    6   32 1
  12    7    8 ar
  13    7   33 1
  14    8    9 ar
  15    8   11 1
  16    9   10 ar
  17    9   34 1
  18   10   35 1
  19   11   12 1
  20   11   24 1
  21   11   36 1
  22   12   13 1
  23   12   21 am
  24   13   14 1
  25   13   37 1
  26   13   38 1
  27   14   15 1
  28   14   39 1
  29   14   40 1
  30   15   16 ar
  31   15   20 ar
  32   16   17 ar
  33   16   41 1
  34   17   18 ar
  35   17   42 1
  36   18   19 ar
  37   18   43 1
  38   19   20 ar
  39   19   44 1
  40   20   45 1
  41   21   22 2
  42   21   23 1
  43   23   24 2
  44   23   28 1
  45   24   25 1
  46   25   26 2
  47   25   27 1
  48   27   46 1
  49   27   47 1
  50   27   48 1
  51   28   49 1

#	End of record

