#	Name: ASD10160009
#	Creating user name:	WinNT
#	Creation time:	15. 06. 2019 21:25

#	Modifying user name:	WinNT
#	Modification time:	15. 06. 2019 21:25

#	Program:	/corina/corina34_cracker 3.40 0067  02.08.2006

@<TRIPOS>MOLECULE
ASD10160009
  39   42    0    0    0
SMALL
NO_CHARGES


@<TRIPOS>ATOM
   1 C1            -0.0167     1.3823     0.0096 C.ar    
   2 C2             0.0021    -0.0041     0.0020 C.ar    
   3 C3            -1.1847    -0.7134     0.0096 C.ar    
   4 C4            -2.3954    -0.0412     0.0247 C.ar    
   5 C5            -2.4168     1.3516     0.0324 C.ar    
   6 C6            -1.2267     2.0599     0.0306 C.ar    
   7 O7             1.1517     2.0779     0.0022 O.3     
   8 C8             1.0859    -2.2510    -0.0033 C.3     
   9 C9             1.3178    -0.7387    -0.0150 C.3     
  10 O10           -3.6831    -0.4970     0.0346 O.3     
  11 C11           -4.4833     0.6216     0.4606 C.3     
  12 O12           -3.7167     1.7680     0.0469 O.3     
  13 C13            2.1328    -0.3373    -1.2228 C.ar    
  14 C14            3.3023     0.2314    -0.7336 C.ar    
  15 N15            3.2955     0.2235     0.6616 N.am    
  16 C16            2.1722    -0.3239     1.1639 C.2     
  17 C17            1.9119    -0.4402    -2.5774 C.ar    
  18 C18            2.8623     0.0267    -3.4693 C.ar    
  19 C19            4.0302     0.5947    -2.9949 C.ar    
  20 C20            4.2540     0.6990    -1.6373 C.ar    
  21 O21            1.8998    -0.4602     2.3379 O.2     
  22 C22            4.3847     0.7520     1.4865 C.3     
  23 O23            3.9924     2.0067     2.0467 O.3     
  24 O24            0.3523    -2.6114     1.1689 O.3     
  25 H25           -1.1675    -1.7932     0.0033 H       
  26 H26           -1.2409     3.1398     0.0369 H       
  27 H27            1.4812     2.2839    -0.8833 H       
  28 H28            0.5196    -2.5387    -0.8891 H       
  29 H29            2.0466    -2.7659    -0.0033 H       
  30 H30           -5.4534     0.6099    -0.0364 H       
  31 H31           -4.6066     0.6139     1.5436 H       
  32 H32            0.9986    -0.8848    -2.9441 H       
  33 H33            2.6920    -0.0530    -4.5328 H       
  34 H34            4.7714     0.9588    -3.6908 H       
  35 H35            5.1687     1.1442    -1.2746 H       
  36 H36            4.6064     0.0490     2.2895 H       
  37 H37            5.2728     0.8912     0.8700 H       
  38 H38            4.6668     2.4159     2.6061 H       
  39 H39            0.1688    -3.5579     1.2425 H       
@<TRIPOS>BOND
   1    1    2 ar
   2    1    7 1
   3    1    6 ar
   4    2    3 ar
   5    2    9 1
   6    3    4 ar
   7    3   25 1
   8    4    5 ar
   9    4   10 1
  10    5    6 ar
  11    5   12 1
  12    6   26 1
  13    7   27 1
  14    8   24 1
  15    8    9 1
  16    8   28 1
  17    8   29 1
  18    9   13 1
  19    9   16 1
  20   10   11 1
  21   11   12 1
  22   11   30 1
  23   11   31 1
  24   13   14 ar
  25   13   17 ar
  26   14   15 1
  27   14   20 ar
  28   15   16 am
  29   15   22 1
  30   16   21 2
  31   17   18 ar
  32   17   32 1
  33   18   19 ar
  34   18   33 1
  35   19   20 ar
  36   19   34 1
  37   20   35 1
  38   22   23 1
  39   22   36 1
  40   22   37 1
  41   23   38 1
  42   24   39 1

#	End of record

