#	Name: ASD11400002
#	Creating user name:	WinNT
#	Creation time:	15. 06. 2019 21:29

#	Modifying user name:	WinNT
#	Modification time:	15. 06. 2019 21:29

#	Program:	/corina/corina34_cracker 3.40 0067  02.08.2006

@<TRIPOS>MOLECULE
ASD11400002
  56   58    0    0    0
SMALL
NO_CHARGES


@<TRIPOS>ATOM
   1 C1             0.0470     1.4855    -0.0195 C.3     
   2 O2             0.0552     0.0565    -0.0151 O.3     
   3 C3             0.6485    -0.5603    -1.0708 C.ar    
   4 C4             0.6926    -1.9456    -1.1311 C.ar    
   5 C5             1.2963    -2.5702    -2.2053 C.ar    
   6 C6             1.8563    -1.8159    -3.2197 C.ar    
   7 C7             1.8142    -0.4351    -3.1617 C.ar    
   8 C8             1.2062     0.1943    -2.0927 C.ar    
   9 S9             2.6256    -2.6156    -4.5884 S.o2    
  10 O10            3.5462    -1.6806    -5.1339 O.2     
  11 O11            3.0064    -3.9077    -4.1360 O.2     
  12 N12            1.4582    -2.8484    -5.7396 N.am    
  13 C13            0.7779    -1.7528    -6.2759 C.ar    
  14 C14            1.4061    -0.5170    -6.3609 C.ar    
  15 C15            0.7306     0.5643    -6.8922 C.ar    
  16 C16           -0.5696     0.4176    -7.3389 C.ar    
  17 C17           -1.1982    -0.8116    -7.2557 C.ar    
  18 C18           -0.5268    -1.8980    -6.7309 C.ar    
  19 C19           -1.2123    -3.2371    -6.6412 C.3     
  20 N20           -1.6950    -3.4492    -5.2700 N.3     
  21 C21           -2.5700    -4.6268    -5.1962 C.3     
  22 C22           -3.2376    -4.6728    -3.8460 C.2     
  23 C23           -4.5592    -4.7356    -3.7617 C.2     
  24 C24           -5.2139    -4.7807    -2.4374 C.ar    
  25 C25           -6.6048    -4.8468    -2.3456 C.ar    
  26 C26           -7.2103    -4.8891    -1.1068 C.ar    
  27 C27           -6.4408    -4.8661     0.0441 C.ar    
  28 C28           -5.0603    -4.8004    -0.0408 C.ar    
  29 C29           -4.4434    -4.7630    -1.2741 C.ar    
  30 Cl30          -7.2098    -4.9190     1.5996 Cl      
  31 C31           -0.5730    -3.5673    -4.3293 C.3     
  32 H32            1.0724     1.8547    -0.0360 H       
  33 H33           -0.4822     1.8430    -0.9028 H       
  34 H34           -0.4556     1.8487     0.8769 H       
  35 H35            0.2556    -2.5352    -0.3388 H       
  36 H36            1.3311    -3.6486    -2.2525 H       
  37 H37            2.2530     0.1519    -3.9550 H       
  38 H38            1.1734     1.2728    -2.0479 H       
  39 H39            1.2468    -3.7457    -6.0414 H       
  40 H40            2.4215    -0.4016    -6.0115 H       
  41 H41            1.2185     1.5255    -6.9586 H       
  42 H42           -1.0958     1.2649    -7.7533 H       
  43 H43           -2.2141    -0.9226    -7.6052 H       
  44 H44           -2.0559    -3.2603    -7.3310 H       
  45 H45           -0.5064    -4.0250    -6.9038 H       
  46 H46           -3.3298    -4.5643    -5.9753 H       
  47 H47           -1.9766    -5.5299    -5.3391 H       
  48 H48           -2.6395    -4.6545    -2.9469 H       
  49 H49           -5.1573    -4.7539    -4.6607 H       
  50 H50           -7.2060    -4.8645    -3.2426 H       
  51 H51           -8.2867    -4.9400    -1.0345 H       
  52 H52           -4.4652    -4.7823     0.8603 H       
  53 H53           -3.3666    -4.7122    -1.3391 H       
  54 H54            0.0194    -2.6526    -4.3537 H       
  55 H55           -0.9585    -3.7237    -3.3218 H       
  56 H56            0.0527    -4.4131    -4.6143 H       
@<TRIPOS>BOND
   1    1    2 1
   2    1   32 1
   3    1   33 1
   4    1   34 1
   5    2    3 1
   6    3    4 ar
   7    3    8 ar
   8    4    5 ar
   9    4   35 1
  10    5    6 ar
  11    5   36 1
  12    6    7 ar
  13    6    9 1
  14    7    8 ar
  15    7   37 1
  16    8   38 1
  17    9   10 2
  18    9   11 2
  19    9   12 am
  20   12   13 1
  21   12   39 1
  22   13   14 ar
  23   13   18 ar
  24   14   15 ar
  25   14   40 1
  26   15   16 ar
  27   15   41 1
  28   16   17 ar
  29   16   42 1
  30   17   18 ar
  31   17   43 1
  32   18   19 1
  33   19   20 1
  34   19   44 1
  35   19   45 1
  36   20   21 1
  37   20   31 1
  38   21   22 1
  39   21   46 1
  40   21   47 1
  41   22   23 2
  42   22   48 1
  43   23   24 1
  44   23   49 1
  45   24   25 ar
  46   24   29 ar
  47   25   26 ar
  48   25   50 1
  49   26   27 ar
  50   26   51 1
  51   27   28 ar
  52   27   30 1
  53   28   29 ar
  54   28   52 1
  55   29   53 1
  56   31   54 1
  57   31   55 1
  58   31   56 1

#	End of record

