#	Name: ASD12970001
#	Creating user name:	WinNT
#	Creation time:	15. 06. 2019 21:30

#	Modifying user name:	WinNT
#	Modification time:	15. 06. 2019 21:30

#	Program:	/corina/corina34_cracker 3.40 0067  02.08.2006

@<TRIPOS>MOLECULE
ASD12970001
  16   16    0    0    0
SMALL
NO_CHARGES


@<TRIPOS>ATOM
   1 C1            -0.0167     1.3833     0.0096 C.ar    
   2 C2             0.0021    -0.0041     0.0020 C.ar    
   3 C3             1.2081    -0.6771    -0.0131 C.ar    
   4 C4             2.3962     0.0305    -0.0202 C.ar    
   5 C5             2.3801     1.4128    -0.0126 C.ar    
   6 C6             1.1763     2.0908     0.0021 C.ar    
   7 O7            -1.2021     2.0479     0.0189 O.3     
   8 C8             1.1596     3.5977     0.0098 C.3     
   9 H9            -0.9255    -0.5572     0.0083 H       
  10 H10            1.2233    -1.7570    -0.0191 H       
  11 H11            3.3382    -0.4976    -0.0313 H       
  12 H12            3.3093     1.9633    -0.0182 H       
  13 H13           -1.5410     2.2354     0.9049 H       
  14 H14            1.1651     3.9558     1.0393 H       
  15 H15            2.0406     3.9736    -0.5104 H       
  16 H16            0.2608     3.9537    -0.4939 H       
@<TRIPOS>BOND
   1    1    2 ar
   2    1    6 ar
   3    1    7 1
   4    2    3 ar
   5    2    9 1
   6    3    4 ar
   7    3   10 1
   8    4    5 ar
   9    4   11 1
  10    5    6 ar
  11    5   12 1
  12    6    8 1
  13    7   13 1
  14    8   14 1
  15    8   15 1
  16    8   16 1

#	End of record

