#	Name: ASD11000256
#	Creating user name:	WinNT
#	Creation time:	15. 06. 2019 21:29

#	Modifying user name:	WinNT
#	Modification time:	15. 06. 2019 21:29

#	Program:	/corina/corina34_cracker 3.40 0067  02.08.2006

@<TRIPOS>MOLECULE
ASD11000256
  44   47    0    0    0
SMALL
NO_CHARGES


@<TRIPOS>ATOM
   1 N1            -0.0172     1.3215    -0.0112 N.ar    
   2 C2             0.0016    -0.0034    -0.0060 C.ar    
   3 N3             1.1403    -0.6810    -0.0155 N.ar    
   4 C4             2.3025    -0.0498    -0.0305 C.ar    
   5 C5             2.3192     1.3363    -0.0364 C.ar    
   6 C6             1.1098     2.0136    -0.0261 C.ar    
   7 N7            -1.1973    -0.6965     0.0102 N.pl3   
   8 C8            -1.2008    -2.0923    -0.1029 C.ar    
   9 C9            -2.1492    -2.8423     0.5800 C.ar    
  10 C10           -0.2595    -2.7268    -0.9027 C.ar    
  11 C11           -0.2639    -4.1032    -1.0141 C.ar    
  12 C12           -1.2086    -4.8520    -0.3278 C.ar    
  13 C13           -2.1523    -4.2186     0.4675 C.ar    
  14 C14            3.6238     2.0904    -0.0530 C.3     
  15 C15            4.0504     2.3397    -1.5010 C.3     
  16 C16            5.3550     3.0939    -1.5177 C.ar    
  17 C17            6.5443     2.4128    -1.5272 C.ar    
  18 C18            7.7305     3.1555    -1.5425 C.ar    
  19 C19            7.6623     4.5632    -1.5475 C.ar    
  20 N20            6.4806     5.1676    -1.5381 N.ar    
  21 C21            5.3585     4.4814    -1.5291 C.ar    
  22 N22            8.9534     5.0162    -1.5627 N.pl3   
  23 O23           -1.2126    -6.2073    -0.4384 O.3     
  24 C24           -2.2134    -6.9153     0.2959 C.3     
  25 C25            9.1476     2.8104    -1.5558 C.2     
  26 N26            9.8250     3.9227    -1.5673 N.2     
  27 F27           -2.0650    -6.6500     1.6615 F       
  28 F28           -3.4815    -6.5001    -0.1247 F       
  29 H29            3.2273    -0.6075    -0.0378 H       
  30 H30            1.0881     3.0934    -0.0307 H       
  31 H31           -2.0347    -0.2151     0.0999 H       
  32 H32           -2.8840    -2.3493     1.1993 H       
  33 H33            0.4756    -2.1439    -1.4377 H       
  34 H34            0.4681    -4.5968    -1.6361 H       
  35 H35           -2.8875    -4.8023     1.0016 H       
  36 H36            3.4983     3.0449     0.4583 H       
  37 H37            4.3891     1.5038     0.4553 H       
  38 H38            4.1759     1.3853    -2.0123 H       
  39 H39            3.2851     2.9263    -2.0094 H       
  40 H40            6.5656     1.3330    -1.5227 H       
  41 H41            4.4171     5.0108    -1.5220 H       
  42 H42            9.2217     5.9483    -1.5698 H       
  43 H43           -2.1045    -7.9854     0.1197 H       
  44 H44            9.5607     1.8125    -1.5560 H       
@<TRIPOS>BOND
   1    1    2 ar
   2    1    6 ar
   3    2    3 ar
   4    2    7 1
   5    3    4 ar
   6    4    5 ar
   7    4   29 1
   8    5    6 ar
   9    5   14 1
  10    6   30 1
  11    7    8 1
  12    7   31 1
  13    8    9 ar
  14    8   10 ar
  15    9   13 ar
  16    9   32 1
  17   10   11 ar
  18   10   33 1
  19   11   12 ar
  20   11   34 1
  21   12   13 ar
  22   12   23 1
  23   13   35 1
  24   14   15 1
  25   14   36 1
  26   14   37 1
  27   15   16 1
  28   15   38 1
  29   15   39 1
  30   16   17 ar
  31   16   21 ar
  32   17   18 ar
  33   17   40 1
  34   18   19 ar
  35   18   25 1
  36   19   20 ar
  37   19   22 1
  38   20   21 ar
  39   21   41 1
  40   22   26 1
  41   22   42 1
  42   23   24 1
  43   24   27 1
  44   24   28 1
  45   24   43 1
  46   25   26 2
  47   25   44 1

#	End of record

