#	Name: ASD11920028
#	Creating user name:	WinNT
#	Creation time:	15. 06. 2019 21:29

#	Modifying user name:	WinNT
#	Modification time:	15. 06. 2019 21:29

#	Program:	/corina/corina34_cracker 3.40 0067  02.08.2006

@<TRIPOS>MOLECULE
ASD11920028
  31   33    0    0    0
SMALL
NO_CHARGES


@<TRIPOS>ATOM
   1 Cl1            3.7441     2.3810    -0.0216 Cl      
   2 C2            -0.0159     1.3208     0.0093 C.ar    
   3 N3             0.0021    -0.0041     0.0020 N.ar    
   4 C4             1.1550    -0.6661    -0.0126 C.ar    
   5 C5             2.3501     0.0544    -0.0202 C.ar    
   6 C6             2.2876     1.4365    -0.0122 C.ar    
   7 N7             1.1030     2.0316     0.0024 N.ar    
   8 C8            -4.2822     6.5254     0.3979 C.ar    
   9 C9            -2.9839     6.9698     0.1979 C.ar    
  10 N10           -1.9943     6.1060     0.0884 N.ar    
  11 C11           -2.1784     4.7989     0.1622 C.ar    
  12 C12           -3.4242     4.2688     0.3579 C.ar    
  13 C13           -4.5096     5.1376     0.4803 C.ar    
  14 C14           -5.9500     4.9872     0.6894 C.2     
  15 O15           -5.4753     7.1329     0.5397 O.3     
  16 C16           -6.4554     6.2300     0.7159 C.2     
  17 C17           -0.9945     3.8762     0.0278 C.3     
  18 S18           -1.5658     2.1588     0.0211 S.3     
  19 N19            1.1696    -2.0515    -0.0197 N.pl3   
  20 C20           -0.2612     4.1749    -1.2814 C.3     
  21 H21            3.3022    -0.4553    -0.0317 H       
  22 H22           -2.7827     8.0287     0.1311 H       
  23 H23           -3.5651     3.1996     0.4161 H       
  24 H24           -6.4963     4.0621     0.8001 H       
  25 H25           -7.4993     6.4699     0.8542 H       
  26 H26           -0.3166     4.0304     0.8673 H       
  27 H27            0.3348    -2.5454    -0.0140 H       
  28 H28            2.0147    -2.5275    -0.0304 H       
  29 H29            0.0828     5.2091    -1.2774 H       
  30 H30            0.5951     3.5075    -1.3786 H       
  31 H31           -0.9392     4.0207    -2.1209 H       
@<TRIPOS>BOND
   1    1    6 1
   2    2    3 ar
   3    2    7 ar
   4    2   18 1
   5    3    4 ar
   6    4    5 ar
   7    4   19 1
   8    5    6 ar
   9    5   21 1
  10    6    7 ar
  11    8    9 ar
  12    8   13 ar
  13    8   15 1
  14    9   10 ar
  15    9   22 1
  16   10   11 ar
  17   11   12 ar
  18   11   17 1
  19   12   13 ar
  20   12   23 1
  21   13   14 1
  22   14   16 2
  23   14   24 1
  24   15   16 1
  25   16   25 1
  26   17   18 1
  27   17   20 1
  28   17   26 1
  29   19   27 1
  30   19   28 1
  31   20   29 1
  32   20   30 1
  33   20   31 1

#	End of record

