#	Name: ASD10610020
#	Creating user name:	WinNT
#	Creation time:	15. 06. 2019 21:27

#	Modifying user name:	WinNT
#	Modification time:	15. 06. 2019 21:27

#	Program:	/corina/corina34_cracker 3.40 0067  02.08.2006

@<TRIPOS>MOLECULE
ASD10610020
  58   62    0    0    0
SMALL
NO_CHARGES


@<TRIPOS>ATOM
   1 C1             0.0297     1.4795     0.0482 C.3     
   2 C2             0.2313    -0.0333    -0.0598 C.3     
   3 C3             1.4438     0.8958     0.0264 C.3     
   4 C4            -0.4412     2.2084    -1.1838 C.2     
   5 O5            -0.2362     1.7375    -2.2826 O.2     
   6 N6            -1.0901     3.3837    -1.0647 N.am    
   7 C7            -1.4508     4.1460    -2.2627 C.3     
   8 C8            -2.1816     5.4471    -1.8695 C.3     
   9 C9            -1.0247     6.4653    -1.7867 C.3     
  10 C10            0.0410     5.9307    -2.7196 C.ar    
  11 C11            1.1355     6.5620    -3.2816 C.ar    
  12 C12            1.9922     5.8575    -4.1237 C.ar    
  13 C13            1.7407     4.5135    -4.3963 C.ar    
  14 C14            0.6474     3.8927    -3.8311 C.ar    
  15 C15           -0.2037     4.5970    -2.9936 C.ar    
  16 C16           -2.3318     3.2999    -3.1840 C.3     
  17 C17            3.1654     6.5333    -4.7276 C.ar    
  18 C18            4.4383     5.9464    -4.6437 C.ar    
  19 C19            5.5340     6.5918    -5.2156 C.ar    
  20 C20            5.3625     7.8031    -5.8606 C.ar    
  21 C21            4.1064     8.3803    -5.9423 C.ar    
  22 C22            3.0098     7.7496    -5.3852 C.ar    
  23 O23            4.1526     2.9300    -2.8997 O.3     
  24 N24            3.6788     3.9406    -3.3744 N.2     
  25 C25            4.6162     4.6485    -3.9509 C.2     
  26 N26            5.7781     3.9732    -3.7962 N.2     
  27 C27            5.4688     2.8891    -3.1298 C.2     
  28 C28            6.4185     1.8000    -2.7022 C.3     
  29 F29            6.7623     6.0346    -5.1393 F       
  30 Cl30           3.9068     9.9014    -6.7547 Cl      
  31 N31           -0.4649     2.0067     1.3224 N.am    
  32 C32           -1.7021     1.6855     1.7498 C.2     
  33 O33           -2.3714     0.8893     1.1262 O.2     
  34 C34           -2.2537     2.3158     3.0026 C.3     
  35 F35           -3.5438     1.8294     3.2402 F       
  36 F36           -1.4285     1.9981     4.0867 F       
  37 F37           -2.3011     3.7049     2.8439 F       
  38 H38           -0.0041    -0.6363     0.8171 H       
  39 H39            0.0233    -0.5013    -1.0220 H       
  40 H40            2.0336     1.0390    -0.8790 H       
  41 H41            2.0062     0.9040     0.9602 H       
  42 H42           -1.3184     3.7247    -0.1858 H       
  43 H43           -2.8981     5.7365    -2.6383 H       
  44 H44           -2.6723     5.3388    -0.9022 H       
  45 H45           -1.3607     7.4474    -2.1194 H       
  46 H46           -0.6420     6.5208    -0.7676 H       
  47 H47            1.3260     7.6032    -3.0674 H       
  48 H48            2.4003     3.9606    -5.0487 H       
  49 H49            0.4523     2.8517    -4.0426 H       
  50 H50           -3.2473     3.0255    -2.6599 H       
  51 H51           -2.5819     3.8745    -4.0758 H       
  52 H52           -1.7938     2.3969    -3.4726 H       
  53 H53            6.2125     8.3015    -6.3026 H       
  54 H54            2.0323     8.2034    -5.4566 H       
  55 H55            5.8679     1.0282    -2.1644 H       
  56 H56            6.8905     1.3632    -3.5823 H       
  57 H57            7.1842     2.2209    -2.0505 H       
  58 H58            0.0980     2.5870     1.8584 H       
@<TRIPOS>BOND
   1    1    2 1
   2    1    3 1
   3    1    4 1
   4    1   31 1
   5    2    3 1
   6    2   38 1
   7    2   39 1
   8    3   40 1
   9    3   41 1
  10    4    5 2
  11    4    6 am
  12    6    7 1
  13    6   42 1
  14    7    8 1
  15    7   15 1
  16    7   16 1
  17    8    9 1
  18    8   43 1
  19    8   44 1
  20    9   10 1
  21    9   45 1
  22    9   46 1
  23   10   11 ar
  24   10   15 ar
  25   11   12 ar
  26   11   47 1
  27   12   13 ar
  28   12   17 1
  29   13   14 ar
  30   13   48 1
  31   14   15 ar
  32   14   49 1
  33   16   50 1
  34   16   51 1
  35   16   52 1
  36   17   18 ar
  37   17   22 ar
  38   18   19 ar
  39   18   25 1
  40   19   20 ar
  41   19   29 1
  42   20   21 ar
  43   20   53 1
  44   21   22 ar
  45   21   30 1
  46   22   54 1
  47   23   24 1
  48   23   27 1
  49   24   25 2
  50   25   26 1
  51   26   27 2
  52   27   28 1
  53   28   55 1
  54   28   56 1
  55   28   57 1
  56   31   32 am
  57   31   58 1
  58   32   33 2
  59   32   34 1
  60   34   35 1
  61   34   36 1
  62   34   37 1

#	End of record

