#	Name: ASD14580001
#	Creating user name:	WinNT
#	Creation time:	15. 06. 2019 21:31

#	Modifying user name:	WinNT
#	Modification time:	15. 06. 2019 21:31

#	Program:	/corina/corina34_cracker 3.40 0067  02.08.2006

@<TRIPOS>MOLECULE
ASD14580001
  41   44    0    0    0
SMALL
NO_CHARGES


@<TRIPOS>ATOM
   1 Se1           -0.0245     1.9557     0.0128 Du      
   2 C2             0.0021    -0.0041     0.0020 C.ar    
   3 C3             0.0231    -0.7098     1.2058 C.ar    
   4 C4             0.0254     0.0176     2.4929 C.2     
   5 N5             0.0457    -0.6669     3.6538 N.am    
   6 C6             0.0480     0.0538     4.9292 C.3     
   7 C7             0.0726    -0.9509     6.0828 C.3     
   8 C8             0.0750    -0.1982     7.4148 C.3     
   9 C9             1.3130     0.6976     7.4922 C.3     
  10 C10            1.2860     0.9496     5.0066 C.3     
  11 C11            1.2884     1.7023     6.3386 C.3     
  12 C12            0.0282     2.5641     6.4397 C.3     
  13 C13           -1.2098     1.6684     6.3623 C.3     
  14 C14           -1.1852     0.6636     7.5158 C.3     
  15 C15           -1.2122     0.9156     5.0303 C.3     
  16 O16            0.0090     1.2329     2.5042 O.2     
  17 C17            0.0414    -2.1056     1.1893 C.ar    
  18 C18            0.0387    -2.7781    -0.0150 C.ar    
  19 C19            0.0178    -2.0722    -1.2051 C.ar    
  20 C20           -0.0057    -0.6891    -1.1957 C.ar    
  21 H21            1.5026     2.2742    -0.0001 H       
  22 H22            0.0588    -1.6368     3.6447 H       
  23 H23           -0.8093    -1.5891     6.0276 H       
  24 H24            0.9704    -1.5649     6.0108 H       
  25 H25            0.0926    -0.9140     8.2366 H       
  26 H26            1.3147     1.2338     8.4411 H       
  27 H27            2.2108     0.0836     7.4202 H       
  28 H28            2.1838     0.3356     4.9346 H       
  29 H29            1.2685     1.6654     4.1847 H       
  30 H30            2.1703     2.3405     6.3937 H       
  31 H31            0.0299     3.1004     7.3886 H       
  32 H32            0.0107     3.2799     5.6178 H       
  33 H33           -2.1075     2.2823     6.4343 H       
  34 H34           -2.0671     0.0254     7.4607 H       
  35 H35           -1.1834     1.1999     8.4648 H       
  36 H36           -1.2297     1.6314     4.2084 H       
  37 H37           -2.0941     0.2775     4.9751 H       
  38 H38            0.0581    -2.6576     2.1174 H       
  39 H39            0.0533    -3.8579    -0.0292 H       
  40 H40            0.0158    -2.6036    -2.1453 H       
  41 H41           -0.0220    -0.1441    -2.1280 H       
@<TRIPOS>BOND
   1    1    2 1
   2    1   21 1
   3    2    3 ar
   4    2   20 ar
   5    3   17 ar
   6    3    4 1
   7    4    5 am
   8    4   16 2
   9    5   22 1
  10    5    6 1
  11    6    7 1
  12    6   15 1
  13    6   10 1
  14    7    8 1
  15    7   23 1
  16    7   24 1
  17    8   14 1
  18    8   25 1
  19    8    9 1
  20    9   26 1
  21    9   27 1
  22    9   11 1
  23   10   11 1
  24   10   28 1
  25   10   29 1
  26   11   12 1
  27   11   30 1
  28   12   13 1
  29   12   31 1
  30   12   32 1
  31   13   33 1
  32   13   14 1
  33   13   15 1
  34   14   34 1
  35   14   35 1
  36   15   36 1
  37   15   37 1
  38   17   38 1
  39   17   18 ar
  40   18   39 1
  41   18   19 ar
  42   19   40 1
  43   19   20 ar
  44   20   41 1

#	End of record

