#	Name: ASD12180002
#	Creating user name:	WinNT
#	Creation time:	15. 06. 2019 21:30

#	Modifying user name:	WinNT
#	Modification time:	15. 06. 2019 21:30

#	Program:	/corina/corina34_cracker 3.40 0067  02.08.2006

@<TRIPOS>MOLECULE
ASD12180002
  40   42    0    0    0
SMALL
NO_CHARGES


@<TRIPOS>ATOM
   1 C1            -0.0167     1.3776     0.0096 C.ar    
   2 C2             0.0021    -0.0041     0.0020 C.ar    
   3 C3             1.2062    -0.6822    -0.0126 C.ar    
   4 C4             2.3955     0.0225    -0.0170 C.ar    
   5 C5             2.3850     1.4112    -0.0078 C.ar    
   6 C6             1.1742     2.0966     0.0021 C.ar    
   7 N7             1.1169     3.4883    -0.0012 N.pl3   
   8 S8             3.9130     2.2854    -0.0041 S.3     
   9 C9             3.4576     3.9026     0.5214 C.ar    
  10 C10            2.1310     4.3199     0.4681 C.ar    
  11 C11            1.8016     5.6025     0.8927 C.ar    
  12 C12            4.4374     4.7656     0.9930 C.ar    
  13 C13            4.1001     6.0396     1.4120 C.ar    
  14 C14            2.7831     6.4565     1.3618 C.ar    
  15 C15           -0.0920     4.1205    -0.5350 C.3     
  16 C16           -1.1048     4.3193     0.5944 C.3     
  17 C17           -2.3674     4.9795     0.0368 C.3     
  18 N18           -3.3398     5.1704     1.1213 N.3     
  19 C19           -2.8449     6.1400     2.1076 C.3     
  20 C20           -4.6468     5.5801     0.5903 C.3     
  21 Br21           2.3224     8.1984     1.9361 Br      
  22 H22           -0.9608     1.9021     0.0169 H       
  23 H23           -0.9266    -0.5554     0.0079 H       
  24 H24            1.2180    -1.7621    -0.0203 H       
  25 H25            3.3359    -0.5086    -0.0274 H       
  26 H26            0.7742     5.9335     0.8557 H       
  27 H27            5.4666     4.4408     1.0331 H       
  28 H28            4.8651     6.7085     1.7777 H       
  29 H29            0.1644     5.0876    -0.9676 H       
  30 H30           -0.5264     3.4821    -1.3044 H       
  31 H31           -1.3612     3.3522     1.0269 H       
  32 H32           -0.6705     4.9577     1.3637 H       
  33 H33           -2.1110     5.9466    -0.3957 H       
  34 H34           -2.8018     4.3411    -0.7325 H       
  35 H35           -2.6730     7.0993     1.6194 H       
  36 H36           -3.5840     6.2625     2.8992 H       
  37 H37           -1.9103     5.7777     2.5359 H       
  38 H38           -5.0223     4.8107    -0.0844 H       
  39 H39           -5.3478     5.7145     1.4141 H       
  40 H40           -4.5402     6.5191     0.0472 H       
@<TRIPOS>BOND
   1    1    2 ar
   2    1    6 ar
   3    1   22 1
   4    2    3 ar
   5    2   23 1
   6    3    4 ar
   7    3   24 1
   8    4    5 ar
   9    4   25 1
  10    5    6 ar
  11    5    8 1
  12    6    7 1
  13    7   10 1
  14    7   15 1
  15    8    9 1
  16    9   12 ar
  17    9   10 ar
  18   10   11 ar
  19   11   14 ar
  20   11   26 1
  21   12   13 ar
  22   12   27 1
  23   13   14 ar
  24   13   28 1
  25   14   21 1
  26   15   16 1
  27   15   29 1
  28   15   30 1
  29   16   17 1
  30   16   31 1
  31   16   32 1
  32   17   18 1
  33   17   33 1
  34   17   34 1
  35   18   19 1
  36   18   20 1
  37   19   35 1
  38   19   36 1
  39   19   37 1
  40   20   38 1
  41   20   39 1
  42   20   40 1

#	End of record

