#	Name: ASD10420197
#	Creating user name:	WinNT
#	Creation time:	15. 06. 2019 21:27

#	Modifying user name:	WinNT
#	Modification time:	15. 06. 2019 21:27

#	Program:	/corina/corina34_cracker 3.40 0067  02.08.2006

@<TRIPOS>MOLECULE
ASD10420197
  43   44    0    0    0
SMALL
NO_CHARGES


@<TRIPOS>ATOM
   1 C1             0.5354    -2.9549    -2.1312 C.3     
   2 C2             4.0098   -10.0175     8.1771 C.3     
   3 C3             1.6643   -10.7915     3.8131 C.3     
   4 C4             0.2480    -2.0159    -0.9579 C.3     
   5 C5             2.1349    -5.6682     4.1963 C.2     
   6 C6             2.7000    -6.1513     5.3144 C.2     
   7 C7             2.5850    -1.9736     4.6843 C.ar    
   8 C8             2.6305    -3.3344     4.9053 C.ar    
   9 C9             2.0039    -1.4741     3.5332 C.ar    
  10 C10            3.3350    -8.1107     6.7102 C.ar    
  11 C11            2.2040    -8.4841     4.6052 C.ar    
  12 C12            1.5012    -3.7084     2.8018 C.ar    
  13 C13            0.9798    -2.5030     0.2662 C.2     
  14 C14            3.3764    -9.4714     6.9235 C.ar    
  15 C15            2.2501    -9.8432     4.8274 C.ar    
  16 C16            2.0877    -4.2135     3.9637 C.ar    
  17 C17            2.7472    -7.6055     5.5470 C.ar    
  18 C18            1.4613    -2.3392     2.5905 C.ar    
  19 C19            2.8356   -10.3406     5.9846 C.ar    
  20 N20            0.8741    -1.8277     1.4277 N.am    
  21 O21            1.6638    -3.5028     0.2060 O.2     
  22 O22            2.8795   -11.6814     6.1988 O.3     
  23 H23            0.1979    -3.9610    -1.8825 H       
  24 H24            0.0062    -2.6026    -3.0166 H       
  25 H25            1.6070    -2.9700    -2.3305 H       
  26 H26            3.2547   -10.1016     8.9587 H       
  27 H27            4.4317   -11.0014     7.9721 H       
  28 H28            4.8010    -9.3445     8.5073 H       
  29 H29            2.4307   -11.0678     3.0889 H       
  30 H30            1.3030   -11.6868     4.3191 H       
  31 H31            0.8356   -10.3059     3.2978 H       
  32 H32            0.5856    -1.0098    -1.2066 H       
  33 H33           -0.8235    -2.0008    -0.7587 H       
  34 H34            1.7150    -6.3455     3.4674 H       
  35 H35            3.1200    -5.4739     6.0433 H       
  36 H36            3.0008    -1.2956     5.4149 H       
  37 H37            3.0855    -3.7205     5.8055 H       
  38 H38            1.9712    -0.4076     3.3663 H       
  39 H39            3.7521    -7.4355     7.4427 H       
  40 H40            1.7485    -8.0983     3.7052 H       
  41 H41            1.0803    -4.3821     2.0701 H       
  42 H42            0.3910    -0.9871     1.4578 H       
  43 H43            2.1119   -12.0293     6.6729 H       
@<TRIPOS>BOND
   1    1    4 1
   2    1   23 1
   3    1   24 1
   4    1   25 1
   5    2   14 1
   6    2   26 1
   7    2   27 1
   8    2   28 1
   9    3   15 1
  10    3   29 1
  11    3   30 1
  12    3   31 1
  13    4   13 1
  14    4   32 1
  15    4   33 1
  16    5    6 2
  17    5   16 1
  18    5   34 1
  19    6   17 1
  20    6   35 1
  21    7    8 ar
  22    7    9 ar
  23    7   36 1
  24    8   16 ar
  25    8   37 1
  26    9   18 ar
  27    9   38 1
  28   10   14 ar
  29   10   17 ar
  30   10   39 1
  31   11   15 ar
  32   11   17 ar
  33   11   40 1
  34   12   16 ar
  35   12   18 ar
  36   12   41 1
  37   13   20 am
  38   13   21 2
  39   14   19 ar
  40   15   19 ar
  41   18   20 1
  42   19   22 1
  43   20   42 1
  44   22   43 1

#	End of record

