#	Name: ASD10410170
#	Creating user name:	WinNT
#	Creation time:	15. 06. 2019 21:27

#	Modifying user name:	WinNT
#	Modification time:	15. 06. 2019 21:27

#	Program:	/corina/corina34_cracker 3.40 0067  02.08.2006

@<TRIPOS>MOLECULE
ASD10410170
  77   84    0    0    0
SMALL
NO_CHARGES


@<TRIPOS>ATOM
   1 C1            -0.0439     1.5038    -0.1760 C.ar    
   2 C2            -0.0241     0.1200    -0.0610 C.ar    
   3 C3             1.1883    -0.5548    -0.0042 C.ar    
   4 C4             2.3741     0.1501    -0.0620 C.ar    
   5 C5             2.3544     1.5339    -0.1769 C.ar    
   6 C6             1.1419     2.2088    -0.2337 C.ar    
   7 N7             3.5571     2.2489    -0.2355 N.pl3   
   8 C8             3.6242     3.4428    -0.9530 C.2     
   9 N9             4.6603     4.2453    -0.9979 N.2     
  10 N10            2.6437     3.9490    -1.7101 N.2     
  11 C11            3.0374     5.0847    -2.2452 C.2     
  12 N12            4.3095     5.3226    -1.8277 N.pl3   
  13 C13            5.1059     6.4172    -2.1570 C.ar    
  14 N14            2.2923     5.8905    -3.0843 N.pl3   
  15 N15           -1.2262    -0.5946    -0.0020 N.3     
  16 C16           -0.9757    -2.0377     0.1180 C.3     
  17 C17           -2.3098    -2.7743     0.2594 C.3     
  18 N18           -3.1528    -2.4844    -0.9089 N.3     
  19 C19           -3.4033    -1.0413    -1.0289 C.3     
  20 C20           -2.0692    -0.3047    -1.1703 C.3     
  21 N21            4.6239     7.6483    -2.0730 N.ar    
  22 C22            5.3780     8.6970    -2.3851 C.ar    
  23 N23            6.6262     8.5710    -2.7886 N.ar    
  24 C24            7.2000     7.3551    -2.9037 C.ar    
  25 C25            6.4334     6.2317    -2.5773 C.ar    
  26 C26           -4.4144    -3.2343    -0.8470 C.3     
  27 C27           -4.1366    -4.7684    -0.8724 C.3     
  28 C28           -5.2615    -2.9695    -2.1126 C.3     
  29 C29           -5.4157    -4.3685    -2.7836 C.3     
  30 C30           -3.1446    -4.9659    -2.0592 C.3     
  31 C31           -3.9917    -4.7010    -3.3248 C.3     
  32 C32           -5.4680    -5.2936    -1.5168 C.3     
  33 C33            8.5379     6.9929    -3.3224 C.2     
  34 C34            8.7873     5.6939    -3.3257 C.2     
  35 S35            7.3878     4.7745    -2.8044 S.3     
  36 C36            9.5673     8.0175    -3.7243 C.3     
  37 C37            4.7946    10.0561    -2.2761 C.ar    
  38 C38            3.4447    10.2156    -1.9621 C.ar    
  39 C39            5.5939    11.1789    -2.4813 C.ar    
  40 C40            5.0457    12.4415    -2.3786 C.ar    
  41 C41            3.7055    12.5942    -2.0722 C.ar    
  42 C42            2.9075    11.4843    -1.8621 C.ar    
  43 Cl43           2.4423     8.8231    -1.6982 Cl      
  44 H44           -0.9868     2.0282    -0.2247 H       
  45 H45            1.2036    -1.6310     0.0856 H       
  46 H46            3.3170    -0.3747    -0.0174 H       
  47 H47            1.1266     3.2849    -0.3235 H       
  48 H48            4.3434     1.9137     0.2230 H       
  49 H49            1.4163     5.6005    -3.3833 H       
  50 H50            2.6451     6.7462    -3.3744 H       
  51 H51           -0.4573    -2.3921    -0.7730 H       
  52 H52           -0.3602    -2.2281     0.9972 H       
  53 H53           -2.1282    -3.8474     0.3194 H       
  54 H54           -2.8158    -2.4396     1.1650 H       
  55 H55           -4.0188    -0.8509    -1.9081 H       
  56 H56           -3.9217    -0.6869    -0.1380 H       
  57 H57           -2.2509     0.7684    -1.2303 H       
  58 H58           -1.5632    -0.6394    -2.0759 H       
  59 H59           -4.9726    -2.9641     0.0494 H       
  60 H60           -3.8392    -5.2146     0.0765 H       
  61 H61           -6.2379    -2.5693    -1.8395 H       
  62 H62           -4.7418    -2.2828    -2.7808 H       
  63 H63           -6.2322    -4.4664    -3.4990 H       
  64 H64           -2.3258    -4.2494    -1.9931 H       
  65 H65           -2.7590    -5.9854    -2.0665 H       
  66 H66           -4.0226    -5.5903    -3.9543 H       
  67 H67           -3.5893    -3.8544    -3.8810 H       
  68 H68           -5.4063    -6.3498    -1.7791 H       
  69 H69           -6.3357    -5.0824    -0.8919 H       
  70 H70            9.7325     5.2557    -3.6104 H       
  71 H71           10.1366     8.3241    -2.8467 H       
  72 H72           10.2425     7.5842    -4.4622 H       
  73 H73            9.0675     8.8854    -4.1545 H       
  74 H74            6.6407    11.0615    -2.7199 H       
  75 H75            5.6647    13.3121    -2.5375 H       
  76 H76            3.2815    13.5843    -1.9926 H       
  77 H77            1.8617    11.6096    -1.6234 H       
@<TRIPOS>BOND
   1    1    2 ar
   2    1    6 ar
   3    1   44 1
   4    2    3 ar
   5    2   15 1
   6    3    4 ar
   7    3   45 1
   8    4    5 ar
   9    4   46 1
  10    5    6 ar
  11    5    7 1
  12    6   47 1
  13    7    8 1
  14    7   48 1
  15    8    9 2
  16    8   10 1
  17    9   12 1
  18   10   11 2
  19   11   12 1
  20   11   14 1
  21   12   13 1
  22   13   21 ar
  23   13   25 ar
  24   14   49 1
  25   14   50 1
  26   15   16 1
  27   15   20 1
  28   16   17 1
  29   16   51 1
  30   16   52 1
  31   17   18 1
  32   17   53 1
  33   17   54 1
  34   18   19 1
  35   18   26 1
  36   19   20 1
  37   19   55 1
  38   19   56 1
  39   20   57 1
  40   20   58 1
  41   21   22 ar
  42   22   23 ar
  43   22   37 1
  44   23   24 ar
  45   24   25 ar
  46   24   33 1
  47   25   35 1
  48   26   27 1
  49   26   28 1
  50   26   59 1
  51   27   30 1
  52   27   32 1
  53   27   60 1
  54   28   29 1
  55   28   61 1
  56   28   62 1
  57   29   31 1
  58   29   32 1
  59   29   63 1
  60   30   31 1
  61   30   64 1
  62   30   65 1
  63   31   66 1
  64   31   67 1
  65   32   68 1
  66   32   69 1
  67   33   34 2
  68   33   36 1
  69   34   35 1
  70   34   70 1
  71   36   71 1
  72   36   72 1
  73   36   73 1
  74   37   38 ar
  75   37   39 ar
  76   38   43 1
  77   38   42 ar
  78   39   40 ar
  79   39   74 1
  80   40   41 ar
  81   40   75 1
  82   41   42 ar
  83   41   76 1
  84   42   77 1

#	End of record

