#	Name: ASD11030035
#	Creating user name:	WinNT
#	Creation time:	15. 06. 2019 21:29

#	Modifying user name:	WinNT
#	Modification time:	15. 06. 2019 21:29

#	Program:	/corina/corina34_cracker 3.40 0067  02.08.2006

@<TRIPOS>MOLECULE
ASD11030035
  76   81    0    0    0
SMALL
NO_CHARGES


@<TRIPOS>ATOM
   1 C1             2.7103     4.0485    -5.8902 C.ar    
   2 C2             1.7436     3.1369    -5.4900 C.ar    
   3 C3             1.8613     2.5192    -4.2578 C.ar    
   4 N4             2.8764     2.7847    -3.4621 N.ar    
   5 C5             3.8231     3.6506    -3.8069 C.ar    
   6 C6             3.7668     4.3095    -5.0353 C.ar    
   7 C7             4.9449     3.9179    -2.8818 C.2     
   8 C8             5.4319     3.0436    -1.9654 C.2     
   9 C9             6.4981     3.6793    -1.2845 C.ar    
  10 C10            6.6230     4.9701    -1.8370 C.ar    
  11 N11            5.6624     5.0895    -2.8191 N.pl3   
  12 C12            7.3599     3.2720    -0.2559 C.ar    
  13 C13            8.3157     4.1224     0.2087 C.ar    
  14 C14            8.4474     5.4086    -0.3349 C.ar    
  15 C15            7.6000     5.8295    -1.3571 C.ar    
  16 C16            5.4369     6.2734    -3.6521 C.3     
  17 C17            4.9278     1.6453    -1.7167 C.3     
  18 C18            9.4883     6.3202     0.1786 C.2     
  19 N19           10.3097     5.9161     1.1679 N.am    
  20 O20            9.6049     7.4358    -0.2907 O.2     
  21 C21           11.4171     6.7739     1.5969 C.3     
  22 C22           10.9502     8.0616     2.2253 C.2     
  23 N23            9.8408     8.0746     2.9905 N.am    
  24 O24           11.5729     9.0862     2.0425 O.2     
  25 C25            9.4592     9.2460     3.6465 C.ar    
  26 C26            9.7518    10.4832     3.0827 C.ar    
  27 C27            9.3771    11.6415     3.7257 C.ar    
  28 C28            8.7004    11.5739     4.9491 C.ar    
  29 C29            8.4070    10.3267     5.5145 C.ar    
  30 C30            8.7809     9.1724     4.8619 C.ar    
  31 C31           12.4833     6.0360     2.4236 C.3     
  32 C32           13.5336     6.8528     1.6524 C.3     
  33 C33           12.4972     6.9701     0.5200 C.3     
  34 C34            8.2993    12.8080     5.6384 C.2     
  35 C35            7.6462    12.7406     6.8192 C.2     
  36 C36            6.0550     0.6271    -1.9625 C.3     
  37 C37            6.2805    -0.1116    -0.6271 C.3     
  38 C38            4.9367     0.0475     0.1266 C.3     
  39 C39            4.5076     1.4898    -0.2406 C.3     
  40 F40            8.4985     7.9682     5.4054 F       
  41 C41            7.2593    13.9314     7.4843 C.2     
  42 O42            7.5153    15.0138     6.9918 O.2     
  43 O43            6.6070    13.8640     8.6636 O.3     
  44 H44            2.6421     4.5400    -6.8495 H       
  45 H45            0.9067     2.9120    -6.1346 H       
  46 H46            1.1100     1.8096    -3.9439 H       
  47 H47            4.5367     5.0134    -5.3150 H       
  48 H48            7.2649     2.2832     0.1680 H       
  49 H49            8.9768     3.8048     1.0014 H       
  50 H50            7.7032     6.8205    -1.7739 H       
  51 H51            5.9723     6.1616    -4.5950 H       
  52 H52            4.3704     6.3803    -3.8504 H       
  53 H53            5.8001     7.1590    -3.1308 H       
  54 H54            4.0825     1.4316    -2.3709 H       
  55 H55           10.1676     5.0572     1.5958 H       
  56 H56            9.3075     7.2699     3.0852 H       
  57 H57           10.2742    10.5355     2.1389 H       
  58 H58            9.6054    12.6015     3.2866 H       
  59 H59            7.8851    10.2698     6.4583 H       
  60 H60           12.4468     6.2663     3.4884 H       
  61 H61           12.5285     4.9657     2.2222 H       
  62 H62           13.7756     7.8065     2.1214 H       
  63 H63           14.4183     6.2783     1.3781 H       
  64 H64           12.5457     6.1553    -0.2024 H       
  65 H65           12.4736     7.9532     0.0497 H       
  66 H66            8.5266    13.7690     5.2012 H       
  67 H67            7.4190    11.7795     7.2565 H       
  68 H68            5.7564    -0.0812    -2.7353 H       
  69 H69            6.9667     1.1443    -2.2616 H       
  70 H70            6.4953    -1.1652    -0.8055 H       
  71 H71            7.0903     0.3541    -0.0655 H       
  72 H72            4.2047    -0.6763    -0.2318 H       
  73 H73            5.0832    -0.0499     1.2023 H       
  74 H74            5.0311     2.2141     0.3834 H       
  75 H75            3.4286     1.6049    -0.1369 H       
  76 H76            6.3851    14.7266     9.0402 H       
@<TRIPOS>BOND
   1    1    2 ar
   2    1    6 ar
   3    1   44 1
   4    2    3 ar
   5    2   45 1
   6    3    4 ar
   7    3   46 1
   8    4    5 ar
   9    5    6 ar
  10    5    7 1
  11    6   47 1
  12    7    8 2
  13    7   11 1
  14    8    9 1
  15    8   17 1
  16    9   10 ar
  17    9   12 ar
  18   10   11 1
  19   10   15 ar
  20   11   16 1
  21   12   13 ar
  22   12   48 1
  23   13   14 ar
  24   13   49 1
  25   14   15 ar
  26   14   18 1
  27   15   50 1
  28   16   51 1
  29   16   52 1
  30   16   53 1
  31   17   36 1
  32   17   39 1
  33   17   54 1
  34   18   19 am
  35   18   20 2
  36   19   21 1
  37   19   55 1
  38   21   22 1
  39   21   31 1
  40   21   33 1
  41   22   23 am
  42   22   24 2
  43   23   25 1
  44   23   56 1
  45   25   26 ar
  46   25   30 ar
  47   26   27 ar
  48   26   57 1
  49   27   28 ar
  50   27   58 1
  51   28   29 ar
  52   28   34 1
  53   29   30 ar
  54   29   59 1
  55   30   40 1
  56   31   32 1
  57   31   60 1
  58   31   61 1
  59   32   33 1
  60   32   62 1
  61   32   63 1
  62   33   64 1
  63   33   65 1
  64   34   35 2
  65   34   66 1
  66   35   41 1
  67   35   67 1
  68   36   37 1
  69   36   68 1
  70   36   69 1
  71   37   38 1
  72   37   70 1
  73   37   71 1
  74   38   39 1
  75   38   72 1
  76   38   73 1
  77   39   74 1
  78   39   75 1
  79   41   42 2
  80   41   43 1
  81   43   76 1

#	End of record

