#	Name: ASD10160135
#	Creating user name:	WinNT
#	Creation time:	15. 06. 2019 21:25

#	Modifying user name:	WinNT
#	Modification time:	15. 06. 2019 21:25

#	Program:	/corina/corina34_cracker 3.40 0067  02.08.2006

@<TRIPOS>MOLECULE
ASD10160135
  44   46    0    0    0
SMALL
NO_CHARGES


@<TRIPOS>ATOM
   1 C1            -2.2278    -2.6081     4.8627 C.2     
   2 C2            -1.6266    -3.0100     3.5778 C.ar    
   3 C3            -0.3021    -3.4608     3.5328 C.ar    
   4 C4             0.2562    -3.8359     2.3274 C.ar    
   5 C5            -0.4939    -3.7659     1.1611 C.ar    
   6 C6            -1.8119    -3.3180     1.2016 C.ar    
   7 C7            -2.3796    -2.9474     2.4012 C.ar    
   8 O8            -1.5728    -2.6680     5.8855 O.2     
   9 N9            -3.5014    -2.1691     4.9028 N.am    
  10 S10           -4.1766    -1.7178     6.3459 S.o2    
  11 O11           -5.5060    -1.3452     6.0096 O.2     
  12 O12           -3.9201    -2.8153     7.2113 O.2     
  13 C13           -3.2190    -0.2651     6.8590 C.3     
  14 F14           -2.5369    -3.2521     0.0635 F       
  15 F15            0.4286    -3.5282     4.6672 F       
  16 O16            0.0593    -4.1349    -0.0222 O.3     
  17 C17            2.4213    -3.8526    -0.1457 C.ar    
  18 C18            1.3102    -4.6677    -0.0036 C.ar    
  19 C19            1.4894    -6.0392     0.1590 C.ar    
  20 C20            2.7802    -6.5384     0.1724 C.ar    
  21 C21            3.8485    -5.6589     0.0240 C.ar    
  22 N22            3.6391    -4.3611    -0.1280 N.ar    
  23 N23            5.1520    -6.1498     0.0359 N.3     
  24 C24            6.1291    -5.0589    -0.1353 C.3     
  25 C25            7.0823    -5.1045     1.0775 C.3     
  26 C26            6.9426    -6.5666     1.5771 C.3     
  27 C27            5.4436    -6.8480     1.3061 C.3     
  28 F28            8.3981    -4.8402     0.6825 F       
  29 Cl29           3.0630    -8.2395     0.3725 Cl      
  30 H30            1.2780    -4.1838     2.2914 H       
  31 H31           -3.4034    -2.6048     2.4320 H       
  32 H32           -4.0226    -2.1176     4.0863 H       
  33 H33           -3.3114     0.5161     6.1045 H       
  34 H34           -3.5996     0.1030     7.8117 H       
  35 H35           -2.1704    -0.5416     6.9692 H       
  36 H36            2.2892    -2.7888    -0.2767 H       
  37 H37            0.6410    -6.6977     0.2724 H       
  38 H38            6.6931    -5.2074    -1.0561 H       
  39 H39            5.6124    -4.0996    -0.1650 H       
  40 H40            6.7612    -4.4020     1.8466 H       
  41 H41            7.5768    -7.2389     0.9992 H       
  42 H42            7.1673    -6.6387     2.6412 H       
  43 H43            4.8300    -6.4435     2.1110 H       
  44 H44            5.2720    -7.9190     1.1985 H       
@<TRIPOS>BOND
   1    1    2 1
   2    1    8 2
   3    1    9 am
   4    2    3 ar
   5    2    7 ar
   6    3    4 ar
   7    3   15 1
   8    4    5 ar
   9    4   30 1
  10    5    6 ar
  11    5   16 1
  12    6    7 ar
  13    6   14 1
  14    7   31 1
  15    9   10 am
  16    9   32 1
  17   10   11 2
  18   10   12 2
  19   10   13 1
  20   13   33 1
  21   13   34 1
  22   13   35 1
  23   16   18 1
  24   17   18 ar
  25   17   22 ar
  26   17   36 1
  27   18   19 ar
  28   19   20 ar
  29   19   37 1
  30   20   21 ar
  31   20   29 1
  32   21   22 ar
  33   21   23 1
  34   23   24 1
  35   23   27 1
  36   24   25 1
  37   24   38 1
  38   24   39 1
  39   25   26 1
  40   25   28 1
  41   25   40 1
  42   26   27 1
  43   26   41 1
  44   26   42 1
  45   27   43 1
  46   27   44 1

#	End of record

