#	Name: ASD11000288
#	Creating user name:	WinNT
#	Creation time:	15. 06. 2019 21:29

#	Modifying user name:	WinNT
#	Modification time:	15. 06. 2019 21:29

#	Program:	/corina/corina34_cracker 3.40 0067  02.08.2006

@<TRIPOS>MOLECULE
ASD11000288
  38   39    0    0    0
SMALL
NO_CHARGES


@<TRIPOS>ATOM
   1 C1            -0.0162     1.3180     0.0174 C.ar    
   2 N2             0.0011    -0.0048     0.0227 N.ar    
   3 C3             1.1544    -0.6682     0.0163 C.ar    
   4 C4             2.3491     0.0527     0.0038 C.ar    
   5 C5             2.2840     1.4392    -0.0013 C.ar    
   6 N6             1.1022     2.0298     0.0056 N.ar    
   7 C7             1.1700    -2.1520     0.0227 C.2     
   8 O8             2.2275    -2.7479     0.0167 O.2     
   9 O9             0.0111    -2.8373     0.0352 O.3     
  10 N10           -1.2351     1.9767     0.0186 N.pl3   
  11 C11           -1.2769     3.3701     0.1319 C.ar    
  12 C12           -2.2559     4.0935    -0.5368 C.ar    
  13 C13           -2.2948     5.4693    -0.4232 C.ar    
  14 C14           -1.3595     6.1272     0.3561 C.ar    
  15 C15           -0.3826     5.4090     1.0232 C.ar    
  16 C16           -0.3429     4.0325     0.9180 C.ar    
  17 Cl17          -1.4113     7.8567     0.4967 Cl      
  18 C18            0.1023    -4.2864     0.0408 C.3     
  19 C19           -1.3053    -4.8860     0.0550 C.3     
  20 O20           -1.9766    -4.5542    -1.1621 O.3     
  21 C21           -3.3066    -5.0690    -1.2513 C.3     
  22 C22           -3.9253    -4.6547    -2.5879 C.3     
  23 H23            3.3018    -0.4560    -0.0013 H       
  24 H24            3.1890     2.0284    -0.0106 H       
  25 H25           -2.0595     1.4714    -0.0592 H       
  26 H26           -2.9859     3.5806    -1.1455 H       
  27 H27           -3.0557     6.0323    -0.9433 H       
  28 H28            0.3463     5.9250     1.6304 H       
  29 H29            0.4165     3.4720     1.4429 H       
  30 H30            0.6307    -4.6207    -0.8520 H       
  31 H31            0.6452    -4.6129     0.9279 H       
  32 H32           -1.2376    -5.9698     0.1488 H       
  33 H33           -1.8637    -4.4823     0.8996 H       
  34 H34           -3.2805    -6.1566    -1.1846 H       
  35 H35           -3.9065    -4.6691    -0.4338 H       
  36 H36           -3.9514    -3.5671    -2.6546 H       
  37 H37           -3.3254    -5.0546    -3.4054 H       
  38 H38           -4.9398    -5.0474    -2.6559 H       
@<TRIPOS>BOND
   1    1    2 ar
   2    1    6 ar
   3    1   10 1
   4    2    3 ar
   5    3    4 ar
   6    3    7 1
   7    4    5 ar
   8    4   23 1
   9    5    6 ar
  10    5   24 1
  11    7    8 2
  12    7    9 1
  13    9   18 1
  14   10   11 1
  15   10   25 1
  16   11   12 ar
  17   11   16 ar
  18   12   13 ar
  19   12   26 1
  20   13   14 ar
  21   13   27 1
  22   14   15 ar
  23   14   17 1
  24   15   16 ar
  25   15   28 1
  26   16   29 1
  27   18   19 1
  28   18   30 1
  29   18   31 1
  30   19   20 1
  31   19   32 1
  32   19   33 1
  33   20   21 1
  34   21   22 1
  35   21   34 1
  36   21   35 1
  37   22   36 1
  38   22   37 1
  39   22   38 1

#	End of record

