#	Name: ASD11000153
#	Creating user name:	WinNT
#	Creation time:	15. 06. 2019 21:28

#	Modifying user name:	WinNT
#	Modification time:	15. 06. 2019 21:28

#	Program:	/corina/corina34_cracker 3.40 0067  02.08.2006

@<TRIPOS>MOLECULE
ASD11000153
  37   39    0    0    0
SMALL
NO_CHARGES


@<TRIPOS>ATOM
   1 C1             0.0111     1.4392    -0.0105 C.ar    
   2 C2             0.0214     0.0524    -0.0258 C.ar    
   3 C3             1.2227    -0.6293    -0.0388 C.ar    
   4 C4             2.4187     0.0732    -0.0370 C.ar    
   5 C5             2.4084     1.4600    -0.0226 C.ar    
   6 C6             1.2071     2.1417    -0.0082 C.ar    
   7 O7            -1.1716     2.1104    -0.0034 O.3     
   8 O8             3.6013    -0.5979    -0.0489 O.3     
   9 C9             4.7940     0.1893    -0.0463 C.3     
  10 C10            8.1315    -2.3338    -0.0861 C.ar    
  11 N11            7.6103    -1.9325    -1.2363 N.ar    
  12 C12            6.5554    -1.1349    -1.2589 C.ar    
  13 C13            5.9959    -0.7197    -0.0606 C.ar    
  14 C14            6.5661    -1.1584     1.1242 C.ar    
  15 N15            7.6208    -1.9552     1.0764 N.ar    
  16 N16            9.2330    -3.1737    -0.0994 N.pl3   
  17 C17            9.8683    -3.5127     1.0997 C.ar    
  18 C18           10.4220    -4.7763     1.2605 C.ar    
  19 C19           11.0487    -5.1084     2.4455 C.ar    
  20 C20           11.1254    -4.1836     3.4721 C.ar    
  21 C21           10.5742    -2.9241     3.3147 C.ar    
  22 C22            9.9517    -2.5845     2.1295 C.ar    
  23 Cl23          11.9139    -4.6044     4.9603 Cl      
  24 H24           -0.9099    -0.4946    -0.0271 H       
  25 H25            1.2308    -1.7092    -0.0500 H       
  26 H26            3.3396     2.0070    -0.0209 H       
  27 H27            1.1990     3.2216     0.0034 H       
  28 H28           -1.5139     2.2947     0.8820 H       
  29 H29            4.8103     0.8271    -0.9300 H       
  30 H30            4.8181     0.8093     0.8499 H       
  31 H31            6.1353    -0.8109    -2.1996 H       
  32 H32            6.1541    -0.8535     2.0748 H       
  33 H33            9.5637    -3.5266    -0.9402 H       
  34 H34           10.3622    -5.4985     0.4598 H       
  35 H35           11.4791    -6.0910     2.5713 H       
  36 H36           10.6351    -2.2043     4.1176 H       
  37 H37            9.5263    -1.5997     2.0052 H       
@<TRIPOS>BOND
   1    1    2 ar
   2    1    6 ar
   3    1    7 1
   4    2    3 ar
   5    2   24 1
   6    3    4 ar
   7    3   25 1
   8    4    5 ar
   9    4    8 1
  10    5    6 ar
  11    5   26 1
  12    6   27 1
  13    7   28 1
  14    8    9 1
  15    9   13 1
  16    9   29 1
  17    9   30 1
  18   10   11 ar
  19   10   15 ar
  20   10   16 1
  21   11   12 ar
  22   12   13 ar
  23   12   31 1
  24   13   14 ar
  25   14   15 ar
  26   14   32 1
  27   16   17 1
  28   16   33 1
  29   17   18 ar
  30   17   22 ar
  31   18   19 ar
  32   18   34 1
  33   19   20 ar
  34   19   35 1
  35   20   21 ar
  36   20   23 1
  37   21   22 ar
  38   21   36 1
  39   22   37 1

#	End of record

