#	Name: ASD10220068
#	Creating user name:	WinNT
#	Creation time:	15. 06. 2019 21:26

#	Modifying user name:	WinNT
#	Modification time:	15. 06. 2019 21:26

#	Program:	/corina/corina34_cracker 3.40 0067  02.08.2006

@<TRIPOS>MOLECULE
ASD10220068
  39   41    0    0    0
SMALL
NO_CHARGES


@<TRIPOS>ATOM
   1 C1             0.0031     1.5147     0.4026 C.2     
   2 C2             0.0486     0.2213     0.9762 C.2     
   3 C3            -1.0768    -0.4304     1.3351 C.2     
   4 C4            -2.4038     0.1541     1.1560 C.2     
   5 C5            -2.5345     1.4179     0.6013 C.2     
   6 C6            -1.3336     2.1684     0.2002 C.2     
   7 O7            -3.6383    -0.3056     1.4361 O.3     
   8 C8            -4.5779     0.5799     1.0992 C.2     
   9 C9            -3.9732     1.6990     0.5640 C.2     
  10 O10           -1.4214     3.2758    -0.2870 O.2     
  11 O11            1.0264     2.0871     0.0847 O.2     
  12 C12           -4.6329     2.9172     0.0619 C.2     
  13 O13           -3.9641     3.8729    -0.2832 O.2     
  14 C14           -6.1048     2.9779    -0.0222 C.ar    
  15 C15           -6.7632     4.2049     0.1007 C.ar    
  16 C16           -8.1418     4.2588     0.0215 C.ar    
  17 C17           -8.8752     3.0920    -0.1805 C.ar    
  18 C18           -8.2218     1.8681    -0.3029 C.ar    
  19 C19           -6.8430     1.8092    -0.2307 C.ar    
  20 O20          -10.2306     3.1479    -0.2580 O.3     
  21 C21          -10.7988     3.3431    -1.5545 C.3     
  22 O22           -8.9409     0.7307    -0.4997 O.3     
  23 C23           -8.2062    -0.4894    -0.6165 C.3     
  24 O24           -8.7830     5.4521     0.1415 O.3     
  25 C25           -7.9689     6.6082     0.3477 C.3     
  26 H26            1.0059    -0.2547     1.1296 H       
  27 H27           -0.9941    -1.4161     1.7686 H       
  28 H28           -5.6417     0.4428     1.2253 H       
  29 H29           -6.1951     5.1098     0.2577 H       
  30 H30           -6.3368     0.8599    -0.3257 H       
  31 H31          -11.8856     3.3686    -1.4748 H       
  32 H32          -10.4427     4.2862    -1.9691 H       
  33 H33          -10.5016     2.5234    -2.2087 H       
  34 H34           -7.6350    -0.6583     0.2964 H       
  35 H35           -8.8986    -1.3171    -0.7703 H       
  36 H36           -7.5247    -0.4234    -1.4646 H       
  37 H37           -7.3960     6.4899     1.2674 H       
  38 H38           -7.2856     6.7262    -0.4934 H       
  39 H39           -8.6040     7.4906     0.4263 H       
@<TRIPOS>BOND
   1    1    2 1
   2    1   11 2
   3    1    6 1
   4    2    3 2
   5    2   26 1
   6    3    4 1
   7    3   27 1
   8    4    5 2
   9    4    7 1
  10    5    6 1
  11    5    9 1
  12    6   10 2
  13    7    8 1
  14    8    9 2
  15    8   28 1
  16    9   12 1
  17   12   13 2
  18   12   14 1
  19   14   15 ar
  20   14   19 ar
  21   15   16 ar
  22   15   29 1
  23   16   17 ar
  24   16   24 1
  25   17   18 ar
  26   17   20 1
  27   18   19 ar
  28   18   22 1
  29   19   30 1
  30   20   21 1
  31   21   31 1
  32   21   32 1
  33   21   33 1
  34   22   23 1
  35   23   34 1
  36   23   35 1
  37   23   36 1
  38   24   25 1
  39   25   37 1
  40   25   38 1
  41   25   39 1

#	End of record

