#	Name: ASD13390004
#	Creating user name:	WinNT
#	Creation time:	15. 06. 2019 21:30

#	Modifying user name:	WinNT
#	Modification time:	15. 06. 2019 21:30

#	Program:	/corina/corina34_cracker 3.40 0067  02.08.2006

@<TRIPOS>MOLECULE
ASD13390004
  24   23    0    0    0
SMALL
NO_CHARGES


@<TRIPOS>ATOM
   1 C1            -0.0166     1.3743     0.0096 C.ar    
   2 C2             0.0021    -0.0041     0.0020 C.ar    
   3 C3             1.2242    -0.6836    -0.0133 C.ar    
   4 C4             2.4201     0.0412    -0.0209 C.ar    
   5 C5             2.3874     1.4193    -0.0132 C.ar    
   6 C6             1.1725     2.0867     0.0021 C.ar    
   7 C7             1.2517    -2.1551    -0.0210 C.2     
   8 N8             2.3937    -2.7862    -0.0354 N.2     
   9 N9             2.4178    -4.0760    -0.0421 N.2     
  10 C10            3.5709    -4.7133    -0.0566 C.2     
  11 N11            4.7458    -4.0053    -0.0645 N.pl3   
  12 N12            3.5965    -6.0848    -0.0637 N.pl3   
  13 F13            1.1473     3.4375     0.0092 F       
  14 H14           -0.9598     1.9003     0.0169 H       
  15 H15           -0.9251    -0.5579     0.0083 H       
  16 H16            3.3673    -0.4776    -0.0324 H       
  17 H17            3.3103     1.9803    -0.0190 H       
  18 H18            0.3267    -2.7125    -0.0148 H       
  19 H19            4.7277    -3.0355    -0.0594 H       
  20 H20            5.5948    -4.4745    -0.0752 H       
  21 H21            2.7657    -6.5855    -0.0581 H       
  22 H22            4.4454    -6.5540    -0.0744 H       
  23 Cl23          10.5948     8.4375     5.0169 Cl      
  24 H24           10.5948     9.8075     5.0169 H       
@<TRIPOS>BOND
   1    1    2 ar
   2    1    6 ar
   3    1   14 1
   4    2    3 ar
   5    2   15 1
   6    3    4 ar
   7    3    7 1
   8    4    5 ar
   9    4   16 1
  10    5    6 ar
  11    5   17 1
  12    6   13 1
  13    7    8 2
  14    7   18 1
  15    8    9 1
  16    9   10 2
  17   10   11 1
  18   10   12 1
  19   11   19 1
  20   11   20 1
  21   12   21 1
  22   12   22 1
  23   23   24 1

#	End of record

