#	Name: ASD10610037
#	Creating user name:	WinNT
#	Creation time:	15. 06. 2019 21:27

#	Modifying user name:	WinNT
#	Modification time:	15. 06. 2019 21:27

#	Program:	/corina/corina34_cracker 3.40 0067  02.08.2006

@<TRIPOS>MOLECULE
ASD10610037
  59   62    0    0    0
SMALL
NO_CHARGES


@<TRIPOS>ATOM
   1 C1             0.0187     1.3925    -0.5158 C.ar    
   2 C2             0.0406    -0.0105    -0.6252 C.ar    
   3 C3             1.2641    -0.6726    -0.7500 C.ar    
   4 C4             2.4407     0.0509    -0.7652 C.ar    
   5 C5             2.4160     1.4306    -0.6569 C.ar    
   6 C6             1.2153     2.1020    -0.5332 C.ar    
   7 C7            -1.2715     2.1102    -0.3888 C.ar    
   8 C8            -1.4507     3.0537     0.6219 C.ar    
   9 C9            -2.6562     3.7200     0.7347 C.ar    
  10 C10           -3.6845     3.4507    -0.1544 C.ar    
  11 C11           -3.5103     2.5156    -1.1580 C.ar    
  12 C12           -2.3085     1.8486    -1.2833 C.ar    
  13 C13           -1.2191    -0.7760    -0.6078 C.2     
  14 O14           -1.8018    -1.0107    -1.6478 O.2     
  15 O15           -1.7244    -1.2153     0.5617 O.3     
  16 C16           -4.9976     4.1792    -0.0266 C.3     
  17 C17           -4.9106     5.5195    -0.7593 C.3     
  18 N18           -6.0654     3.3684    -0.6169 N.am    
  19 C19           -7.3389     3.5287    -0.2060 C.2     
  20 O20           -7.5894     4.2783     0.7139 O.2     
  21 O21           -9.5583     1.9307     0.6426 O.3     
  22 C22           -8.6919     1.3621    -0.3479 C.3     
  23 C23           -8.4516     2.7767    -0.8896 C.3     
  24 C24           -9.8399     2.9950    -0.2755 C.3     
  25 N25           -8.4094     2.8702    -2.3510 N.am    
  26 C26           -8.4452     4.0769    -2.9503 C.2     
  27 O27           -8.4192     5.0902    -2.2789 O.2     
  28 O28           -8.5520     3.1442    -5.2944 O.3     
  29 N29           -8.6094     3.5383    -6.4359 N.2     
  30 C30           -8.6203     4.8378    -6.5026 C.2     
  31 C31           -8.5590     5.3105    -5.1728 C.2     
  32 C32           -8.5160     4.1682    -4.4209 C.2     
  33 C33           -8.6849     5.6749    -7.7540 C.3     
  34 F34           -2.8325     4.6347     1.7132 F       
  35 Cl35           1.3060    -2.4028    -0.8853 Cl      
  36 C36           -2.9681    -1.9624     0.5032 C.3     
  37 H37            3.3856    -0.4631    -0.8618 H       
  38 H38            3.3421     1.9861    -0.6696 H       
  39 H39            1.2054     3.1787    -0.4497 H       
  40 H40           -0.6496     3.2631     1.3152 H       
  41 H41           -4.3152     2.3098    -1.8481 H       
  42 H42           -2.1731     1.1216    -2.0704 H       
  43 H43           -5.2147     4.3546     1.0271 H       
  44 H44           -5.8602     6.0464    -0.6669 H       
  45 H45           -4.1161     6.1228    -0.3201 H       
  46 H46           -4.6934     5.3442    -1.8130 H       
  47 H47           -5.8558     2.7160    -1.3036 H       
  48 H48           -7.7975     0.9019     0.0723 H       
  49 H49           -9.2089     0.7108    -1.0526 H       
  50 H50          -10.6567     2.7700    -0.9614 H       
  51 H51           -9.9515     3.9654     0.2080 H       
  52 H52           -8.3557     2.0637    -2.8872 H       
  53 H53           -8.5482     6.3345    -4.8297 H       
  54 H54           -9.7270     5.8710    -8.0066 H       
  55 H55           -8.1678     6.6197    -7.5862 H       
  56 H56           -8.2068     5.1396    -8.5743 H       
  57 H57           -3.7464    -1.3386     0.0638 H       
  58 H58           -2.8282    -2.8536    -0.1086 H       
  59 H59           -3.2633    -2.2560     1.5106 H       
@<TRIPOS>BOND
   1    1    2 ar
   2    1    6 ar
   3    1    7 1
   4    2    3 ar
   5    2   13 1
   6    3    4 ar
   7    3   35 1
   8    4    5 ar
   9    4   37 1
  10    5    6 ar
  11    5   38 1
  12    6   39 1
  13    7    8 ar
  14    7   12 ar
  15    8    9 ar
  16    8   40 1
  17    9   10 ar
  18    9   34 1
  19   10   11 ar
  20   10   16 1
  21   11   12 ar
  22   11   41 1
  23   12   42 1
  24   13   14 2
  25   13   15 1
  26   15   36 1
  27   16   17 1
  28   16   18 1
  29   16   43 1
  30   17   44 1
  31   17   45 1
  32   17   46 1
  33   18   19 am
  34   18   47 1
  35   19   20 2
  36   19   23 1
  37   21   22 1
  38   21   24 1
  39   22   23 1
  40   22   48 1
  41   22   49 1
  42   23   24 1
  43   23   25 1
  44   24   50 1
  45   24   51 1
  46   25   26 am
  47   25   52 1
  48   26   27 2
  49   26   32 1
  50   28   29 1
  51   28   32 1
  52   29   30 2
  53   30   31 1
  54   30   33 1
  55   31   32 2
  56   31   53 1
  57   33   54 1
  58   33   55 1
  59   33   56 1
  60   36   57 1
  61   36   58 1
  62   36   59 1

#	End of record

