#	Name: ASD10340017
#	Creating user name:	WinNT
#	Creation time:	15. 06. 2019 21:26

#	Modifying user name:	WinNT
#	Modification time:	15. 06. 2019 21:26

#	Program:	/corina/corina34_cracker 3.40 0067  02.08.2006

@<TRIPOS>MOLECULE
ASD10340017
  70   73    0    0    0
SMALL
NO_CHARGES


@<TRIPOS>ATOM
   1 C1            -0.0167     1.3807     0.0096 C.ar    
   2 C2             0.0021    -0.0041     0.0020 C.ar    
   3 C3             1.2077    -0.6792    -0.0131 C.ar    
   4 C4             2.3962     0.0266    -0.0207 C.ar    
   5 C5             2.3799     1.4110    -0.0131 C.ar    
   6 C6             1.1726     2.0884     0.0021 C.ar    
   7 C7             3.7102    -0.7110    -0.0367 C.3     
   8 N8             4.2985    -0.6316    -1.3760 N.pl3   
   9 C9             5.5146    -1.2393    -1.6347 C.ar    
  10 C10            6.0905    -1.1704    -2.9171 C.ar    
  11 C11            7.3160    -1.7988    -3.1239 C.ar    
  12 N12            7.8926    -2.4341    -2.1160 N.ar    
  13 C13            7.3226    -2.4796    -0.9208 C.ar    
  14 N14            6.1603    -1.8925    -0.6759 N.ar    
  15 C15            5.4101    -0.4482    -4.0191 C.ar    
  16 C16            4.9533    -1.1463    -5.1355 C.ar    
  17 C17            4.3203    -0.4704    -6.1584 C.ar    
  18 C18            4.1378     0.9009    -6.0781 C.ar    
  19 C19            4.5896     1.6008    -4.9718 C.ar    
  20 C20            5.2198     0.9323    -3.9392 C.ar    
  21 N21            7.9624    -3.1555     0.1031 N.3     
  22 C22            9.2322    -3.7305    -0.3588 C.3     
  23 C23            9.8392    -4.5893     0.7530 C.3     
  24 C24           10.0715    -3.7211     1.9927 C.3     
  25 C25            8.7423    -3.0956     2.4245 C.3     
  26 C26            8.1671    -2.2801     1.2643 C.3     
  27 N27           10.5997    -4.5527     3.0824 N.4     
  28 C28           10.8215    -3.7181     4.2694 C.3     
  29 C29           11.4474    -4.5624     5.3815 C.3     
  30 C30           10.5014    -5.7138     5.7347 C.3     
  31 C31           10.2182    -6.5340     4.4728 C.3     
  32 C32            9.6378    -5.6167     3.3943 C.3     
  33 F33            5.6556     1.6142    -2.8574 F       
  34 F34            3.5173     1.5574    -7.0827 F       
  35 F35            3.5416     2.1006    -0.0200 F       
  36 F36           -1.1956     2.0405     0.0188 F       
  37 C37           11.8727    -5.1547     2.6641 C.3     
  38 H38           -0.9259    -0.5565     0.0083 H       
  39 H39            1.2214    -1.7591    -0.0187 H       
  40 H40            1.1589     3.1683     0.0077 H       
  41 H41            4.3895    -0.2589     0.6859 H       
  42 H42            3.5436    -1.7558     0.2256 H       
  43 H43            3.8357    -0.1531    -2.0815 H       
  44 H44            7.7895    -1.7684    -4.0941 H       
  45 H45            5.0950    -2.2150    -5.2001 H       
  46 H46            3.9667    -1.0113    -7.0237 H       
  47 H47            4.4457     2.6696    -4.9140 H       
  48 H48            9.0523    -4.3489    -1.2381 H       
  49 H49            9.9228    -2.9271    -0.6151 H       
  50 H50            9.1551    -5.4011     1.0003 H       
  51 H51           10.7893    -5.0034     0.4154 H       
  52 H52           10.7856    -2.9322     1.7563 H       
  53 H53            8.0410    -3.8839     2.6981 H       
  54 H54            8.9087    -2.4424     3.2811 H       
  55 H55            8.8627    -1.4835     1.0003 H       
  56 H56            7.2136    -1.8451     1.5637 H       
  57 H57           11.4923    -2.8973     4.0157 H       
  58 H58            9.8688    -3.3147     4.6125 H       
  59 H59           12.4003    -4.9662     5.0395 H       
  60 H60           11.6096    -3.9414     6.2625 H       
  61 H61           10.9673    -6.3508     6.4865 H       
  62 H62            9.5668    -5.3110     6.1250 H       
  63 H63           11.1456    -6.9787     4.1120 H       
  64 H64            9.5018    -7.3223     4.7043 H       
  65 H65            8.7104    -5.1728     3.7561 H       
  66 H66            9.4349    -6.1975     2.4946 H       
  67 H67           12.5876    -4.3662     2.4288 H       
  68 H68           12.2656    -5.7720     3.4721 H       
  69 H69           11.7097    -5.7726     1.7811 H       
  70 I70           17.5876     8.1683    11.4865 I       
@<TRIPOS>BOND
   1    1    2 ar
   2    1    6 ar
   3    1   36 1
   4    2    3 ar
   5    2   38 1
   6    3    4 ar
   7    3   39 1
   8    4    5 ar
   9    4    7 1
  10    5    6 ar
  11    5   35 1
  12    6   40 1
  13    7    8 1
  14    7   41 1
  15    7   42 1
  16    8    9 1
  17    8   43 1
  18    9   10 ar
  19    9   14 ar
  20   10   11 ar
  21   10   15 1
  22   11   12 ar
  23   11   44 1
  24   12   13 ar
  25   13   14 ar
  26   13   21 1
  27   15   16 ar
  28   15   20 ar
  29   16   17 ar
  30   16   45 1
  31   17   18 ar
  32   17   46 1
  33   18   19 ar
  34   18   34 1
  35   19   20 ar
  36   19   47 1
  37   20   33 1
  38   21   22 1
  39   21   26 1
  40   22   23 1
  41   22   48 1
  42   22   49 1
  43   23   24 1
  44   23   50 1
  45   23   51 1
  46   24   25 1
  47   24   27 1
  48   24   52 1
  49   25   26 1
  50   25   53 1
  51   25   54 1
  52   26   55 1
  53   26   56 1
  54   27   28 1
  55   27   32 1
  56   27   37 1
  57   28   29 1
  58   28   57 1
  59   28   58 1
  60   29   30 1
  61   29   59 1
  62   29   60 1
  63   30   31 1
  64   30   61 1
  65   30   62 1
  66   31   32 1
  67   31   63 1
  68   31   64 1
  69   32   65 1
  70   32   66 1
  71   37   67 1
  72   37   68 1
  73   37   69 1

#	End of record

