#	Name: ASD11400005
#	Creating user name:	WinNT
#	Creation time:	15. 06. 2019 21:29

#	Modifying user name:	WinNT
#	Modification time:	15. 06. 2019 21:29

#	Program:	/corina/corina34_cracker 3.40 0067  02.08.2006

@<TRIPOS>MOLECULE
ASD11400005
  83   89    0    0    0
SMALL
NO_CHARGES


@<TRIPOS>ATOM
   1 O1             1.3334    -0.3487    -1.7793 O.2     
   2 C2             1.1635     0.8520    -1.7601 C.2     
   3 C3             2.3502     1.7806    -1.7391 C.3     
   4 N4             3.5369     1.0674    -2.2178 N.am    
   5 S5             4.0123     1.2176    -3.7969 S.o2    
   6 O6             5.1501     0.3811    -3.9547 O.2     
   7 O7             2.8365     1.0870    -4.5841 O.2     
   8 C8             4.5769     2.8722    -4.0166 C.ar    
   9 C9             3.8199     3.7699    -4.7069 C.ar    
  10 C10            4.2511     5.0825    -4.8901 C.ar    
  11 C11            5.4417     5.5085    -4.3847 C.ar    
  12 C12            6.2489     4.6118    -3.6672 C.ar    
  13 C13            5.8065     3.2768    -3.4771 C.ar    
  14 C14            6.6340     2.3983    -2.7540 C.ar    
  15 C15            7.8181     2.8655    -2.2703 C.ar    
  16 N16            8.2075     4.1184    -2.4625 N.ar    
  17 C17            7.4857     4.9936    -3.1225 C.ar    
  18 C18            2.5907     2.2685    -0.3090 C.3     
  19 C19            3.6981     3.2906    -0.3065 C.ar    
  20 C20            3.4003     4.6312    -0.4677 C.ar    
  21 C21            4.4136     5.5701    -0.4658 C.ar    
  22 C22            5.7309     5.1669    -0.3019 C.ar    
  23 C23            6.0271     3.8212    -0.1404 C.ar    
  24 C24            5.0096     2.8868    -0.1374 C.ar    
  25 O25            6.7296     6.0886    -0.3001 O.3     
  26 S26            7.0553     6.6458     1.0783 S.o2    
  27 O27            7.9611     7.7212     0.8726 O.2     
  28 O28            5.8144     6.7934     1.7548 O.2     
  29 C29            7.9501     5.4006     1.9462 C.ar    
  30 C30            7.3177     4.6102     2.8578 C.ar    
  31 C31            8.0101     3.6205     3.5533 C.ar    
  32 C32            9.3393     3.4125     3.3431 C.ar    
  33 C33           10.0247     4.2073     2.4108 C.ar    
  34 C34            9.3176     5.2115     1.6997 C.ar    
  35 C35           10.0277     5.9940     0.7708 C.ar    
  36 C36           11.3567     5.7544     0.5956 C.ar    
  37 N37           11.9933     4.8092     1.2736 N.ar    
  38 C38           11.3946     4.0390     2.1515 C.ar    
  39 N39           -0.0865     1.3558    -1.7633 N.am    
  40 C40           -1.2585     0.4675    -1.7898 C.3     
  41 C41           -2.2074     0.8797    -0.6593 C.3     
  42 N42           -2.5109     2.3122    -0.7770 N.3     
  43 C43           -1.3010     3.1286    -0.6119 C.3     
  44 C44           -0.3150     2.8085    -1.7342 C.3     
  45 C45           -3.4987     2.6910     0.1349 C.ar    
  46 C46           -3.9308     4.0103     0.1850 C.ar    
  47 C47           -4.9080     4.3814     1.0876 C.ar    
  48 C48           -5.4563     3.4414     1.9408 C.ar    
  49 C49           -5.0285     2.1272     1.8936 C.ar    
  50 C50           -4.0554     1.7483     0.9899 C.ar    
  51 H51            2.1542     2.6354    -2.3865 H       
  52 H52            4.0443     0.5072    -1.6097 H       
  53 H53            2.8710     3.4596    -5.1189 H       
  54 H54            3.6310     5.7731    -5.4423 H       
  55 H55            5.7627     6.5286    -4.5351 H       
  56 H56            6.3359     1.3739    -2.5856 H       
  57 H57            8.4580     2.1966    -1.7140 H       
  58 H58            7.8459     6.0033    -3.2533 H       
  59 H59            1.6779     2.7208     0.0789 H       
  60 H60            2.8737     1.4246     0.3200 H       
  61 H61            2.3747     4.9445    -0.5955 H       
  62 H62            4.1806     6.6171    -0.5920 H       
  63 H63            7.0518     3.5049    -0.0127 H       
  64 H64            5.2396     1.8391    -0.0117 H       
  65 H65            6.2636     4.7529     3.0447 H       
  66 H66            7.4838     3.0087     4.2710 H       
  67 H67            9.8624     2.6420     3.8898 H       
  68 H68            9.5287     6.7688     0.2077 H       
  69 H69           11.9079     6.3511    -0.1162 H       
  70 H70           11.9561     3.2825     2.6795 H       
  71 H71           -1.7682     0.5624    -2.7486 H       
  72 H72           -0.9393    -0.5642    -1.6421 H       
  73 H73           -3.1307     0.3051    -0.7318 H       
  74 H74           -1.7327     0.6863     0.3026 H       
  75 H75           -1.5670     4.1850    -0.6500 H       
  76 H76           -0.8389     2.9039     0.3494 H       
  77 H77            0.6273     3.3254    -1.5523 H       
  78 H78           -0.7319     3.1268    -2.6897 H       
  79 H79           -3.5028     4.7450    -0.4809 H       
  80 H80           -5.2441     5.4070     1.1273 H       
  81 H81           -6.2201     3.7344     2.6460 H       
  82 H82           -5.4587     1.3956     2.5614 H       
  83 H83           -3.7219     0.7217     0.9533 H       
@<TRIPOS>BOND
   1    1    2 2
   2    2    3 1
   3    2   39 am
   4    3    4 1
   5    3   18 1
   6    3   51 1
   7    4    5 am
   8    4   52 1
   9    5    6 2
  10    5    7 2
  11    5    8 1
  12    8    9 ar
  13    8   13 ar
  14    9   10 ar
  15    9   53 1
  16   10   11 ar
  17   10   54 1
  18   11   12 ar
  19   11   55 1
  20   12   13 ar
  21   12   17 ar
  22   13   14 ar
  23   14   15 ar
  24   14   56 1
  25   15   16 ar
  26   15   57 1
  27   16   17 ar
  28   17   58 1
  29   18   19 1
  30   18   59 1
  31   18   60 1
  32   19   20 ar
  33   19   24 ar
  34   20   21 ar
  35   20   61 1
  36   21   22 ar
  37   21   62 1
  38   22   23 ar
  39   22   25 1
  40   23   24 ar
  41   23   63 1
  42   24   64 1
  43   25   26 1
  44   26   27 2
  45   26   28 2
  46   26   29 1
  47   29   30 ar
  48   29   34 ar
  49   30   31 ar
  50   30   65 1
  51   31   32 ar
  52   31   66 1
  53   32   33 ar
  54   32   67 1
  55   33   34 ar
  56   33   38 ar
  57   34   35 ar
  58   35   36 ar
  59   35   68 1
  60   36   37 ar
  61   36   69 1
  62   37   38 ar
  63   38   70 1
  64   39   40 1
  65   39   44 1
  66   40   41 1
  67   40   71 1
  68   40   72 1
  69   41   42 1
  70   41   73 1
  71   41   74 1
  72   42   43 1
  73   42   45 1
  74   43   44 1
  75   43   75 1
  76   43   76 1
  77   44   77 1
  78   44   78 1
  79   45   46 ar
  80   45   50 ar
  81   46   47 ar
  82   46   79 1
  83   47   48 ar
  84   47   80 1
  85   48   49 ar
  86   48   81 1
  87   49   50 ar
  88   49   82 1
  89   50   83 1

#	End of record

