#	Name: ASD13790010
#	Creating user name:	WinNT
#	Creation time:	15. 06. 2019 21:30

#	Modifying user name:	WinNT
#	Modification time:	15. 06. 2019 21:30

#	Program:	/corina/corina34_cracker 3.40 0067  02.08.2006

@<TRIPOS>MOLECULE
ASD13790010
  36   38    0    0    0
SMALL
NO_CHARGES


@<TRIPOS>ATOM
   1 N1            -0.0160     1.3250     0.0093 N.ar    
   2 C2             0.0021    -0.0041     0.0020 C.ar    
   3 N3             1.1621    -0.6532    -0.0121 N.ar    
   4 C4             2.3047     0.0274    -0.0194 C.ar    
   5 N5             2.2862     1.3569    -0.0125 N.ar    
   6 C6             1.1256     2.0055     0.0021 C.ar    
   7 C7             3.5989    -0.6963    -0.0346 C.ar    
   8 C8             4.7974     0.0150    -0.0422 C.ar    
   9 C9             6.0015    -0.6640    -0.0560 C.ar    
  10 C10            6.0181    -2.0490    -0.0626 C.ar    
  11 C11            4.8295    -2.7601    -0.0551 C.ar    
  12 C12            3.6206    -2.0898    -0.0356 C.ar    
  13 N13            1.1063     3.3855     0.0092 N.pl3   
  14 N14           -1.1838    -0.7103     0.0095 N.pl3   
  15 C15           -2.4622     0.0050     0.0256 C.3     
  16 C16           -3.5943    -0.9897     0.0311 C.ar    
  17 C17           -5.1405    -2.3647     1.2357 C.ar    
  18 C18           -5.6715    -2.8141     0.0411 C.ar    
  19 C19           -5.1596    -2.3562    -1.1585 C.ar    
  20 C20           -4.1212    -1.4438    -1.1636 C.ar    
  21 C21           -4.1021    -1.4524     1.2306 C.ar    
  22 F22            7.1640     0.0244    -0.0634 F       
  23 F23            4.8517    -4.1109    -0.0617 F       
  24 H24            4.7855     1.0949    -0.0378 H       
  25 H25            6.9607    -2.5760    -0.0741 H       
  26 H26            2.6943    -2.6451    -0.0256 H       
  27 H27            0.2596     3.8587     0.0195 H       
  28 H28            1.9395     3.8822     0.0039 H       
  29 H29           -1.1707    -1.6802     0.0042 H       
  30 H30           -2.5199     0.6260     0.9195 H       
  31 H31           -2.5369     0.6356    -0.8603 H       
  32 H32           -5.5405    -2.7225     2.1729 H       
  33 H33           -6.4829    -3.5270     0.0450 H       
  34 H34           -5.5744    -2.7073    -2.0918 H       
  35 H35           -3.7217    -1.0854    -2.1008 H       
  36 H36           -3.6872    -1.1013     2.1639 H       
@<TRIPOS>BOND
   1    1    2 ar
   2    1    6 ar
   3    2    3 ar
   4    2   14 1
   5    3    4 ar
   6    4    5 ar
   7    4    7 1
   8    5    6 ar
   9    6   13 1
  10    7    8 ar
  11    7   12 ar
  12    8    9 ar
  13    8   24 1
  14    9   10 ar
  15    9   22 1
  16   10   11 ar
  17   10   25 1
  18   11   12 ar
  19   11   23 1
  20   12   26 1
  21   13   27 1
  22   13   28 1
  23   14   15 1
  24   14   29 1
  25   15   16 1
  26   15   30 1
  27   15   31 1
  28   16   21 ar
  29   16   20 ar
  30   17   18 ar
  31   17   21 ar
  32   17   32 1
  33   18   19 ar
  34   18   33 1
  35   19   20 ar
  36   19   34 1
  37   20   35 1
  38   21   36 1

#	End of record

