#	Name: ASD10160027
#	Creating user name:	WinNT
#	Creation time:	15. 06. 2019 21:25

#	Modifying user name:	WinNT
#	Modification time:	15. 06. 2019 21:25

#	Program:	/corina/corina34_cracker 3.40 0067  02.08.2006

@<TRIPOS>MOLECULE
ASD10160027
  35   36    0    0    0
SMALL
NO_CHARGES


@<TRIPOS>ATOM
   1 C1             0.3053     1.8699    -0.2884 C.ar    
   2 C2             0.1879     0.6200     0.3254 C.ar    
   3 C3             1.5350     2.2724    -0.8163 C.ar    
   4 C4             2.6258     1.4366    -0.7300 C.ar    
   5 C5             2.5051     0.1939    -0.1187 C.ar    
   6 C6             1.2834    -0.2101     0.4078 C.ar    
   7 C7            -0.8680     2.7603    -0.3842 C.2     
   8 N8            -0.7529     3.9654    -0.9765 N.am    
   9 O9            -1.9384     2.4065     0.0713 O.2     
  10 S10           -2.0693     4.9643    -1.0840 S.o2    
  11 O11           -1.5863     6.1073    -1.7765 O.2     
  12 O12           -3.0865     4.1446    -1.6431 O.2     
  13 O13            3.5823    -0.6271    -0.0360 O.3     
  14 C14            4.3976    -0.5031     1.0441 C.ar    
  15 C15            4.0681     0.3645     2.0809 C.ar    
  16 C16            5.5674    -1.2439     1.1314 C.ar    
  17 N17            6.3615    -1.1276     2.1772 N.ar    
  18 C18            6.0821    -0.3116     3.1743 C.ar    
  19 C19            4.9310     0.4565     3.1620 C.ar    
  20 Cl20           4.5754     1.5274     4.4813 Cl      
  21 F21            8.1622    -0.9938     4.0917 F       
  22 F22            7.4040     1.1153     4.5346 F       
  23 C23            7.0258    -0.2183     4.3455 C.3     
  24 F24            6.3873    -0.6897     5.4976 F       
  25 C25           -2.4625     5.3818     0.6370 C.3     
  26 H26           -0.7607     0.3057     0.7349 H       
  27 H27            1.6295     3.2375    -1.2917 H       
  28 H28            3.5764     1.7468    -1.1381 H       
  29 H29            1.1935    -1.1762     0.8820 H       
  30 H30            0.1010     4.2477    -1.3398 H       
  31 H31            3.1626     0.9520     2.0441 H       
  32 H32            5.8300    -1.9234     0.3341 H       
  33 H33           -1.6084     5.8819     1.0937 H       
  34 H34           -3.3274     6.0446     0.6616 H       
  35 H35           -2.6878     4.4698     1.1897 H       
@<TRIPOS>BOND
   1    1    2 ar
   2    1    3 ar
   3    1    7 1
   4    2    6 ar
   5    2   26 1
   6    3    4 ar
   7    3   27 1
   8    4    5 ar
   9    4   28 1
  10    5    6 ar
  11    5   13 1
  12    6   29 1
  13    7    8 am
  14    7    9 2
  15    8   10 am
  16    8   30 1
  17   10   11 2
  18   10   12 2
  19   10   25 1
  20   13   14 1
  21   14   15 ar
  22   14   16 ar
  23   15   19 ar
  24   15   31 1
  25   16   17 ar
  26   16   32 1
  27   17   18 ar
  28   18   19 ar
  29   18   23 1
  30   19   20 1
  31   21   23 1
  32   22   23 1
  33   23   24 1
  34   25   33 1
  35   25   34 1
  36   25   35 1

#	End of record

