#	Name: ASD10420136
#	Creating user name:	WinNT
#	Creation time:	15. 06. 2019 21:27

#	Modifying user name:	WinNT
#	Modification time:	15. 06. 2019 21:27

#	Program:	/corina/corina34_cracker 3.40 0067  02.08.2006

@<TRIPOS>MOLECULE
ASD10420136
  44   45    0    0    0
SMALL
NO_CHARGES


@<TRIPOS>ATOM
   1 C1            -0.4446     4.5408     1.3871 C.ar    
   2 C2            -1.5919     5.3003     1.5086 C.ar    
   3 C3            -2.2718     5.7162     0.3734 C.ar    
   4 O4            -3.4012     6.4639     0.4931 O.3     
   5 C5            -1.7995     5.3697    -0.8839 C.ar    
   6 C6            -0.6520     4.6106    -1.0056 C.ar    
   7 C7             0.0278     4.1943     0.1297 C.ar    
   8 C8             4.7621     5.4223    -0.3309 C.ar    
   9 C9             3.6020     6.1381    -0.0993 C.ar    
  10 C10            2.3935     5.4789     0.0154 C.ar    
  11 N11           -2.5255     5.8132    -2.0953 N.pl3   
  12 C12            2.3443     4.0972    -0.1025 C.ar    
  13 C13            3.5101     3.3812    -0.3348 C.ar    
  14 N14           -2.0960     5.6701     2.8503 N.pl3   
  15 C15            4.7160     4.0453    -0.4483 C.ar    
  16 C16            6.0782     6.1446    -0.4613 C.3     
  17 C17            6.7318     6.2664     0.9167 C.3     
  18 N18            7.0702     4.9314     1.4164 N.am    
  19 C19            7.9862     7.0943     0.8064 C.2     
  20 O20            9.0533     6.6181     1.1136 O.2     
  21 O21            7.9180     8.3607     0.3668 O.3     
  22 O22           -2.1108     5.5090    -3.1994 O.2     
  23 O23           -3.5376     6.4822    -1.9879 O.2     
  24 O24            1.1569     3.4463     0.0100 O.3     
  25 O25           -1.4992     5.3046     3.8472 O.2     
  26 O26           -3.1077     6.3398     2.9574 O.2     
  27 C27            7.1752     4.7148     2.7425 C.2     
  28 O28            6.9896     5.6251     3.5221 O.2     
  29 C29            7.5233     3.3416     3.2564 C.3     
  30 H30            0.0870     4.2205     2.2709 H       
  31 H31           -3.2420     7.4176     0.5068 H       
  32 H32           -0.2843     4.3409    -1.9846 H       
  33 H33            3.6407     7.2135    -0.0080 H       
  34 H34            1.4877     6.0384     0.1970 H       
  35 H35            3.4746     2.3057    -0.4266 H       
  36 H36            5.6236     3.4886    -0.6291 H       
  37 H37            6.7354     5.5851    -1.1270 H       
  38 H38            5.9074     7.1399    -0.8716 H       
  39 H39            6.0385     6.7475     1.6065 H       
  40 H40            7.2187     4.2034     0.7928 H       
  41 H41            8.7490     8.8522     0.3131 H       
  42 H42            7.6518     2.6606     2.4151 H       
  43 H43            8.4500     3.3917     3.8281 H       
  44 H44            6.7199     2.9792     3.8977 H       
@<TRIPOS>BOND
   1    1    2 ar
   2    1    7 ar
   3    1   30 1
   4    2    3 ar
   5    2   14 1
   6    3    4 1
   7    3    5 ar
   8    4   31 1
   9    5    6 ar
  10    5   11 1
  11    6    7 ar
  12    6   32 1
  13    7   24 1
  14    8    9 ar
  15    8   15 ar
  16    8   16 1
  17    9   10 ar
  18    9   33 1
  19   10   12 ar
  20   10   34 1
  21   11   22 2
  22   11   23 2
  23   12   13 ar
  24   12   24 1
  25   13   15 ar
  26   13   35 1
  27   14   25 2
  28   14   26 2
  29   15   36 1
  30   16   17 1
  31   16   37 1
  32   16   38 1
  33   17   18 1
  34   17   19 1
  35   17   39 1
  36   18   27 am
  37   18   40 1
  38   19   20 2
  39   19   21 1
  40   21   41 1
  41   27   28 2
  42   27   29 1
  43   29   42 1
  44   29   43 1
  45   29   44 1

#	End of record

