#	Name: ASD14720006
#	Creating user name:	WinNT
#	Creation time:	15. 06. 2019 21:31

#	Modifying user name:	WinNT
#	Modification time:	15. 06. 2019 21:31

#	Program:	/corina/corina34_cracker 3.40 0067  02.08.2006

@<TRIPOS>MOLECULE
ASD14720006
  61   64    0    0    0
SMALL
NO_CHARGES


@<TRIPOS>ATOM
   1 N1            -0.3297     1.2752    -0.0594 N.3     
   2 C2            -0.4329    -0.1762     0.1356 C.3     
   3 C3            -0.0233    -0.9002    -1.1497 C.3     
   4 C4             1.4126    -0.5110    -1.5074 C.3     
   5 C5             1.0493     1.6778    -0.3672 C.3     
   6 C6             1.8238    -1.1805    -2.8193 C.3     
   7 C7             3.2623    -0.7834    -3.1597 C.3     
   8 C8             3.3553     0.7362    -3.3069 C.3     
   9 C9             2.9324     1.4070    -1.9976 C.3     
  10 C10            1.4929     1.0097    -1.6693 C.3     
  11 C11           -0.8414     2.0012     1.1107 C.3     
  12 C12           -2.3350     1.8217     1.1996 C.2     
  13 C13           -0.1951     1.4600     2.3599 C.ar    
  14 N14           -3.0010     0.7065     1.0244 N.2     
  15 N15           -3.2436     2.7743     1.4801 N.pl3   
  16 N16           -4.4039     2.2105     1.4587 N.2     
  17 N17           -4.2538     0.9619     1.1832 N.2     
  18 C18           -0.2391    -0.0153     4.2453 C.ar    
  19 C19            0.9908     0.4660     4.6552 C.ar    
  20 C20            1.6284     1.4482     3.9226 C.ar    
  21 C21            1.0362     1.9482     2.7717 C.ar    
  22 C22           -0.8312     0.4812     3.0990 C.ar    
  23 C23           -2.9670     4.1858     1.7580 C.3     
  24 C24           -2.3866     4.8477     0.5066 C.3     
  25 C25           -4.2657     4.8919     2.1527 C.3     
  26 C26           -1.9599     4.2920     2.9049 C.3     
  27 O27            1.6617     2.9143     2.0491 O.3     
  28 C28            2.9755     3.2894     2.4677 C.3     
  29 H29            0.2258    -0.4806     0.9490 H       
  30 H30           -1.4614    -0.4362     0.3863 H       
  31 H31           -0.0811    -1.9777    -0.9953 H       
  32 H32           -0.6921    -0.6106    -1.9601 H       
  33 H33            2.0848    -0.8289    -0.7105 H       
  34 H34            1.0954     2.7609    -0.4800 H       
  35 H35            1.7084     1.3676     0.4437 H       
  36 H36            1.7611    -2.2633    -2.7105 H       
  37 H37            1.1576    -0.8552    -3.6183 H       
  38 H38            3.9279    -1.1120    -2.3616 H       
  39 H39            3.5576    -1.2574    -4.0958 H       
  40 H40            4.3822     1.0157    -3.5426 H       
  41 H41            2.6970     1.0637    -4.1115 H       
  42 H42            3.5921     1.0825    -1.1929 H       
  43 H43            2.9954     2.4897    -2.1065 H       
  44 H44            0.8355     1.3238    -2.4801 H       
  45 H45           -0.6081     3.0613     1.0110 H       
  46 H46           -0.7361    -0.7834     4.8194 H       
  47 H47            1.4513     0.0765     5.5510 H       
  48 H48            2.5889     1.8237     4.2432 H       
  49 H49           -1.7920     0.1040     2.7811 H       
  50 H50           -3.0619     4.6899    -0.3343 H       
  51 H51           -2.2691     5.9170     0.6825 H       
  52 H52           -1.4154     4.4079     0.2802 H       
  53 H53           -4.6792     4.4203     3.0442 H       
  54 H54           -4.0599     5.9421     2.3595 H       
  55 H55           -4.9832     4.8163     1.3356 H       
  56 H56           -1.0006     3.8851     2.5848 H       
  57 H57           -1.8359     5.3384     3.1838 H       
  58 H58           -2.3257     3.7281     3.7630 H       
  59 H59            2.9374     3.6666     3.4896 H       
  60 H60            3.6322     2.4205     2.4253 H       
  61 H61            3.3590     4.0673     1.8074 H       
@<TRIPOS>BOND
   1    1    2 1
   2    1    5 1
   3    1   11 1
   4    2    3 1
   5    2   29 1
   6    2   30 1
   7    3    4 1
   8    3   31 1
   9    3   32 1
  10    4    6 1
  11    4   10 1
  12    4   33 1
  13    5   10 1
  14    5   34 1
  15    5   35 1
  16    6    7 1
  17    6   36 1
  18    6   37 1
  19    7    8 1
  20    7   38 1
  21    7   39 1
  22    8    9 1
  23    8   40 1
  24    8   41 1
  25    9   10 1
  26    9   42 1
  27    9   43 1
  28   10   44 1
  29   11   12 1
  30   11   13 1
  31   11   45 1
  32   12   15 1
  33   12   14 2
  34   13   22 ar
  35   13   21 ar
  36   14   17 1
  37   15   16 1
  38   15   23 1
  39   16   17 2
  40   18   19 ar
  41   18   22 ar
  42   18   46 1
  43   19   20 ar
  44   19   47 1
  45   20   21 ar
  46   20   48 1
  47   21   27 1
  48   22   49 1
  49   23   24 1
  50   23   25 1
  51   23   26 1
  52   24   50 1
  53   24   51 1
  54   24   52 1
  55   25   53 1
  56   25   54 1
  57   25   55 1
  58   26   56 1
  59   26   57 1
  60   26   58 1
  61   27   28 1
  62   28   59 1
  63   28   60 1
  64   28   61 1

#	End of record

