#	Name: ASD10410283
#	Creating user name:	WinNT
#	Creation time:	15. 06. 2019 21:27

#	Modifying user name:	WinNT
#	Modification time:	15. 06. 2019 21:27

#	Program:	/corina/corina34_cracker 3.40 0067  02.08.2006

@<TRIPOS>MOLECULE
ASD10410283
  80   87    0    0    0
SMALL
NO_CHARGES


@<TRIPOS>ATOM
   1 C1             1.0154    -0.5576    -0.5054 C.ar    
   2 C2            -0.0709     0.1330     0.0207 C.ar    
   3 N3             0.0730     1.3600     0.4958 N.ar    
   4 C4             1.2414     1.9732     0.4901 C.ar    
   5 C5             2.3688     1.3461    -0.0189 C.ar    
   6 C6             2.2560     0.0533    -0.5280 C.ar    
   7 N7             3.6055     2.0038    -0.0218 N.pl3   
   8 C8             4.7870     1.2680     0.0692 C.2     
   9 N9             5.9994     1.7601    -0.0212 N.2     
  10 N10            4.8662    -0.0529     0.2685 N.2     
  11 C11            6.1291    -0.4208     0.3025 C.2     
  12 N12            6.8902     0.6845     0.1246 N.pl3   
  13 N13            6.5961    -1.7079     0.4900 N.pl3   
  14 C14            8.2847     0.7433     0.0928 C.ar    
  15 C15            8.9357     1.9380    -0.0968 C.ar    
  16 N16            9.0201    -0.3582     0.2511 N.ar    
  17 N17           10.3038    -0.3473     0.2284 N.ar    
  18 C18           11.0131     0.7697     0.0436 C.ar    
  19 C19           10.3283     1.9533    -0.1228 C.ar    
  20 N20           -1.3247    -0.4732     0.0477 N.3     
  21 C21           -2.3293     0.4210     0.6399 C.3     
  22 C22           -3.7040    -0.2489     0.5785 C.3     
  23 N23           -3.6544    -1.5299     1.2971 N.3     
  24 C24           -2.6497    -2.4240     0.7049 C.3     
  25 C25           -1.2750    -1.7541     0.7662 C.3     
  26 C26           -4.9767    -2.1691     1.3255 C.3     
  27 C27           -4.8409    -3.5984     1.8544 C.3     
  28 C28           10.9148     3.3251    -0.3443 C.3     
  29 C29           10.3939     4.2353     0.7815 C.3     
  30 C30            8.8657     4.2193     0.8168 C.3     
  31 C31            8.3122     3.2980    -0.2892 C.3     
  32 C32            8.8138     3.8491    -1.6352 C.3     
  33 C33           10.3415     3.8626    -1.6670 C.3     
  34 C34           12.4956     0.7372     0.0240 C.ar    
  35 C35           -4.7455     0.6624     1.2310 C.3     
  36 C36           -6.1280    -4.3966     2.0715 C.3     
  37 C37           -5.2021    -4.7410     0.9032 C.3     
  38 C38           13.1956     0.0965     1.0467 C.ar    
  39 C39           14.5763     0.0699     1.0226 C.ar    
  40 C40           15.2641     0.6768    -0.0127 C.ar    
  41 C41           14.5748     1.3133    -1.0290 C.ar    
  42 C42           13.1948     1.3416    -1.0189 C.ar    
  43 Cl43          12.3332    -0.6649     2.3468 Cl      
  44 H44            0.8927    -1.5603    -0.8875 H       
  45 H45            1.3205     2.9749     0.8860 H       
  46 H46            3.1172    -0.4592    -0.9306 H       
  47 H47            3.6403     2.9710    -0.0870 H       
  48 H48            5.9695    -2.4383     0.6114 H       
  49 H49            7.5505    -1.8808     0.5001 H       
  50 H50           -2.0692     0.6228     1.6790 H       
  51 H51           -2.3560     1.3576     0.0829 H       
  52 H52           -3.9762    -0.4260    -0.4620 H       
  53 H53           -2.6230    -3.3606     1.2619 H       
  54 H54           -2.9099    -2.6258    -0.3342 H       
  55 H55           -0.5330    -2.4033     0.3014 H       
  56 H56           -1.0028    -1.5770     1.8068 H       
  57 H57           -5.6406    -1.6019     1.9779 H       
  58 H58           -5.3906    -2.1926     0.3175 H       
  59 H59           -4.0213    -3.7651     2.5535 H       
  60 H60           12.0043     3.2923    -0.3539 H       
  61 H61           10.7802     3.8827     1.7379 H       
  62 H62           10.7398     5.2546     0.6101 H       
  63 H63            8.5314     3.8586     1.7895 H       
  64 H64            8.4910     5.2312     0.6627 H       
  65 H65            7.2243     3.2426    -0.2497 H       
  66 H66            8.4419     3.2196    -2.4436 H       
  67 H67            8.4396     4.8638    -1.7712 H       
  68 H68           10.6883     4.8844    -1.8214 H       
  69 H69           10.6894     3.2389    -2.4905 H       
  70 H70           -4.7808     1.6131     0.6990 H       
  71 H71           -5.7245     0.1850     1.1872 H       
  72 H72           -4.4734     0.8383     2.2718 H       
  73 H73           -6.1551    -5.0887     2.9131 H       
  74 H74           -7.0715    -3.9035     1.8375 H       
  75 H75           -5.5364    -4.4745    -0.0995 H       
  76 H76           -4.6200    -5.6597     0.9762 H       
  77 H77           15.1198    -0.4253     1.8137 H       
  78 H78           16.3438     0.6538    -0.0274 H       
  79 H79           15.1175     1.7856    -1.8344 H       
  80 H80           12.6582     1.8390    -1.8132 H       
@<TRIPOS>BOND
   1    1    2 ar
   2    1    6 ar
   3    1   44 1
   4    2    3 ar
   5    2   20 1
   6    3    4 ar
   7    4    5 ar
   8    4   45 1
   9    5    6 ar
  10    5    7 1
  11    6   46 1
  12    7    8 1
  13    7   47 1
  14    8    9 2
  15    8   10 1
  16    9   12 1
  17   10   11 2
  18   11   12 1
  19   11   13 1
  20   12   14 1
  21   13   48 1
  22   13   49 1
  23   14   15 ar
  24   14   16 ar
  25   15   19 ar
  26   15   31 1
  27   16   17 ar
  28   17   18 ar
  29   18   19 ar
  30   18   34 1
  31   19   28 1
  32   20   21 1
  33   20   25 1
  34   21   22 1
  35   21   50 1
  36   21   51 1
  37   22   23 1
  38   22   35 1
  39   22   52 1
  40   23   24 1
  41   23   26 1
  42   24   25 1
  43   24   53 1
  44   24   54 1
  45   25   55 1
  46   25   56 1
  47   26   27 1
  48   26   57 1
  49   26   58 1
  50   27   36 1
  51   27   37 1
  52   27   59 1
  53   28   29 1
  54   28   33 1
  55   28   60 1
  56   29   30 1
  57   29   61 1
  58   29   62 1
  59   30   31 1
  60   30   63 1
  61   30   64 1
  62   31   32 1
  63   31   65 1
  64   32   33 1
  65   32   66 1
  66   32   67 1
  67   33   68 1
  68   33   69 1
  69   34   38 ar
  70   34   42 ar
  71   35   70 1
  72   35   71 1
  73   35   72 1
  74   36   37 1
  75   36   73 1
  76   36   74 1
  77   37   75 1
  78   37   76 1
  79   38   39 ar
  80   38   43 1
  81   39   40 ar
  82   39   77 1
  83   40   41 ar
  84   40   78 1
  85   41   42 ar
  86   41   79 1
  87   42   80 1

#	End of record

