#	Name: ASD11000186
#	Creating user name:	WinNT
#	Creation time:	15. 06. 2019 21:28

#	Modifying user name:	WinNT
#	Modification time:	15. 06. 2019 21:28

#	Program:	/corina/corina34_cracker 3.40 0067  02.08.2006

@<TRIPOS>MOLECULE
ASD11000186
  25   26    0    0    0
SMALL
NO_CHARGES


@<TRIPOS>ATOM
   1 C1            -0.0162     1.3201     0.0178 C.ar    
   2 N2             0.0010    -0.0048     0.0231 N.ar    
   3 C3             1.1465    -0.6660     0.0170 C.ar    
   4 C4             2.3370     0.0439     0.0048 C.ar    
   5 C5             2.2826     1.4289    -0.0005 C.ar    
   6 N6             1.1035     2.0283     0.0062 N.ar    
   7 N7            -1.2339     1.9804     0.0186 N.pl3   
   8 C8            -1.2737     3.3739     0.1319 C.ar    
   9 C9            -2.2517     4.0987    -0.5368 C.ar    
  10 C10           -2.2887     5.4746    -0.4232 C.ar    
  11 C11           -1.3524     6.1311     0.3561 C.ar    
  12 C12           -0.3766     5.4115     1.0232 C.ar    
  13 C13           -0.3388     4.0350     0.9180 C.ar    
  14 Cl14          -1.4018     7.8607     0.4967 Cl      
  15 C15            3.6617    -0.6746    -0.0020 C.3     
  16 Cl16           4.1772    -0.9686    -1.7045 Cl      
  17 H17            1.1542    -1.7460     0.0217 H       
  18 H18            3.1919     2.0116    -0.0096 H       
  19 H19           -2.0590     1.4764    -0.0594 H       
  20 H20           -2.9825     3.5868    -1.1454 H       
  21 H21           -3.0488     6.0386    -0.9433 H       
  22 H22            0.3531     5.9265     1.6304 H       
  23 H23            0.4198     3.4734     1.4429 H       
  24 H24            4.4092    -0.0632     0.5035 H       
  25 H25            3.5608    -1.6278     0.5169 H       
@<TRIPOS>BOND
   1    1    2 ar
   2    1    6 ar
   3    1    7 1
   4    2    3 ar
   5    3    4 ar
   6    3   17 1
   7    4    5 ar
   8    4   15 1
   9    5    6 ar
  10    5   18 1
  11    7    8 1
  12    7   19 1
  13    8    9 ar
  14    8   13 ar
  15    9   10 ar
  16    9   20 1
  17   10   11 ar
  18   10   21 1
  19   11   12 ar
  20   11   14 1
  21   12   13 ar
  22   12   22 1
  23   13   23 1
  24   15   16 1
  25   15   24 1
  26   15   25 1

#	End of record

