#	Name: ASD11000230
#	Creating user name:	WinNT
#	Creation time:	15. 06. 2019 21:29

#	Modifying user name:	WinNT
#	Modification time:	15. 06. 2019 21:29

#	Program:	/corina/corina34_cracker 3.40 0067  02.08.2006

@<TRIPOS>MOLECULE
ASD11000230
  26   27    0    0    0
SMALL
NO_CHARGES


@<TRIPOS>ATOM
   1 C1            -1.4228     1.5470    -1.1530 C.2     
   2 C2            -1.7226     0.0705    -1.1866 C.3     
   3 O3            -1.3970     2.1818    -2.1807 O.2     
   4 O4            -1.1899     2.1581     0.0194 O.3     
   5 N5            -0.5773     7.6536    -0.0915 N.am    
   6 C6            -1.6329     8.4593     0.1258 C.2     
   7 C7            -2.9919     7.8842     0.4210 C.3     
   8 C8            -3.1939     6.5923    -0.3714 C.3     
   9 C9            -1.9922     5.7005    -0.1967 C.ar    
  10 C10           -2.1455     4.3282    -0.1689 C.ar    
  11 C11           -1.0377     3.5090    -0.0081 C.ar    
  12 C12            0.2257     4.0671     0.1252 C.ar    
  13 C13            0.3811     5.4404     0.0981 C.ar    
  14 C14           -0.7298     6.2613    -0.0633 C.ar    
  15 O15           -1.4873     9.6628     0.0835 O.2     
  16 F16            1.6108     5.9845     0.2288 F       
  17 H17           -0.7920    -0.4868    -1.2939 H       
  18 H18           -2.2161    -0.2212    -0.2595 H       
  19 H19           -2.3766    -0.1483    -2.0308 H       
  20 H20            0.2941     8.0393    -0.2728 H       
  21 H21           -3.0710     7.6711     1.4871 H       
  22 H22           -3.7592     8.6053     0.1395 H       
  23 H23           -4.0835     6.0783    -0.0073 H       
  24 H24           -3.3191     6.8301    -1.4278 H       
  25 H25           -3.1284     3.8927    -0.2719 H       
  26 H26            1.0877     3.4285     0.2504 H       
@<TRIPOS>BOND
   1    1    2 1
   2    1    3 2
   3    1    4 1
   4    2   17 1
   5    2   18 1
   6    2   19 1
   7    4   11 1
   8    5    6 am
   9    5   14 1
  10    5   20 1
  11    6    7 1
  12    6   15 2
  13    7    8 1
  14    7   21 1
  15    7   22 1
  16    8    9 1
  17    8   23 1
  18    8   24 1
  19    9   10 ar
  20    9   14 ar
  21   10   11 ar
  22   10   25 1
  23   11   12 ar
  24   12   13 ar
  25   12   26 1
  26   13   14 ar
  27   13   16 1

#	End of record

