#	Name: ASD10160310
#	Creating user name:	WinNT
#	Creation time:	15. 06. 2019 21:25

#	Modifying user name:	WinNT
#	Modification time:	15. 06. 2019 21:25

#	Program:	/corina/corina34_cracker 3.40 0067  02.08.2006

@<TRIPOS>MOLECULE
ASD10160310
  22   22    0    0    0
SMALL
NO_CHARGES


@<TRIPOS>ATOM
   1 C1            -0.0179     1.4715     0.0101 C.2     
   2 C2             0.0021    -0.0041     0.0020 C.ar    
   3 C3             1.2214    -0.6898    -0.0133 C.ar    
   4 C4             1.2335    -2.0715    -0.0204 C.ar    
   5 C5             0.0417    -2.7769    -0.0123 C.ar    
   6 C6            -1.1718    -2.1012     0.0029 C.ar    
   7 C7            -1.1965    -0.7218     0.0155 C.ar    
   8 O8             1.0266     2.0937     0.0035 O.2     
   9 N9            -1.1942     2.1294     0.0193 N.am    
  10 S10           -1.2166     3.7853     0.0284 S.o2    
  11 O11           -2.5980     4.1168     0.0625 O.2     
  12 O12           -0.3511     4.1416     1.0975 O.2     
  13 C13           -0.4880     4.2566    -1.5646 C.3     
  14 F14           -2.3302    -2.7962     0.0103 F       
  15 F15            0.0595    -4.1278    -0.0197 F       
  16 F16            2.3846    -0.0026    -0.0216 F       
  17 H17            2.1740    -2.6022    -0.0326 H       
  18 H18           -2.1408    -0.1978     0.0314 H       
  19 H19           -2.0275     1.6331     0.0205 H       
  20 H20           -1.0900     3.8459    -2.3752 H       
  21 H21           -0.4628     5.3433    -1.6453 H       
  22 H22            0.5266     3.8638    -1.6305 H       
@<TRIPOS>BOND
   1    1    2 1
   2    1    8 2
   3    1    9 am
   4    2    3 ar
   5    2    7 ar
   6    3    4 ar
   7    3   16 1
   8    4    5 ar
   9    4   17 1
  10    5    6 ar
  11    5   15 1
  12    6    7 ar
  13    6   14 1
  14    7   18 1
  15    9   10 am
  16    9   19 1
  17   10   11 2
  18   10   12 2
  19   10   13 1
  20   13   20 1
  21   13   21 1
  22   13   22 1

#	End of record

