#	Name: ASD13760001
#	Creating user name:	WinNT
#	Creation time:	15. 06. 2019 21:30

#	Modifying user name:	WinNT
#	Modification time:	15. 06. 2019 21:30

#	Program:	/corina/corina34_cracker 3.40 0067  02.08.2006

@<TRIPOS>MOLECULE
ASD13760001
  63   66    0    0    0
SMALL
NO_CHARGES


@<TRIPOS>ATOM
   1 C1             0.0149     1.4010    -0.1184 C.3     
   2 N2            -0.1043    -0.0518    -0.1201 N.2     
   3 C3             0.8290    -0.8302     0.3218 C.2     
   4 N4             2.0111    -0.3223     0.8211 N.pl3   
   5 C5             2.3700     0.9680     0.5301 C.2     
   6 C6             1.4424     1.8298     0.0699 C.2     
   7 C7             0.6249    -2.2981     0.2918 C.ar    
   8 C8            -0.5653    -2.8198    -0.2101 C.ar    
   9 C9            -0.7416    -4.1935    -0.2317 C.ar    
  10 C10            0.2793    -4.9993     0.2498 C.ar    
  11 C11            1.4358    -4.4126     0.7342 C.ar    
  12 N12            1.5795    -3.1043     0.7382 N.ar    
  13 C13           -0.8214     1.9637     1.0019 C.ar    
  14 C14           -1.0552     1.2085     2.1360 C.ar    
  15 C15           -1.8220     1.7232     3.1639 C.ar    
  16 C16           -2.3566     2.9964     3.0584 C.ar    
  17 C17           -2.1222     3.7527     1.9231 C.ar    
  18 C18           -1.3500     3.2379     0.8973 C.ar    
  19 C19            1.8176     3.1571    -0.2400 C.2     
  20 O20            2.0144     3.4794    -1.3968 O.2     
  21 O21            1.9575     4.0667     0.7471 O.3     
  22 C22            2.3388     5.3888     0.3616 C.3     
  23 C23            3.7943     1.4203     0.7242 C.3     
  24 N24            4.1431     1.3420     2.1491 N.3     
  25 C25            5.5834     1.5455     2.3503 C.3     
  26 C26            5.9319     1.3136     3.8223 C.3     
  27 C27            5.1334     2.2897     4.6907 C.3     
  28 C28            3.6384     2.0902     4.4264 C.3     
  29 C29            3.3564     2.2996     2.9368 C.3     
  30 C30            5.4317     2.0221     6.1673 C.3     
  31 C31            4.5751     2.8783     7.0039 C.1     
  32 C32            5.1611     0.6081     6.4741 C.1     
  33 C33            4.9454    -0.5197     6.7188 C.1     
  34 C34            3.8919     3.5612     7.6712 C.1     
  35 Cl35          -1.0498     4.1881    -0.5242 Cl      
  36 F36           -3.1070     3.4997     4.0628 F       
  37 O37            6.8045     2.3137     6.4364 O.3     
  38 H38           -0.3528     1.7907    -1.0676 H       
  39 H39            2.5843    -0.8750     1.3750 H       
  40 H40           -1.3398    -2.1625    -0.5769 H       
  41 H41           -1.6536    -4.6273    -0.6145 H       
  42 H42            0.1729    -6.0741     0.2472 H       
  43 H43            2.2327    -5.0371     1.1103 H       
  44 H44           -0.6387     0.2154     2.2184 H       
  45 H45           -2.0045     1.1326     4.0494 H       
  46 H46           -2.5387     4.7457     1.8399 H       
  47 H47            3.3033     5.3557    -0.1450 H       
  48 H48            1.5882     5.8014    -0.3126 H       
  49 H49            2.4156     6.0179     1.2485 H       
  50 H50            4.4614     0.7765     0.1510 H       
  51 H51            3.8987     2.4495     0.3807 H       
  52 H52            6.1396     0.8424     1.7303 H       
  53 H53            5.8487     2.5650     2.0705 H       
  54 H54            5.6796     0.2900     4.0992 H       
  55 H55            6.9984     1.4799     3.9743 H       
  56 H56            5.4141     3.3129     4.4410 H       
  57 H57            3.3500     1.0788     4.7127 H       
  58 H58            3.0663     2.8114     5.0100 H       
  59 H59            3.6322     3.3155     2.6543 H       
  60 H60            2.2951     2.1442     2.7428 H       
  61 H61            4.7524    -1.5283     6.9377 H       
  62 H62            3.2809     4.1720     8.2679 H       
  63 H63            7.4276     1.7852     5.9191 H       
@<TRIPOS>BOND
   1    1    2 1
   2    1    6 1
   3    1   13 1
   4    1   38 1
   5    2    3 2
   6    3    4 1
   7    3    7 1
   8    4    5 1
   9    4   39 1
  10    5    6 2
  11    5   23 1
  12    6   19 1
  13    7    8 ar
  14    7   12 ar
  15    8    9 ar
  16    8   40 1
  17    9   10 ar
  18    9   41 1
  19   10   11 ar
  20   10   42 1
  21   11   12 ar
  22   11   43 1
  23   13   14 ar
  24   13   18 ar
  25   14   15 ar
  26   14   44 1
  27   15   16 ar
  28   15   45 1
  29   16   17 ar
  30   16   36 1
  31   17   18 ar
  32   17   46 1
  33   18   35 1
  34   19   20 2
  35   19   21 1
  36   21   22 1
  37   22   47 1
  38   22   48 1
  39   22   49 1
  40   23   24 1
  41   23   50 1
  42   23   51 1
  43   24   25 1
  44   24   29 1
  45   25   26 1
  46   25   52 1
  47   25   53 1
  48   26   27 1
  49   26   54 1
  50   26   55 1
  51   27   28 1
  52   27   30 1
  53   27   56 1
  54   28   29 1
  55   28   57 1
  56   28   58 1
  57   29   59 1
  58   29   60 1
  59   30   31 1
  60   30   32 1
  61   30   37 1
  62   31   34 3
  63   32   33 3
  64   33   61 1
  65   34   62 1
  66   37   63 1

#	End of record

