#	Name: ASD13790007
#	Creating user name:	WinNT
#	Creation time:	15. 06. 2019 21:30

#	Modifying user name:	WinNT
#	Modification time:	15. 06. 2019 21:30

#	Program:	/corina/corina34_cracker 3.40 0067  02.08.2006

@<TRIPOS>MOLECULE
ASD13790007
  42   44    0    0    0
SMALL
NO_CHARGES


@<TRIPOS>ATOM
   1 N1            -0.0160     1.3250     0.0093 N.ar    
   2 C2             0.0021    -0.0041     0.0020 C.ar    
   3 N3             1.1621    -0.6532    -0.0121 N.ar    
   4 C4             2.3047     0.0274    -0.0194 C.ar    
   5 N5             2.2862     1.3570    -0.0125 N.ar    
   6 C6             1.1256     2.0055     0.0021 C.ar    
   7 C7             3.5988    -0.6962    -0.0346 C.ar    
   8 C8             3.6210    -2.0900    -0.0414 C.ar    
   9 C9             4.8285    -2.7581    -0.0555 C.ar    
  10 C10            6.0152    -2.0474    -0.0626 C.ar    
  11 C11            5.9993    -0.6642    -0.0559 C.ar    
  12 C12            4.7978     0.0147    -0.0480 C.ar    
  13 N13            1.1063     3.3855     0.0092 N.pl3   
  14 C14           -0.9949     7.8398     0.0513 C.ar    
  15 C15           -0.6221     9.8755     1.2553 C.ar    
  16 C16           -0.8613     8.5140     1.2507 C.ar    
  17 C17           -0.8893     8.5271    -1.1434 C.ar    
  18 C18           -0.6558     9.8896    -1.1387 C.ar    
  19 C19           -0.5283    10.5648     0.0607 C.ar    
  20 N20           -1.1838    -0.7103     0.0095 N.pl3   
  21 C21           -0.1725     4.1002     0.0248 C.3     
  22 C22           -1.2495     6.3545     0.0462 C.3     
  23 C23            0.0860     5.6082     0.0300 C.3     
  24 H24            2.6951    -2.6459    -0.0352 H       
  25 H25            4.8469    -3.8379    -0.0608 H       
  26 H26            6.9578    -2.5744    -0.0729 H       
  27 H27            6.9289    -0.1144    -0.0611 H       
  28 H28            4.7865     1.0946    -0.0477 H       
  29 H29            1.9394     3.8823     0.0039 H       
  30 H30           -0.5180    10.4024     2.1923 H       
  31 H31           -0.9441     7.9772     2.1841 H       
  32 H32           -0.9889     7.9995    -2.0805 H       
  33 H33           -0.5726    10.4264    -2.0722 H       
  34 H34           -0.3414    11.6285     0.0643 H       
  35 H35           -2.0302    -0.2367     0.0202 H       
  36 H36           -1.1707    -1.6802     0.0042 H       
  37 H37           -0.7486     3.8333    -0.8612 H       
  38 H38           -0.7320     3.8244     0.9187 H       
  39 H39           -1.8090     6.0787     0.9401 H       
  40 H40           -1.8256     6.0877    -0.8398 H       
  41 H41            0.6621     5.8750     0.9160 H       
  42 H42            0.6455     5.8840    -0.8639 H       
@<TRIPOS>BOND
   1    1    2 ar
   2    1    6 ar
   3    2    3 ar
   4    2   20 1
   5    3    4 ar
   6    4    5 ar
   7    4    7 1
   8    5    6 ar
   9    6   13 1
  10    7    8 ar
  11    7   12 ar
  12    8    9 ar
  13    8   24 1
  14    9   10 ar
  15    9   25 1
  16   10   11 ar
  17   10   26 1
  18   11   12 ar
  19   11   27 1
  20   12   28 1
  21   13   21 1
  22   13   29 1
  23   14   17 ar
  24   14   22 1
  25   14   16 ar
  26   15   16 ar
  27   15   19 ar
  28   15   30 1
  29   16   31 1
  30   17   18 ar
  31   17   32 1
  32   18   19 ar
  33   18   33 1
  34   19   34 1
  35   20   35 1
  36   20   36 1
  37   21   23 1
  38   21   37 1
  39   21   38 1
  40   22   23 1
  41   22   39 1
  42   22   40 1
  43   23   41 1
  44   23   42 1

#	End of record

