#	Name: ASD14640003
#	Creating user name:	WinNT
#	Creation time:	15. 06. 2019 21:31

#	Modifying user name:	WinNT
#	Modification time:	15. 06. 2019 21:31

#	Program:	/corina/corina34_cracker 3.40 0067  02.08.2006

@<TRIPOS>MOLECULE
ASD14640003
  41   44    0    0    0
SMALL
NO_CHARGES


@<TRIPOS>ATOM
   1 C1            -0.0178     1.4593     0.0101 C.2     
   2 C2            -1.2526     2.0848     0.0194 C.2     
   3 N3            -2.3704     1.3600     0.0208 N.2     
   4 N4            -1.2048    -0.6676     0.0042 N.pl3   
   5 C5            -2.3661     0.0468     0.0136 C.2     
   6 C6             0.0021    -0.0041     0.0020 C.2     
   7 N7             0.9455    -0.9197    -0.0111 N.2     
   8 N8             0.4095    -2.0908    -0.0123 N.2     
   9 C9            -0.8941    -1.9940    -0.0001 C.2     
  10 N10           -3.5635    -0.6249     0.0161 N.pl3   
  11 C11           -4.8231     0.1232     0.0267 C.3     
  12 C12           -5.9805    -0.8419     0.0275 C.2     
  13 C13           -7.5750    -2.1694    -0.6837 C.2     
  14 O14           -6.5856    -1.3435    -1.0616 O.3     
  15 C15           -6.5791    -1.3516     1.1189 C.2     
  16 C16           -7.6085    -2.2055     0.6605 C.2     
  17 C17            1.2387     2.2432     0.0023 C.ar    
  18 C18            1.5735     3.0405     1.0968 C.ar    
  19 C19            2.7458     3.7681     1.0837 C.ar    
  20 C20            3.5882     3.7084    -0.0121 C.ar    
  21 C21            3.2617     2.9194    -1.1007 C.ar    
  22 C22            2.0951     2.1827    -1.0972 C.ar    
  23 S23            5.0828     4.6414    -0.0216 S.o2    
  24 O24            5.3533     4.8559    -1.4000 O.2     
  25 O25            4.8211     5.7313     0.8519 O.2     
  26 C26            6.3169     3.5269     0.7033 C.3     
  27 H27           -1.3100     3.1633     0.0259 H       
  28 H28           -1.5959    -2.8149     0.0042 H       
  29 H29           -3.5755    -1.5948     0.0109 H       
  30 H30           -4.8685     0.7456     0.9203 H       
  31 H31           -4.8777     0.7553    -0.8596 H       
  32 H32           -8.2307    -2.7143    -1.3467 H       
  33 H33           -6.3222    -1.1481     2.1480 H       
  34 H34           -8.2912    -2.7766     1.2722 H       
  35 H35            0.9163     3.0885     1.9525 H       
  36 H36            3.0061     4.3859     1.9305 H       
  37 H37            3.9232     2.8771    -1.9533 H       
  38 H38            1.8433     1.5639    -1.9458 H       
  39 H39            6.3954     2.6264     0.0942 H       
  40 H40            7.2841     4.0283     0.7370 H       
  41 H41            6.0125     3.2562     1.7144 H       
@<TRIPOS>BOND
   1    1    6 1
   2    1   17 1
   3    1    2 2
   4    2    3 1
   5    2   27 1
   6    3    5 2
   7    4    5 1
   8    4    9 1
   9    4    6 1
  10    5   10 1
  11    6    7 2
  12    7    8 1
  13    8    9 2
  14    9   28 1
  15   10   11 1
  16   10   29 1
  17   11   12 1
  18   11   30 1
  19   11   31 1
  20   12   15 2
  21   12   14 1
  22   13   14 1
  23   13   16 2
  24   13   32 1
  25   15   16 1
  26   15   33 1
  27   16   34 1
  28   17   18 ar
  29   17   22 ar
  30   18   19 ar
  31   18   35 1
  32   19   20 ar
  33   19   36 1
  34   20   21 ar
  35   20   23 1
  36   21   22 ar
  37   21   37 1
  38   22   38 1
  39   23   24 2
  40   23   25 2
  41   23   26 1
  42   26   39 1
  43   26   40 1
  44   26   41 1

#	End of record

