#	Name: ASD10160090
#	Creating user name:	WinNT
#	Creation time:	15. 06. 2019 21:25

#	Modifying user name:	WinNT
#	Modification time:	15. 06. 2019 21:25

#	Program:	/corina/corina34_cracker 3.40 0067  02.08.2006

@<TRIPOS>MOLECULE
ASD10160090
  45   46    0    0    0
SMALL
NO_CHARGES


@<TRIPOS>ATOM
   1 C1            -2.2282    -2.6062     4.8633 C.2     
   2 C2            -1.6268    -3.0083     3.5785 C.ar    
   3 C3            -0.3021    -3.4587     3.5338 C.ar    
   4 C4             0.2564    -3.8339     2.3285 C.ar    
   5 C5            -0.4938    -3.7650     1.1622 C.ar    
   6 C6            -1.8118    -3.3170     1.2024 C.ar    
   7 C7            -2.3797    -2.9463     2.4019 C.ar    
   8 O8            -1.5733    -2.6656     5.8862 O.2     
   9 N9            -3.5020    -2.1677     4.9032 N.am    
  10 S10           -4.1774    -1.7161     6.3462 S.o2    
  11 O11           -5.5069    -1.3441     6.0096 O.2     
  12 O12           -3.9206    -2.8133     7.2119 O.2     
  13 C13           -3.2203    -0.2630     6.8589 C.3     
  14 F14           -2.5366    -3.2512     0.0642 F       
  15 F15            0.4285    -3.5256     4.6682 F       
  16 O16            0.0593    -4.1349    -0.0209 O.3     
  17 C17            2.4218    -3.8528    -0.1445 C.ar    
  18 C18            1.3101    -4.6677    -0.0019 C.ar    
  19 C19            1.4897    -6.0385     0.1616 C.ar    
  20 C20            2.7815    -6.5371     0.1752 C.ar    
  21 C21            3.8478    -5.6584     0.0263 C.ar    
  22 N22            3.6389    -4.3620    -0.1268 N.ar    
  23 O23            5.1185    -6.1368     0.0387 O.3     
  24 C24            6.1719    -5.1841    -0.1189 C.3     
  25 C25            7.5211    -5.9045    -0.0793 C.3     
  26 C26            6.0152    -4.4681    -1.4619 C.3     
  27 C27            6.1071    -4.1598     1.0158 C.3     
  28 F28            7.5803    -6.8411    -1.1168 F       
  29 F29            8.5524    -4.9718    -0.2336 F       
  30 F30            7.6644    -6.5592     1.1487 F       
  31 Cl31           3.0653    -8.2379     0.3763 Cl      
  32 H32            1.2784    -4.1812     2.2926 H       
  33 H33           -3.4036    -2.6039     2.4325 H       
  34 H34           -4.0231    -2.1165     4.0866 H       
  35 H35           -3.3129     0.5179     6.1042 H       
  36 H36           -3.6011     0.1053     7.8115 H       
  37 H37           -2.1716    -0.5391     6.9692 H       
  38 H38            2.2903    -2.7890    -0.2763 H       
  39 H39            0.6416    -6.6974     0.2754 H       
  40 H40            5.0540    -3.9549    -1.4901 H       
  41 H41            6.8187    -3.7414    -1.5821 H       
  42 H42            6.0613    -5.1978    -2.2703 H       
  43 H43            6.2187    -4.6699     1.9726 H       
  44 H44            6.9106    -3.4331     0.8956 H       
  45 H45            5.1459    -3.6466     0.9876 H       
@<TRIPOS>BOND
   1    1    2 1
   2    1    8 2
   3    1    9 am
   4    2    3 ar
   5    2    7 ar
   6    3    4 ar
   7    3   15 1
   8    4    5 ar
   9    4   32 1
  10    5    6 ar
  11    5   16 1
  12    6    7 ar
  13    6   14 1
  14    7   33 1
  15    9   10 am
  16    9   34 1
  17   10   11 2
  18   10   12 2
  19   10   13 1
  20   13   35 1
  21   13   36 1
  22   13   37 1
  23   16   18 1
  24   17   18 ar
  25   17   22 ar
  26   17   38 1
  27   18   19 ar
  28   19   20 ar
  29   19   39 1
  30   20   21 ar
  31   20   31 1
  32   21   22 ar
  33   21   23 1
  34   23   24 1
  35   24   25 1
  36   24   26 1
  37   24   27 1
  38   25   28 1
  39   25   29 1
  40   25   30 1
  41   26   40 1
  42   26   41 1
  43   26   42 1
  44   27   43 1
  45   27   44 1
  46   27   45 1

#	End of record

