#	Name: ASD10160542
#	Creating user name:	WinNT
#	Creation time:	15. 06. 2019 21:26

#	Modifying user name:	WinNT
#	Modification time:	15. 06. 2019 21:26

#	Program:	/corina/corina34_cracker 3.40 0067  02.08.2006

@<TRIPOS>MOLECULE
ASD10160542
  51   54    0    0    0
SMALL
NO_CHARGES


@<TRIPOS>ATOM
   1 C1            -0.3991     1.1078    -1.9464 C.2     
   2 C2            -0.2791    -0.2704    -1.4402 C.ar    
   3 C3             0.9052    -0.9914    -1.6392 C.ar    
   4 C4             1.0122    -2.2820    -1.1623 C.ar    
   5 C5            -0.0520    -2.8649    -0.4865 C.ar    
   6 C6            -1.2305    -2.1516    -0.2873 C.ar    
   7 C7            -1.3451    -0.8612    -0.7542 C.ar    
   8 O8             0.5302     1.6210    -2.5378 O.2     
   9 O9            -1.5416     1.7975    -1.7586 O.3     
  10 F10            1.9403    -0.4248    -2.2970 F       
  11 O11            0.0574    -4.1342    -0.0193 O.3     
  12 C12            1.5466    -5.5241    -1.2587 C.ar    
  13 C13            1.2595    -4.7566    -0.1387 C.ar    
  14 C14            2.2203    -4.6333     0.8599 C.ar    
  15 C15            3.4312    -5.2861     0.6930 C.ar    
  16 C16            3.6434    -6.0325    -0.4508 C.ar    
  17 N17            2.7114    -6.1292    -1.3788 N.ar    
  18 C18            4.9577    -6.7451    -0.6401 C.3     
  19 C19            4.9209    -8.2675    -0.7878 C.3     
  20 C20            5.2227    -7.3881    -2.0029 C.3     
  21 C21            4.5043    -5.1830     1.7460 C.3     
  22 C22            5.0406    -3.7881     2.0739 C.3     
  23 C23            4.1328    -4.5123     3.0700 C.3     
  24 Cl24          -2.5562    -2.8877     0.5579 Cl      
  25 C25           -1.5890     3.1502    -2.2842 C.3     
  26 C26           -1.3732     3.1168    -3.7985 C.3     
  27 C27           -2.9540     3.7692    -1.9771 C.3     
  28 C28           -0.4896     3.9900    -1.6308 C.3     
  29 H29            1.9244    -2.8396    -1.3152 H       
  30 H30           -2.2587    -0.3077    -0.5948 H       
  31 H31            0.8063    -5.6303    -2.0379 H       
  32 H32            2.0273    -4.0428     1.7434 H       
  33 H33            5.8079    -6.3108    -0.1143 H       
  34 H34            5.7473    -8.8348    -0.3594 H       
  35 H35            3.9462    -8.7537    -0.7480 H       
  36 H36            4.4464    -7.2957    -2.7625 H       
  37 H37            6.2475    -7.3768    -2.3740 H       
  38 H38            5.2083    -6.0144     1.7827 H       
  39 H39            6.0974    -3.7019     2.3268 H       
  40 H40            4.6173    -2.9450     1.5281 H       
  41 H41            3.1121    -4.1456     3.1795 H       
  42 H42            4.5922    -4.9025     3.9782 H       
  43 H43           -2.1564     2.5185    -4.2640 H       
  44 H44           -1.4087     4.1323    -4.1931 H       
  45 H45           -0.4007     2.6758    -4.0173 H       
  46 H46           -3.1078     3.7930    -0.8982 H       
  47 H47           -2.9896     4.7846    -2.3716 H       
  48 H48           -3.7373     3.1709    -2.4426 H       
  49 H49            0.4830     3.5491    -1.8496 H       
  50 H50           -0.5251     5.0055    -2.0253 H       
  51 H51           -0.6433     4.0138    -0.5519 H       
@<TRIPOS>BOND
   1    1    2 1
   2    1    8 2
   3    1    9 1
   4    2    3 ar
   5    2    7 ar
   6    3    4 ar
   7    3   10 1
   8    4    5 ar
   9    4   29 1
  10    5    6 ar
  11    5   11 1
  12    6    7 ar
  13    6   24 1
  14    7   30 1
  15    9   25 1
  16   11   13 1
  17   12   13 ar
  18   12   17 ar
  19   12   31 1
  20   13   14 ar
  21   14   15 ar
  22   14   32 1
  23   15   16 ar
  24   15   21 1
  25   16   17 ar
  26   16   18 1
  27   18   19 1
  28   18   20 1
  29   18   33 1
  30   19   20 1
  31   19   34 1
  32   19   35 1
  33   20   36 1
  34   20   37 1
  35   21   22 1
  36   21   23 1
  37   21   38 1
  38   22   23 1
  39   22   39 1
  40   22   40 1
  41   23   41 1
  42   23   42 1
  43   25   26 1
  44   25   28 1
  45   25   27 1
  46   26   43 1
  47   26   44 1
  48   26   45 1
  49   27   46 1
  50   27   47 1
  51   27   48 1
  52   28   49 1
  53   28   50 1
  54   28   51 1

#	End of record

