#	Name: ASD10410307
#	Creating user name:	WinNT
#	Creation time:	15. 06. 2019 21:27

#	Modifying user name:	WinNT
#	Modification time:	15. 06. 2019 21:27

#	Program:	/corina/corina34_cracker 3.40 0067  02.08.2006

@<TRIPOS>MOLECULE
ASD10410307
  76   82    0    0    0
SMALL
NO_CHARGES


@<TRIPOS>ATOM
   1 C1             1.1424    -0.5524    -0.5039 C.ar    
   2 C2            -0.0138     0.0225     0.0108 C.ar    
   3 C3             0.0317     1.2992     0.5271 C.ar    
   4 C4             1.2234     2.0082     0.5149 C.ar    
   5 C5             2.3757     1.4369    -0.0040 C.ar    
   6 C6             2.3306     0.1454    -0.5136 C.ar    
   7 N7             3.5738     2.1558    -0.0145 N.pl3   
   8 C8             3.5514     3.5479    -0.1062 C.2     
   9 N9             4.5985     4.3334    -0.0243 N.2     
  10 N10            2.4589     4.2964    -0.2976 N.2     
  11 C11            2.7944     5.5683    -0.3350 C.2     
  12 N12            4.1345     5.6510    -0.1674 N.pl3   
  13 N13            1.9305     6.6320    -0.5166 N.pl3   
  14 C14            4.9051     6.8178    -0.1417 C.ar    
  15 C15           -1.2794    -0.7927    -0.0394 C.3     
  16 C16           -2.3043    -0.2687     0.9650 C.3     
  17 N17           -2.3815     1.1936     0.8130 N.am    
  18 C18           -1.1775     1.9688     1.1306 C.3     
  19 C19           -3.5135     1.7960     0.3981 C.2     
  20 C20            6.1184     6.8159     0.5315 C.ar    
  21 N21            4.4620     7.9048    -0.7680 N.ar    
  22 C22            5.1567     9.0054    -0.7622 C.ar    
  23 C23            6.3868     9.0929    -0.1033 C.ar    
  24 C24            6.8923     7.9838     0.5589 C.ar    
  25 C25            4.7588    10.3049    -1.4380 C.3     
  26 C26            4.7570    11.3803    -0.3321 C.3     
  27 C27            6.1065    11.3693     0.3893 C.3     
  28 N28            6.9975    10.3484    -0.1962 N.3     
  29 C29            7.2331    10.6724    -1.6169 C.3     
  30 C30            5.9150    10.6627    -2.3943 C.3     
  31 C31            8.1927     8.0336     1.2700 C.ar    
  32 C32            8.2893     7.5789     2.5840 C.ar    
  33 C33            9.5022     7.6272     3.2406 C.ar    
  34 C34           10.6206     8.1261     2.5974 C.ar    
  35 C35           10.5305     8.5792     1.2935 C.ar    
  36 C36            9.3242     8.5299     0.6249 C.ar    
  37 C37           -3.5594     3.2953     0.2528 C.3     
  38 N38           -4.8931     3.7018    -0.2096 N.3     
  39 C39           -5.0537     5.1602    -0.1371 C.3     
  40 O40           -4.4951     1.1315     0.1416 O.2     
  41 C41           -5.1509     3.2108    -1.5700 C.3     
  42 H42            1.1101    -1.5581    -0.8963 H       
  43 H43            1.2543     3.0121     0.9118 H       
  44 H44            3.2235    -0.3101    -0.9156 H       
  45 H45            4.4212     1.6870     0.0419 H       
  46 H46            0.9807     6.4714    -0.6308 H       
  47 H47            2.2741     7.5390    -0.5300 H       
  48 H48           -1.7010    -0.7386    -1.0431 H       
  49 H49           -1.0463    -1.8314     0.1951 H       
  50 H50           -3.2791    -0.7123     0.7625 H       
  51 H51           -1.9884    -0.5179     1.9780 H       
  52 H52           -1.0581     2.0264     2.2125 H       
  53 H53           -1.2761     2.9750     0.7231 H       
  54 H54            6.4632     5.9222     1.0304 H       
  55 H55            3.7966    10.2306    -1.9447 H       
  56 H56            4.5913    12.3607    -0.7786 H       
  57 H57            3.9614    11.1664     0.3817 H       
  58 H58            6.5726    12.3501     0.2953 H       
  59 H59            5.9486    11.1465     1.4445 H       
  60 H60            7.6875    11.6604    -1.6905 H       
  61 H61            7.9105     9.9348    -2.0471 H       
  62 H62            5.9691     9.9222    -3.1924 H       
  63 H63            5.7393    11.6488    -2.8243 H       
  64 H64            7.4166     7.1898     3.0874 H       
  65 H65            9.5782     7.2751     4.2588 H       
  66 H66           11.5676     8.1624     3.1153 H       
  67 H67           11.4068     8.9681     0.7963 H       
  68 H68            9.2550     8.8840    -0.3931 H       
  69 H69           -3.3517     3.7602     1.2166 H       
  70 H70           -2.8107     3.6132    -0.4728 H       
  71 H71           -4.3042     5.6400    -0.7666 H       
  72 H72           -6.0497     5.4339    -0.4852 H       
  73 H73           -4.9262     5.4889     0.8943 H       
  74 H74           -5.0941     2.1224    -1.5803 H       
  75 H75           -6.1448     3.5258    -1.8877 H       
  76 H76           -4.4050     3.6200    -2.2513 H       
@<TRIPOS>BOND
   1    1    2 ar
   2    1    6 ar
   3    1   42 1
   4    2    3 ar
   5    2   15 1
   6    3    4 ar
   7    3   18 1
   8    4    5 ar
   9    4   43 1
  10    5    6 ar
  11    5    7 1
  12    6   44 1
  13    7    8 1
  14    7   45 1
  15    8    9 2
  16    8   10 1
  17    9   12 1
  18   10   11 2
  19   11   12 1
  20   11   13 1
  21   12   14 1
  22   13   46 1
  23   13   47 1
  24   14   20 ar
  25   14   21 ar
  26   15   16 1
  27   15   48 1
  28   15   49 1
  29   16   17 1
  30   16   50 1
  31   16   51 1
  32   17   18 1
  33   17   19 am
  34   18   52 1
  35   18   53 1
  36   19   37 1
  37   19   40 2
  38   20   24 ar
  39   20   54 1
  40   21   22 ar
  41   22   23 ar
  42   22   25 1
  43   23   24 ar
  44   23   28 1
  45   24   31 1
  46   25   26 1
  47   25   30 1
  48   25   55 1
  49   26   27 1
  50   26   56 1
  51   26   57 1
  52   27   28 1
  53   27   58 1
  54   27   59 1
  55   28   29 1
  56   29   30 1
  57   29   60 1
  58   29   61 1
  59   30   62 1
  60   30   63 1
  61   31   32 ar
  62   31   36 ar
  63   32   33 ar
  64   32   64 1
  65   33   34 ar
  66   33   65 1
  67   34   35 ar
  68   34   66 1
  69   35   36 ar
  70   35   67 1
  71   36   68 1
  72   37   38 1
  73   37   69 1
  74   37   70 1
  75   38   39 1
  76   38   41 1
  77   39   71 1
  78   39   72 1
  79   39   73 1
  80   41   74 1
  81   41   75 1
  82   41   76 1

#	End of record

