#	Name: ASD10160100
#	Creating user name:	WinNT
#	Creation time:	15. 06. 2019 21:25

#	Modifying user name:	WinNT
#	Modification time:	15. 06. 2019 21:25

#	Program:	/corina/corina34_cracker 3.40 0067  02.08.2006

@<TRIPOS>MOLECULE
ASD10160100
  38   40    0    0    0
SMALL
NO_CHARGES


@<TRIPOS>ATOM
   1 C1            -0.1360     1.4672     0.0332 C.2     
   2 C2            -0.0849    -0.0063     0.0191 C.ar    
   3 C3             1.1402    -0.6649    -0.1387 C.ar    
   4 C4             1.1829    -2.0445    -0.1513 C.ar    
   5 C5             0.0130    -2.7784    -0.0079 C.ar    
   6 C6            -1.2079    -2.1270     0.1489 C.ar    
   7 C7            -1.2594    -0.7501     0.1690 C.ar    
   8 O8             0.8872     2.1123    -0.0923 O.2     
   9 N9            -1.3173     2.0992     0.1797 N.am    
  10 S10           -1.3747     3.7541     0.1956 S.o2    
  11 O11           -2.7498     4.0553     0.3897 O.2     
  12 O12           -0.3995     4.1293     1.1587 O.2     
  13 C13           -0.8452     4.2414    -1.4696 C.3     
  14 F14           -2.3431    -2.8463     0.2876 F       
  15 F15            2.2789     0.0486    -0.2788 F       
  16 O16            0.0593    -4.1349    -0.0209 O.3     
  17 N17            0.2740    -6.9030    -0.2114 N.ar    
  18 C18            0.3792    -8.2078    -0.2814 C.ar    
  19 C19            0.1707    -8.8969    -1.4744 C.ar    
  20 C20           -0.1528    -8.2108    -2.6100 C.ar    
  21 C21           -0.2652    -6.8097    -2.5302 C.ar    
  22 C22           -0.5949    -6.0379    -3.6557 C.ar    
  23 C23           -0.6954    -4.6832    -3.5406 C.ar    
  24 C24           -0.4744    -4.0504    -2.3196 C.ar    
  25 C25           -0.1518    -4.7688    -1.2033 C.ar    
  26 C26           -0.0396    -6.1727    -1.2852 C.ar    
  27 Cl27          -1.1028    -3.7334    -4.9355 Cl      
  28 H28            2.1274    -2.5538    -0.2733 H       
  29 H29           -2.2062    -0.2462     0.2954 H       
  30 H30           -2.1340     1.5846     0.2758 H       
  31 H31           -1.5276     3.8176    -2.2064 H       
  32 H32           -0.8532     5.3284    -1.5498 H       
  33 H33            0.1633     3.8709    -1.6531 H       
  34 H34            0.6345    -8.7632     0.6089 H       
  35 H35            0.2653    -9.9725    -1.5010 H       
  36 H36           -0.3176    -8.7286    -3.5434 H       
  37 H37           -0.7679    -6.5153    -4.6089 H       
  38 H38           -0.5601    -2.9757    -2.2542 H       
@<TRIPOS>BOND
   1    1    2 1
   2    1    8 2
   3    1    9 am
   4    2    3 ar
   5    2    7 ar
   6    3    4 ar
   7    3   15 1
   8    4    5 ar
   9    4   28 1
  10    5    6 ar
  11    5   16 1
  12    6    7 ar
  13    6   14 1
  14    7   29 1
  15    9   10 am
  16    9   30 1
  17   10   11 2
  18   10   12 2
  19   10   13 1
  20   13   31 1
  21   13   32 1
  22   13   33 1
  23   16   25 1
  24   17   18 ar
  25   17   26 ar
  26   18   19 ar
  27   18   34 1
  28   19   20 ar
  29   19   35 1
  30   20   21 ar
  31   20   36 1
  32   21   22 ar
  33   21   26 ar
  34   22   23 ar
  35   22   37 1
  36   23   24 ar
  37   23   27 1
  38   24   25 ar
  39   24   38 1
  40   25   26 ar

#	End of record

