#	Name: ASD11820016
#	Creating user name:	WinNT
#	Creation time:	15. 06. 2019 21:29

#	Modifying user name:	WinNT
#	Modification time:	15. 06. 2019 21:29

#	Program:	/corina/corina34_cracker 3.40 0067  02.08.2006

@<TRIPOS>MOLECULE
ASD11820016
  33   36    0    0    0
SMALL
NO_CHARGES


@<TRIPOS>ATOM
   1 C1            -0.0166     1.3760     0.0096 C.ar    
   2 C2             0.0021    -0.0041     0.0020 C.ar    
   3 C3             1.2111    -0.6889    -0.0132 C.ar    
   4 C4             2.4064    -0.0043    -0.0205 C.ar    
   5 C5             1.1894     2.0828     0.0019 C.ar    
   6 C6             1.5338     3.5069     0.0062 C.2     
   7 C7             2.4110     1.3868    -0.0131 C.ar    
   8 N8             3.4157     2.3301    -0.0172 N.pl3   
   9 C9             2.8735     3.5869    -0.0061 C.2     
  10 C10            0.5670     4.6628     0.0212 C.3     
  11 C11            0.1627     4.9611     1.4420 C.2     
  12 C12            0.8836     5.8114     2.3928 C.ar    
  13 C13           -0.9289     4.5030     2.0743 C.2     
  14 N14           -0.9632     4.9857     3.3547 N.pl3   
  15 C15            0.1326     5.7900     3.5813 C.ar    
  16 C16            2.0628     6.5592     2.3255 C.ar    
  17 C17            0.5730     6.5168     4.6826 C.ar    
  18 C18            1.7366     7.2499     4.6033 C.ar    
  19 C19            2.4814     7.2727     3.4303 C.ar    
  20 F20           -1.1605    -0.6923     0.0099 F       
  21 F21            3.6204     7.9967     3.3711 F       
  22 F22           -1.1933     2.0397     0.0188 F       
  23 F23            2.7885     6.5829     1.1862 F       
  24 H24            1.2137    -1.7689    -0.0190 H       
  25 H25            3.3399    -0.5474    -0.0316 H       
  26 H26            4.3654     2.1329    -0.0267 H       
  27 H27            3.4398     4.5065    -0.0073 H       
  28 H28            1.0443     5.5413    -0.4128 H       
  29 H29           -0.3172     4.4045    -0.5615 H       
  30 H30           -1.6704     3.8504     1.6376 H       
  31 H31           -1.6568     4.7925     4.0048 H       
  32 H32            0.0026     6.5067     5.5996 H       
  33 H33            2.0735     7.8125     5.4614 H       
@<TRIPOS>BOND
   1    1    2 ar
   2    1    5 ar
   3    1   22 1
   4    2    3 ar
   5    2   20 1
   6    3    4 ar
   7    3   24 1
   8    4    7 ar
   9    4   25 1
  10    5    7 ar
  11    5    6 1
  12    6    9 2
  13    6   10 1
  14    7    8 1
  15    8    9 1
  16    8   26 1
  17    9   27 1
  18   10   11 1
  19   10   28 1
  20   10   29 1
  21   11   13 2
  22   11   12 1
  23   12   15 ar
  24   12   16 ar
  25   13   14 1
  26   13   30 1
  27   14   15 1
  28   14   31 1
  29   15   17 ar
  30   16   19 ar
  31   16   23 1
  32   17   18 ar
  33   17   32 1
  34   18   19 ar
  35   18   33 1
  36   19   21 1

#	End of record

