#	Name: ASD14520001
#	Creating user name:	WinNT
#	Creation time:	15. 06. 2019 21:31

#	Modifying user name:	WinNT
#	Modification time:	15. 06. 2019 21:31

#	Program:	/corina/corina34_cracker 3.40 0067  02.08.2006

@<TRIPOS>MOLECULE
ASD14520001
  41   43    0    0    0
SMALL
NO_CHARGES


@<TRIPOS>ATOM
   1 Cl1           -5.5701    -6.6272    -1.1380 Cl      
   2 Cl2            1.7561     6.0996    -0.7582 Cl      
   3 O3             0.9442    -0.2182    -1.6728 O.2     
   4 O4            -2.4298     0.7223     0.3566 O.2     
   5 O5            -3.8693   -10.9045    -3.7458 O.2     
   6 O6            -1.8992   -10.5354    -4.4037 O.2     
   7 N7            -0.0436     1.3213    -0.4120 N.am    
   8 N8            -3.0772    -5.0394    -1.4742 N.pl3   
   9 N9            -2.0537    -4.2584    -1.5547 N.2     
  10 N10           -2.9033   -10.1665    -3.8214 N.pl3   
  11 C11           -1.1255    -0.8354    -0.7939 C.2     
  12 C12           -2.1270    -3.0134    -1.0850 C.2     
  13 C13           -1.0489    -2.1293    -1.2823 C.2     
  14 C14           -3.0347    -6.3052    -2.0539 C.ar    
  15 C15           -0.0092     0.1041    -0.9897 C.2     
  16 C16            1.0642     2.1699    -0.5029 C.ar    
  17 C17           -2.3372    -0.4133    -0.0843 C.2     
  18 C18           -3.2917    -2.5896    -0.4028 C.2     
  19 C19           -3.3952    -1.3321     0.0848 C.2     
  20 C20           -4.1378    -7.1495    -1.9682 C.ar    
  21 C21           -1.8918    -6.7270    -2.7248 C.ar    
  22 C22           -2.9497    -8.8212    -3.2055 C.ar    
  23 C23           -4.0908    -8.4045    -2.5449 C.ar    
  24 C24           -1.8535    -7.9822    -3.2979 C.ar    
  25 C25            0.8832     3.5446    -0.5761 C.ar    
  26 C26            2.3482     1.6396    -0.5144 C.ar    
  27 C27            1.9805     4.3807    -0.6660 C.ar    
  28 C28            3.4404     2.4798    -0.6043 C.ar    
  29 C29            3.2577     3.8483    -0.6829 C.ar    
  30 H30           -0.1671    -2.4583    -1.8119 H       
  31 H31           -0.8382     1.6102     0.0634 H       
  32 H32           -4.1110    -3.2805    -0.2698 H       
  33 H33           -4.2914    -1.0299     0.6062 H       
  34 H34           -1.0354    -6.0730    -2.7976 H       
  35 H35           -3.8765    -4.7451    -1.0100 H       
  36 H36           -4.9460    -9.0606    -2.4792 H       
  37 H37           -0.9663    -8.3098    -3.8193 H       
  38 H38           -0.1135     3.9602    -0.5633 H       
  39 H39            2.4920     0.5710    -0.4528 H       
  40 H40            4.4386     2.0676    -0.6129 H       
  41 H41            4.1137     4.5031    -0.7532 H       
@<TRIPOS>BOND
   1    1   20 1
   2    2   27 1
   3    3   15 2
   4    4   17 2
   5    5   10 2
   6    6   10 2
   7    7   15 am
   8    7   16 1
   9    7   31 1
  10    8    9 1
  11    8   14 1
  12    8   35 1
  13    9   12 2
  14   10   22 1
  15   11   13 2
  16   11   15 1
  17   11   17 1
  18   12   13 1
  19   12   18 1
  20   13   30 1
  21   14   20 ar
  22   14   21 ar
  23   16   25 ar
  24   16   26 ar
  25   17   19 1
  26   18   19 2
  27   18   32 1
  28   19   33 1
  29   20   23 ar
  30   21   24 ar
  31   21   34 1
  32   22   23 ar
  33   22   24 ar
  34   23   36 1
  35   24   37 1
  36   25   27 ar
  37   25   38 1
  38   26   28 ar
  39   26   39 1
  40   27   29 ar
  41   28   29 ar
  42   28   40 1
  43   29   41 1

#	End of record

