#	Name: ASD10160287
#	Creating user name:	WinNT
#	Creation time:	15. 06. 2019 21:25

#	Modifying user name:	WinNT
#	Modification time:	15. 06. 2019 21:25

#	Program:	/corina/corina34_cracker 3.40 0067  02.08.2006

@<TRIPOS>MOLECULE
ASD10160287
  25   26    0    0    0
SMALL
NO_CHARGES


@<TRIPOS>ATOM
   1 C1            -0.0168     1.3861     0.0097 C.ar    
   2 C2             0.0021    -0.0041     0.0020 C.ar    
   3 C3             1.2210    -0.6607    -0.0131 C.ar    
   4 C4             2.3825     0.0998    -0.0201 C.ar    
   5 C5             2.2883     1.4769    -0.0118 C.ar    
   6 N6             1.1118     2.0749     0.0026 N.ar    
   7 O7            -1.2046     2.0422     0.0188 O.3     
   8 C8            -1.1569     3.4703     0.0264 C.3     
   9 C9            -2.5815     4.0282     0.0361 C.3     
  10 C10           -2.6427     5.5592     0.1675 C.3     
  11 C11           -3.7876     5.5228    -0.8585 C.3     
  12 C12           -3.1841     4.2033    -1.3678 C.3     
  13 F13           -5.0531     5.3742    -0.2809 F       
  14 F14           -3.7347     6.5614    -1.7943 F       
  15 Cl15          -1.4823    -0.9043     0.0119 Cl      
  16 H16            1.2672    -1.7397    -0.0190 H       
  17 H17            3.3495    -0.3810    -0.0316 H       
  18 H18            3.1890     2.0728    -0.0172 H       
  19 H19           -0.6270     3.8115     0.9157 H       
  20 H20           -0.6354     3.8211    -0.8642 H       
  21 H21           -3.2367     3.5037     0.7316 H       
  22 H22           -2.9522     5.9006     1.1553 H       
  23 H23           -1.7475     6.0646    -0.1949 H       
  24 H24           -2.4370     4.3381    -2.1500 H       
  25 H25           -3.9307     3.4501    -1.6196 H       
@<TRIPOS>BOND
   1    1    2 ar
   2    1    6 ar
   3    1    7 1
   4    2    3 ar
   5    2   15 1
   6    3    4 ar
   7    3   16 1
   8    4    5 ar
   9    4   17 1
  10    5    6 ar
  11    5   18 1
  12    7    8 1
  13    8    9 1
  14    8   19 1
  15    8   20 1
  16    9   10 1
  17    9   12 1
  18    9   21 1
  19   10   11 1
  20   10   22 1
  21   10   23 1
  22   11   12 1
  23   11   13 1
  24   11   14 1
  25   12   24 1
  26   12   25 1

#	End of record

