#	Name: ASD13620009
#	Creating user name:	WinNT
#	Creation time:	15. 06. 2019 21:30

#	Modifying user name:	WinNT
#	Modification time:	15. 06. 2019 21:30

#	Program:	/corina/corina34_cracker 3.40 0067  02.08.2006

@<TRIPOS>MOLECULE
ASD13620009
  37   37    0    0    0
SMALL
NO_CHARGES


@<TRIPOS>ATOM
   1 C1            -0.0167     1.3831     0.0096 C.ar    
   2 C2             0.0021    -0.0041     0.0020 C.ar    
   3 C3             1.2141    -0.6789    -0.0132 C.ar    
   4 C4             2.3989     0.0314    -0.0207 C.ar    
   5 C5             2.3774     1.4139    -0.0126 C.ar    
   6 C6             1.1708     2.0889     0.0021 C.ar    
   7 O7            -1.1648    -0.7006     0.0099 O.3     
   8 C8            -1.3316     2.1194     0.0199 C.3     
   9 C9            -1.0717     3.6272     0.0268 C.3     
  10 C10           -2.1349     1.7461    -1.2276 C.3     
  11 C11           -2.1230     1.7325     1.2708 C.3     
  12 C12            1.2382    -2.1857    -0.0210 C.3     
  13 C13            2.6886    -2.6725    -0.0376 C.3     
  14 C14            0.5374    -2.7135     1.2325 C.3     
  15 C15            0.5131    -2.7009    -1.2659 C.3     
  16 H16            3.3426    -0.4935    -0.0325 H       
  17 H17            3.3047     1.9675    -0.0178 H       
  18 H18            1.1567     3.1688     0.0080 H       
  19 H19           -1.5113    -0.8975    -0.8712 H       
  20 H20           -0.5078     3.9028    -0.8643 H       
  21 H21           -2.0227     4.1598     0.0343 H       
  22 H22           -0.4994     3.8931     0.9156 H       
  23 H23           -2.3200     0.6720    -1.2326 H       
  24 H24           -3.0859     2.2787    -1.2202 H       
  25 H25           -1.5710     2.0217    -2.1188 H       
  26 H26           -1.5507     1.9985     2.1595 H       
  27 H27           -3.0740     2.2651     1.2782 H       
  28 H28           -2.3082     0.6584     1.2659 H       
  29 H29            3.2052    -2.3055     0.8493 H       
  30 H30            2.7060    -3.7624    -0.0432 H       
  31 H31            3.1878    -2.2965    -0.9306 H       
  32 H32           -0.4959    -2.3667     1.2443 H       
  33 H33            0.5548    -3.8034     1.2268 H       
  34 H34            1.0540    -2.3465     2.1193 H       
  35 H35            1.0123    -2.3249    -2.1589 H       
  36 H36            0.5305    -3.7908    -1.2715 H       
  37 H37           -0.5202    -2.3541    -1.2540 H       
@<TRIPOS>BOND
   1    1    2 ar
   2    1    6 ar
   3    1    8 1
   4    2    3 ar
   5    2    7 1
   6    3    4 ar
   7    3   12 1
   8    4    5 ar
   9    4   16 1
  10    5    6 ar
  11    5   17 1
  12    6   18 1
  13    7   19 1
  14    8    9 1
  15    8   10 1
  16    8   11 1
  17    9   20 1
  18    9   21 1
  19    9   22 1
  20   10   23 1
  21   10   24 1
  22   10   25 1
  23   11   26 1
  24   11   27 1
  25   11   28 1
  26   12   13 1
  27   12   14 1
  28   12   15 1
  29   13   29 1
  30   13   30 1
  31   13   31 1
  32   14   32 1
  33   14   33 1
  34   14   34 1
  35   15   35 1
  36   15   36 1
  37   15   37 1

#	End of record

