#	Name: ASD11720001
#	Creating user name:	WinNT
#	Creation time:	15. 06. 2019 21:29

#	Modifying user name:	WinNT
#	Modification time:	15. 06. 2019 21:29

#	Program:	/corina/corina34_cracker 3.40 0067  02.08.2006

@<TRIPOS>MOLECULE
ASD11720001
   9    8    0    0    0
SMALL
NO_CHARGES


@<TRIPOS>ATOM
   1 C1            -0.0182     1.4893     0.0102 C.2     
   2 C2             0.0021    -0.0041     0.0020 C.2     
   3 O3             1.0560    -0.5936    -0.0112 O.2     
   4 C4            -1.2926    -0.7753     0.0102 C.3     
   5 O5             1.0303     2.1138     0.0036 O.co2   
   6 O6            -1.0833     2.0851     0.0185 O.co2   
   7 H7            -2.1306    -0.0783     0.0220 H       
   8 H8            -1.3504    -1.3978    -0.8826 H       
   9 H9            -1.3334    -1.4074     0.8973 H       
@<TRIPOS>BOND
   1    1    2 1
   2    1    5 ar
   3    1    6 ar
   4    2    3 2
   5    2    4 1
   6    4    7 1
   7    4    8 1
   8    4    9 1

#	End of record

