#	Name: ASD10800027
#	Creating user name:	WinNT
#	Creation time:	15. 06. 2019 21:28

#	Modifying user name:	WinNT
#	Modification time:	15. 06. 2019 21:28

#	Program:	/corina/corina34_cracker 3.40 0067  02.08.2006

@<TRIPOS>MOLECULE
ASD10800027
  46   48    0    0    0
SMALL
NO_CHARGES


@<TRIPOS>ATOM
   1 N1            -0.0178     1.4648     0.0101 N.3     
   2 C2             0.0021    -0.0041     0.0020 C.3     
   3 C3             0.7182    -0.4975    -1.2568 C.3     
   4 C4             0.7309    -0.5033     1.2229 C.ar    
   5 C5             1.5911     0.3382     1.8980 C.ar    
   6 C6             2.2607    -0.1190     3.0175 C.ar    
   7 C7             2.0665    -1.4146     3.4504 C.ar    
   8 C8             1.2025    -2.2636     2.7714 C.ar    
   9 C9             1.0440    -3.6675     3.2937 C.3     
  10 C10           -0.2223    -4.3101     2.7313 C.3     
  11 C11           -0.2137    -4.1432     1.2072 C.3     
  12 C12           -0.4312    -2.6666     0.8829 C.3     
  13 C13            0.5270    -1.8047     1.6625 C.ar    
  14 C14           -0.0771    -0.1029    -2.4745 C.ar    
  15 C15            0.1626     1.1097    -3.0934 C.ar    
  16 C16           -0.5670     1.4717    -4.2104 C.ar    
  17 C17           -1.5359     0.6210    -4.7087 C.ar    
  18 C18           -1.7750    -0.5920    -4.0902 C.ar    
  19 C19           -1.0424    -0.9559    -2.9758 C.ar    
  20 C20           -2.8316    -1.5193    -4.6331 C.3     
  21 C21           -0.3064     2.7941    -4.8846 C.3     
  22 H22            0.9191     1.8392     0.0032 H       
  23 H23           -0.5563     1.8234    -0.7642 H       
  24 H24           -1.0205    -0.3814     0.0098 H       
  25 H25            1.7103    -0.0491    -1.3098 H       
  26 H26            0.8116    -1.5829    -1.2198 H       
  27 H27            1.7409     1.3505     1.5528 H       
  28 H28            2.9338     0.5356     3.5512 H       
  29 H29            2.5911    -1.7715     4.3244 H       
  30 H30            1.9096    -4.2607     2.9986 H       
  31 H31            0.9810    -3.6413     4.3815 H       
  32 H32           -0.2395    -5.3702     2.9843 H       
  33 H33           -1.1004    -3.8181     3.1495 H       
  34 H34            0.7465    -4.4692     0.8076 H       
  35 H35           -1.0153    -4.7373     0.7684 H       
  36 H36           -0.2766    -2.5063    -0.1841 H       
  37 H37           -1.4523    -2.3879     1.1434 H       
  38 H38            0.9196     1.7744    -2.7042 H       
  39 H39           -2.1064     0.9041    -5.5809 H       
  40 H40           -1.2266    -1.9052    -2.4949 H       
  41 H41           -2.3846    -2.1890    -5.3678 H       
  42 H42           -3.2547    -2.1053    -3.8173 H       
  43 H43           -3.6198    -0.9342    -5.1070 H       
  44 H44            0.4588     2.6669    -5.6504 H       
  45 H45           -1.2259     3.1541    -5.3460 H       
  46 H46            0.0366     3.5176    -4.1450 H       
@<TRIPOS>BOND
   1    1    2 1
   2    1   22 1
   3    1   23 1
   4    2    3 1
   5    2    4 1
   6    2   24 1
   7    3   14 1
   8    3   25 1
   9    3   26 1
  10    4    5 ar
  11    4   13 ar
  12    5    6 ar
  13    5   27 1
  14    6    7 ar
  15    6   28 1
  16    7    8 ar
  17    7   29 1
  18    8    9 1
  19    8   13 ar
  20    9   10 1
  21    9   30 1
  22    9   31 1
  23   10   11 1
  24   10   32 1
  25   10   33 1
  26   11   12 1
  27   11   34 1
  28   11   35 1
  29   12   13 1
  30   12   36 1
  31   12   37 1
  32   14   15 ar
  33   14   19 ar
  34   15   16 ar
  35   15   38 1
  36   16   17 ar
  37   16   21 1
  38   17   18 ar
  39   17   39 1
  40   18   19 ar
  41   18   20 1
  42   19   40 1
  43   20   41 1
  44   20   42 1
  45   20   43 1
  46   21   44 1
  47   21   45 1
  48   21   46 1

#	End of record

