#	Name: ASD10160253
#	Creating user name:	WinNT
#	Creation time:	15. 06. 2019 21:25

#	Modifying user name:	WinNT
#	Modification time:	15. 06. 2019 21:25

#	Program:	/corina/corina34_cracker 3.40 0067  02.08.2006

@<TRIPOS>MOLECULE
ASD10160253
  38   40    0    0    0
SMALL
NO_CHARGES


@<TRIPOS>ATOM
   1 C1            -0.0716     1.4693     0.0208 C.2     
   2 C2            -0.0375    -0.0048     0.0099 C.ar    
   3 C3             1.1812    -0.6780    -0.1377 C.ar    
   4 C4             1.2073    -2.0580    -0.1473 C.ar    
   5 C5             0.0275    -2.7774    -0.0109 C.ar    
   6 C6            -1.1857    -2.1115     0.1356 C.ar    
   7 C7            -1.2212    -0.7347     0.1526 C.ar    
   8 O8             0.9598     2.1023    -0.0985 O.2     
   9 N9            -1.2466     2.1152     0.1575 N.am    
  10 O10            0.0575    -4.1344    -0.0208 O.3     
  11 N11           -0.4629    -4.0562    -2.2641 N.ar    
  12 C12           -0.1537    -4.7670    -1.2012 C.ar    
  13 C13           -0.0368    -6.1614    -1.2595 C.ar    
  14 C14           -0.2460    -6.8119    -2.4388 C.ar    
  15 C15           -0.5775    -6.0450    -3.5742 C.ar    
  16 C16           -0.8057    -6.6490    -4.8201 C.ar    
  17 C17           -1.1237    -5.8755    -5.8954 C.ar    
  18 C18           -1.2255    -4.4919    -5.7748 C.ar    
  19 C19           -1.0104    -3.8735    -4.5809 C.ar    
  20 C20           -0.6803    -4.6379    -3.4491 C.ar    
  21 S21           -1.2850     3.7707     0.1698 S.o2    
  22 O22           -2.6579     4.0881     0.3533 O.2     
  23 O23           -0.3126     4.1366     1.1392 O.2     
  24 C24           -0.7378     4.2485    -1.4924 C.3     
  25 F25            2.3291     0.0217    -0.2709 F       
  26 Cl26          -2.6565    -3.0181     0.3045 Cl      
  27 H27            2.1465    -2.5789    -0.2614 H       
  28 H28           -2.1630    -0.2195     0.2712 H       
  29 H29           -2.0699     1.6103     0.2487 H       
  30 H30            0.2190    -6.7204    -0.3715 H       
  31 H31           -0.1597    -7.8866    -2.5019 H       
  32 H32           -0.7294    -7.7211    -4.9260 H       
  33 H33           -1.2989    -6.3413    -6.8539 H       
  34 H34           -1.4786    -3.8999    -6.6419 H       
  35 H35           -1.0929    -2.7994    -4.5043 H       
  36 H36           -1.4197     3.8312    -2.2333 H       
  37 H37           -0.7327     5.3354    -1.5748 H       
  38 H38            0.2677     3.8661    -1.6679 H       
@<TRIPOS>BOND
   1    1    2 1
   2    1    8 2
   3    1    9 am
   4    2    3 ar
   5    2    7 ar
   6    3    4 ar
   7    3   25 1
   8    4    5 ar
   9    4   27 1
  10    5    6 ar
  11    5   10 1
  12    6    7 ar
  13    6   26 1
  14    7   28 1
  15    9   21 am
  16    9   29 1
  17   10   12 1
  18   11   12 ar
  19   11   20 ar
  20   12   13 ar
  21   13   14 ar
  22   13   30 1
  23   14   15 ar
  24   14   31 1
  25   15   16 ar
  26   15   20 ar
  27   16   17 ar
  28   16   32 1
  29   17   18 ar
  30   17   33 1
  31   18   19 ar
  32   18   34 1
  33   19   20 ar
  34   19   35 1
  35   21   22 2
  36   21   23 2
  37   21   24 1
  38   24   36 1
  39   24   37 1
  40   24   38 1

#	End of record

