#	Name: ASD10420087
#	Creating user name:	WinNT
#	Creation time:	15. 06. 2019 21:27

#	Modifying user name:	WinNT
#	Modification time:	15. 06. 2019 21:27

#	Program:	/corina/corina34_cracker 3.40 0067  02.08.2006

@<TRIPOS>MOLECULE
ASD10420087
  73   77    0    0    0
SMALL
NO_CHARGES


@<TRIPOS>ATOM
   1 N1            -1.2246     1.0556    -1.5083 N.am    
   2 C2            -1.1869    -0.3748    -1.8437 C.3     
   3 C3            -0.0229    -0.6206    -2.8117 C.3     
   4 N4             1.1856     0.0103    -2.2627 N.am    
   5 C5             1.1479     1.4407    -1.9272 C.3     
   6 C6            -0.0162     1.6865    -0.9593 C.3     
   7 C7            -2.3457     1.7771    -1.7058 C.2     
   8 O8            -3.3373     1.2456    -2.1651 O.2     
   9 O9            -2.3671     3.0868    -1.3942 O.3     
  10 C10            2.3083    -0.7100    -2.0699 C.2     
  11 O11            2.3274    -1.8946    -2.3513 O.2     
  12 C12            3.5039    -0.0688    -1.5226 C.2     
  13 C13            4.5362     0.5553    -2.2564 C.2     
  14 C14            5.4536     1.0199    -1.3666 C.2     
  15 N15            5.0413     0.7131    -0.0884 N.pl3   
  16 C16            5.6112     0.9633     1.1277 C.2     
  17 C17            5.0111     0.5594     2.2679 C.2     
  18 C18            3.7877    -0.1267     2.2200 C.2     
  19 C19            3.2088    -0.3824     1.0102 C.2     
  20 C20            3.8453     0.0510    -0.1609 C.2     
  21 C21            6.6962     1.7390    -1.7155 C.ar    
  22 C22            6.9748     2.9789    -1.1371 C.ar    
  23 C23            8.1368     3.6450    -1.4673 C.ar    
  24 C24            9.0250     3.0872    -2.3699 C.ar    
  25 C25            8.7551     1.8588    -2.9469 C.ar    
  26 C26            7.5999     1.1791    -2.6208 C.ar    
  27 C27            4.6088     0.6829    -3.7562 C.3     
  28 C28            4.0153     2.0026    -4.1774 C.ar    
  29 C29            3.8464     2.2872    -5.5194 C.ar    
  30 C30            3.3008     3.4994    -5.9060 C.ar    
  31 C31            2.9249     4.4254    -4.9474 C.ar    
  32 C32            3.0948     4.1387    -3.6064 C.ar    
  33 C33            3.6349     2.9255    -3.2214 C.ar    
  34 C34            4.2564     1.2786    -6.5613 C.3     
  35 F35            3.1355     3.7788    -7.2174 F       
  36 Br36           2.9485    -0.6925     3.8173 Br      
  37 C37           -3.6083     3.8011    -1.6335 C.3     
  38 C38           -4.7300     3.1644    -0.8104 C.3     
  39 C39           -3.4416     5.2652    -1.2217 C.3     
  40 C40           -3.9613     3.7265    -3.1203 C.3     
  41 H41           -1.0376    -0.9596    -0.9361 H       
  42 H42           -2.1246    -0.6641    -2.3182 H       
  43 H43            0.1416    -1.6925    -2.9213 H       
  44 H44           -0.2555    -0.1825    -3.7823 H       
  45 H45            2.0855     1.7300    -1.4527 H       
  46 H46            0.9986     2.0255    -2.8349 H       
  47 H47           -0.1807     2.7584    -0.8497 H       
  48 H48            0.2165     1.2484     0.0113 H       
  49 H49            6.5527     1.4901     1.1777 H       
  50 H50            5.4751     0.7648     3.2213 H       
  51 H51            2.2675    -0.9092     0.9565 H       
  52 H52            6.2821     3.4157    -0.4330 H       
  53 H53            8.3536     4.6041    -1.0207 H       
  54 H54            9.9330     3.6132    -2.6255 H       
  55 H55            9.4525     1.4293    -3.6508 H       
  56 H56            7.3925     0.2184    -3.0684 H       
  57 H57            5.6500     0.6345    -4.0751 H       
  58 H58            4.0493    -0.1308    -4.2176 H       
  59 H59            2.4995     5.3716    -5.2478 H       
  60 H60            2.8017     4.8608    -2.8587 H       
  61 H61            3.7632     2.7005    -2.1729 H       
  62 H62            3.4362     0.5820    -6.7353 H       
  63 H63            4.4985     1.7942    -7.4906 H       
  64 H64            5.1309     0.7300    -6.2116 H       
  65 H65           -4.4785     3.2176     0.2488 H       
  66 H66           -5.6618     3.7007    -0.9900 H       
  67 H67           -4.8487     2.1214    -1.1037 H       
  68 H68           -2.6425     5.7188    -1.8081 H       
  69 H69           -4.3734     5.8015    -1.4013 H       
  70 H70           -3.1902     5.3184    -0.1625 H       
  71 H71           -4.0801     2.6834    -3.4136 H       
  72 H72           -4.8931     4.2628    -3.2999 H       
  73 H73           -3.1622     4.1801    -3.7067 H       
@<TRIPOS>BOND
   1    1    2 1
   2    1    6 1
   3    1    7 am
   4    2    3 1
   5    2   41 1
   6    2   42 1
   7    3    4 1
   8    3   43 1
   9    3   44 1
  10    4    5 1
  11    4   10 am
  12    5    6 1
  13    5   45 1
  14    5   46 1
  15    6   47 1
  16    6   48 1
  17    7    8 2
  18    7    9 1
  19    9   37 1
  20   10   11 2
  21   10   12 1
  22   12   13 1
  23   12   20 2
  24   13   14 2
  25   13   27 1
  26   14   15 1
  27   14   21 1
  28   15   16 1
  29   15   20 1
  30   16   17 2
  31   16   49 1
  32   17   18 1
  33   17   50 1
  34   18   19 2
  35   18   36 1
  36   19   20 1
  37   19   51 1
  38   21   22 ar
  39   21   26 ar
  40   22   23 ar
  41   22   52 1
  42   23   24 ar
  43   23   53 1
  44   24   25 ar
  45   24   54 1
  46   25   26 ar
  47   25   55 1
  48   26   56 1
  49   27   28 1
  50   27   57 1
  51   27   58 1
  52   28   29 ar
  53   28   33 ar
  54   29   30 ar
  55   29   34 1
  56   30   31 ar
  57   30   35 1
  58   31   32 ar
  59   31   59 1
  60   32   33 ar
  61   32   60 1
  62   33   61 1
  63   34   62 1
  64   34   63 1
  65   34   64 1
  66   37   38 1
  67   37   40 1
  68   37   39 1
  69   38   65 1
  70   38   66 1
  71   38   67 1
  72   39   68 1
  73   39   69 1
  74   39   70 1
  75   40   71 1
  76   40   72 1
  77   40   73 1

#	End of record

