#	Name: ASD10410033
#	Creating user name:	WinNT
#	Creation time:	15. 06. 2019 21:26

#	Modifying user name:	WinNT
#	Modification time:	15. 06. 2019 21:26

#	Program:	/corina/corina34_cracker 3.40 0067  02.08.2006

@<TRIPOS>MOLECULE
ASD10410033
  58   61    0    0    0
SMALL
NO_CHARGES


@<TRIPOS>ATOM
   1 C1            -0.1755     1.3177    -0.5826 C.ar    
   2 N2            -0.1492    -0.0057    -0.5688 N.ar    
   3 C3             0.8515    -0.6696    -1.1424 C.ar    
   4 C4             1.8764     0.0519    -1.7607 C.ar    
   5 C5             1.8081     1.4336    -1.7510 C.ar    
   6 N6             0.7825     2.0272    -1.1612 N.ar    
   7 N7            -1.2348     1.9780     0.0186 N.pl3   
   8 C8            -1.2231     3.3724     0.1187 C.ar    
   9 C9            -2.4099     4.0874     0.0191 C.ar    
  10 C10           -2.3948     5.4648     0.1183 C.ar    
  11 C11           -1.2001     6.1322     0.3166 C.ar    
  12 C12           -0.0168     5.4235     0.4162 C.ar    
  13 C13           -0.0255     4.0456     0.3236 C.ar    
  14 C14           -1.1874     7.6354     0.4239 C.3     
  15 N15           -1.3570     8.0274     1.8295 N.3     
  16 C16           -1.1143     9.4657     2.0080 C.3     
  17 C17           -1.3779     9.8476     3.4665 C.3     
  18 N18           -0.5035     9.0561     4.3432 N.3     
  19 C19           -0.7462     7.6178     4.1646 C.3     
  20 C20           -0.4826     7.2358     2.7062 C.3     
  21 C21           -0.6730     9.4481     5.7487 C.3     
  22 C22            3.0291    -0.6586    -2.4220 C.3     
  23 C23            0.8789    -2.1524    -1.1252 C.ar    
  24 C24            1.3926    -2.8550    -2.2139 C.ar    
  25 C25            1.4156    -4.2357    -2.1923 C.ar    
  26 C26            0.9290    -4.9211    -1.0920 C.ar    
  27 C27            0.4180    -4.2282    -0.0098 C.ar    
  28 C28            0.3965    -2.8480    -0.0182 C.ar    
  29 C29           -0.1106    -4.9812     1.1837 C.3     
  30 F30            0.0218    -6.3564     0.9634 F       
  31 F31            0.6163    -4.6193     2.3229 F       
  32 F32           -1.4607    -4.6671     1.3727 F       
  33 Cl33           2.0548    -5.1132    -3.5469 Cl      
  34 H34            2.5835     2.0217    -2.2193 H       
  35 H35           -1.9845     1.4727     0.3701 H       
  36 H36           -3.3432     3.5667    -0.1362 H       
  37 H37           -3.3171     6.0213     0.0406 H       
  38 H38            0.9146     5.9478     0.5711 H       
  39 H39            0.8983     3.4923     0.4063 H       
  40 H40           -0.2370     8.0182     0.0521 H       
  41 H41           -2.0029     8.0488    -0.1695 H       
  42 H42           -0.0793     9.6942     1.7536 H       
  43 H43           -1.7821    10.0307     1.3578 H       
  44 H44           -1.1705    10.9084     3.6078 H       
  45 H45           -2.4200     9.6445     3.7129 H       
  46 H46           -0.0783     7.0528     4.8149 H       
  47 H47           -1.7812     7.3893     4.4190 H       
  48 H48           -0.6899     6.1751     2.5648 H       
  49 H49            0.5596     7.4390     2.4597 H       
  50 H50           -1.7082     9.2858     6.0488 H       
  51 H51           -0.0145     8.8469     6.3756 H       
  52 H52           -0.4222    10.5025     5.8646 H       
  53 H53            2.7866    -0.8498    -3.4673 H       
  54 H54            3.9215    -0.0353    -2.3641 H       
  55 H55            3.2131    -1.6047    -1.9128 H       
  56 H56            1.7716    -2.3209    -3.0727 H       
  57 H57            0.9483    -6.0009    -1.0790 H       
  58 H58            0.0015    -2.3081     0.8297 H       
@<TRIPOS>BOND
   1    1    2 ar
   2    1    6 ar
   3    1    7 1
   4    2    3 ar
   5    3    4 ar
   6    3   23 1
   7    4    5 ar
   8    4   22 1
   9    5    6 ar
  10    5   34 1
  11    7    8 1
  12    7   35 1
  13    8    9 ar
  14    8   13 ar
  15    9   10 ar
  16    9   36 1
  17   10   11 ar
  18   10   37 1
  19   11   12 ar
  20   11   14 1
  21   12   13 ar
  22   12   38 1
  23   13   39 1
  24   14   15 1
  25   14   40 1
  26   14   41 1
  27   15   16 1
  28   15   20 1
  29   16   17 1
  30   16   42 1
  31   16   43 1
  32   17   18 1
  33   17   44 1
  34   17   45 1
  35   18   19 1
  36   18   21 1
  37   19   20 1
  38   19   46 1
  39   19   47 1
  40   20   48 1
  41   20   49 1
  42   21   50 1
  43   21   51 1
  44   21   52 1
  45   22   53 1
  46   22   54 1
  47   22   55 1
  48   23   24 ar
  49   23   28 ar
  50   24   25 ar
  51   24   56 1
  52   25   26 ar
  53   25   33 1
  54   26   27 ar
  55   26   57 1
  56   27   28 ar
  57   27   29 1
  58   28   58 1
  59   29   30 1
  60   29   31 1
  61   29   32 1

#	End of record

