#	Name: ASD10160228
#	Creating user name:	WinNT
#	Creation time:	15. 06. 2019 21:25

#	Modifying user name:	WinNT
#	Modification time:	15. 06. 2019 21:25

#	Program:	/corina/corina34_cracker 3.40 0067  02.08.2006

@<TRIPOS>MOLECULE
ASD10160228
  38   40    0    0    0
SMALL
NO_CHARGES


@<TRIPOS>ATOM
   1 C1            -0.3908     1.1197    -1.9198 C.2     
   2 C2            -0.2728    -0.2626    -1.4201 C.ar    
   3 C3             0.9111    -0.9825    -1.6193 C.ar    
   4 C4             1.0168    -2.2761    -1.1492 C.ar    
   5 C5            -0.0488    -2.8627    -0.4799 C.ar    
   6 C6            -1.2284    -2.1501    -0.2801 C.ar    
   7 C7            -1.3410    -0.8562    -0.7408 C.ar    
   8 O8             0.5412     1.6359    -2.5060 O.2     
   9 N9            -1.5336     1.8090    -1.7318 N.am    
  10 O10            0.0593    -4.1350    -0.0193 O.3     
  11 N11            3.0575    -6.8975    -2.4553 N.ar    
  12 C12            4.2158    -7.4997    -2.5774 C.ar    
  13 C13            5.2007    -7.3988    -1.5980 C.ar    
  14 C14            4.9717    -6.6568    -0.4739 C.ar    
  15 C15            3.7279    -6.0112    -0.3456 C.ar    
  16 C16            3.4243    -5.2319     0.7828 C.ar    
  17 C17            2.2136    -4.6197     0.8766 C.ar    
  18 C18            1.2611    -4.7563    -0.1386 C.ar    
  19 C19            1.5272    -5.5133    -1.2569 C.ar    
  20 C20            2.7695    -6.1561    -1.3801 C.ar    
  21 S21           -1.6660     3.3613    -2.2930 S.o2    
  22 O22           -2.9695     3.7667    -1.8981 O.2     
  23 O23           -0.5106     4.0164    -1.7878 O.2     
  24 C24           -1.5688     3.2003    -4.0972 C.3     
  25 F25           -2.2622    -2.7262     0.3714 F       
  26 F26            1.9482    -0.4124    -2.2709 F       
  27 H27            1.9295    -2.8327    -1.3026 H       
  28 H28           -2.2547    -0.3029    -0.5810 H       
  29 H29           -2.2784     1.3958    -1.2677 H       
  30 H30            4.4110    -8.0898    -3.4607 H       
  31 H31            6.1449    -7.9071    -1.7267 H       
  32 H32            5.7245    -6.5684     0.2954 H       
  33 H33            4.1507    -5.1189     1.5741 H       
  34 H34            1.9842    -4.0217     1.7462 H       
  35 H35            0.7850    -5.6120    -2.0353 H       
  36 H36           -2.3843     2.5690    -4.4501 H       
  37 H37           -1.6484     4.1863    -4.5548 H       
  38 H38           -0.6152     2.7487    -4.3708 H       
@<TRIPOS>BOND
   1    1    2 1
   2    1    8 2
   3    1    9 am
   4    2    3 ar
   5    2    7 ar
   6    3    4 ar
   7    3   26 1
   8    4    5 ar
   9    4   27 1
  10    5    6 ar
  11    5   10 1
  12    6    7 ar
  13    6   25 1
  14    7   28 1
  15    9   21 am
  16    9   29 1
  17   10   18 1
  18   11   12 ar
  19   11   20 ar
  20   12   13 ar
  21   12   30 1
  22   13   14 ar
  23   13   31 1
  24   14   15 ar
  25   14   32 1
  26   15   16 ar
  27   15   20 ar
  28   16   17 ar
  29   16   33 1
  30   17   18 ar
  31   17   34 1
  32   18   19 ar
  33   19   20 ar
  34   19   35 1
  35   21   22 2
  36   21   23 2
  37   21   24 1
  38   24   36 1
  39   24   37 1
  40   24   38 1

#	End of record

