#	Name: ASD16720001
#	Creating user name:	WinNT
#	Creation time:	15. 06. 2019 21:31

#	Modifying user name:	WinNT
#	Modification time:	15. 06. 2019 21:31

#	Program:	/corina/corina34_cracker 3.40 0067  02.08.2006

@<TRIPOS>MOLECULE
ASD16720001
  37   37    0    0    0
SMALL
NO_CHARGES


@<TRIPOS>ATOM
   1 C1            -0.0179     1.4653     0.0101 C.3     
   2 C2             0.8674    -4.1000     2.6383 C.3     
   3 C3             0.6707    -0.5122    -1.2039 C.3     
   4 C4            -0.7578     1.9697    -1.2311 C.3     
   5 C5            -0.0693    -0.0079    -2.4451 C.3     
   6 C6             0.6387    -0.5286     1.2175 C.3     
   7 C7            -0.7258     1.9861    -3.6526 C.3     
   8 C8             0.4215    -2.0411     1.2949 C.3     
   9 C9             1.0846    -2.5875     2.5609 C.3     
  10 C10           -0.5086     3.4986    -3.7300 C.3     
  11 N11            0.0021    -0.0041     0.0020 N.3     
  12 N12           -0.0892     1.4615    -2.4370 N.3     
  13 N13            1.5041    -4.6246     3.8538 N.3     
  14 O14            0.8853     3.7724    -3.8850 O.3     
  15 H15            1.0046     1.8429     0.0024 H       
  16 H16           -0.5287     1.8172     0.9064 H       
  17 H17           -0.2012    -4.3126     2.6672 H       
  18 H18            1.3090    -4.5757     1.7626 H       
  19 H19            0.6616    -1.6021    -1.1929 H       
  20 H20            1.7011    -0.1574    -1.2253 H       
  21 H21           -1.7881     1.6145    -1.2096 H       
  22 H22           -0.7490     3.0596    -1.2419 H       
  23 H23            0.4419    -0.3597    -3.3412 H       
  24 H24           -1.0916    -0.3858    -2.4376 H       
  25 H25            0.1972    -0.0529     2.0932 H       
  26 H26            1.7074    -0.3160     1.1887 H       
  27 H27           -1.7945     1.7735    -3.6237 H       
  28 H28           -0.2843     1.5103    -4.5282 H       
  29 H29           -0.6471    -2.2537     1.3238 H       
  30 H30            0.8631    -2.5169     0.4193 H       
  31 H31            0.6430    -2.1117     3.4366 H       
  32 H32            2.1533    -2.3749     2.5320 H       
  33 H33           -1.0550     3.9010    -4.5830 H       
  34 H34           -0.8708     3.9650    -2.8138 H       
  35 H35            1.1576    -4.1529     4.6758 H       
  36 H36            1.3746    -5.6225     3.9280 H       
  37 H37            1.0973     4.7142    -3.9412 H       
@<TRIPOS>BOND
   1    1   11 1
   2    1   15 1
   3    1   16 1
   4    1    4 1
   5    2   17 1
   6    2   18 1
   7    2    9 1
   8    2   13 1
   9    3   11 1
  10    3   19 1
  11    3   20 1
  12    3    5 1
  13    4   21 1
  14    4   22 1
  15    4   12 1
  16    5   23 1
  17    5   24 1
  18    5   12 1
  19    6    8 1
  20    6   25 1
  21    6   26 1
  22    6   11 1
  23    7   12 1
  24    7   27 1
  25    7   28 1
  26    7   10 1
  27    8   29 1
  28    8   30 1
  29    8    9 1
  30    9   31 1
  31    9   32 1
  32   10   14 1
  33   10   33 1
  34   10   34 1
  35   13   35 1
  36   13   36 1
  37   14   37 1

#	End of record

