#	Name: ASD13490027
#	Creating user name:	WinNT
#	Creation time:	15. 06. 2019 21:30

#	Modifying user name:	WinNT
#	Modification time:	15. 06. 2019 21:30

#	Program:	/corina/corina34_cracker 3.40 0067  02.08.2006

@<TRIPOS>MOLECULE
ASD13490027
  61   65    0    0    0
SMALL
NO_CHARGES


@<TRIPOS>ATOM
   1 N1             2.3215     1.4285     0.1309 N.ar    
   2 C2             2.4407     0.1116     0.1464 C.ar    
   3 C3             1.3116    -0.7032     0.1975 C.ar    
   4 C4             0.0525    -0.1143     0.2326 C.ar    
   5 C5            -0.0315     1.2681     0.2155 C.ar    
   6 C6             1.1359     2.0191     0.1635 C.ar    
   7 N7             1.4436    -2.1020     0.2127 N.pl3   
   8 C8             0.8444    -2.9661     1.0913 C.2     
   9 C9             1.2407    -4.2072     0.7485 C.2     
  10 N10            2.0588    -4.1051    -0.3094 N.2     
  11 C11            2.1811    -2.8481    -0.6403 C.2     
  12 C12            0.8358    -5.4866     1.4341 C.3     
  13 O13            3.6749    -0.4519     0.1117 O.3     
  14 C14            4.7926     0.4370     0.0594 C.3     
  15 N15            1.0592     3.4099     0.1459 N.pl3   
  16 C16            2.2185     4.1695     0.2116 C.ar    
  17 N17            3.3772     3.5570     0.3973 N.ar    
  18 N18            2.1323     5.4859     0.0809 N.ar    
  19 C19            4.4620     5.6212     0.3434 C.ar    
  20 C20            4.5100     4.2456     0.4681 C.ar    
  21 C21            3.2232     6.2403     0.1394 C.ar    
  22 N22            3.1428     7.6141    -0.0013 N.3     
  23 C23            4.1244     8.3108     0.8316 C.3     
  24 C24            5.4983     7.7268     0.6430 C.2     
  25 N25            5.6274     6.3990     0.4157 N.am    
  26 C26            4.1427     9.8071     0.4817 C.3     
  27 C27            3.7456    10.5634     1.7668 C.3     
  28 C28            4.1027     9.5821     2.9111 C.3     
  29 C29            3.7178     8.2052     2.3140 C.3     
  30 O30            6.4794     8.4385     0.6936 O.2     
  31 C31            6.9491     5.7906     0.2443 C.3     
  32 C32            7.3362     5.8203    -1.2356 C.3     
  33 C33            1.7821     8.0930     0.2766 C.3     
  34 F34            7.3714     7.1458    -1.6819 F       
  35 F35            8.5983     5.2394    -1.3993 F       
  36 F36            6.3927     5.1030    -1.9789 F       
  37 H37           -0.8400    -0.7212     0.2721 H       
  38 H38           -0.9942     1.7568     0.2414 H       
  39 H39            0.1820    -2.7028     1.9027 H       
  40 H40            2.7752    -2.4671    -1.4579 H       
  41 H41           -0.0683    -5.8783     0.9680 H       
  42 H42            1.6385    -6.2182     1.3414 H       
  43 H43            0.6445    -5.2888     2.4888 H       
  44 H44            4.7882     1.0785     0.9406 H       
  45 H45            5.7161    -0.1415     0.0358 H       
  46 H46            4.7261     1.0520    -0.8380 H       
  47 H47            0.1954     3.8473     0.0878 H       
  48 H48            5.4520     3.7400     0.6208 H       
  49 H49            5.1429    10.1050     0.1668 H       
  50 H50            3.4238    10.0142    -0.3110 H       
  51 H51            4.3210    11.4844     1.8607 H       
  52 H52            2.6770    10.7783     1.7682 H       
  53 H53            5.1687     9.6216     3.1351 H       
  54 H54            3.5116     9.7958     3.8016 H       
  55 H55            2.6447     8.0366     2.4043 H       
  56 H56            4.2734     7.4070     2.8063 H       
  57 H57            7.6842     6.3495     0.8234 H       
  58 H58            6.9216     4.7579     0.5920 H       
  59 H59            1.4605     7.7278     1.2519 H       
  60 H60            1.7733     9.1830     0.2758 H       
  61 H61            1.1030     7.7236    -0.4918 H       
@<TRIPOS>BOND
   1    1    2 ar
   2    1    6 ar
   3    2    3 ar
   4    2   13 1
   5    3    4 ar
   6    3    7 1
   7    4    5 ar
   8    4   37 1
   9    5    6 ar
  10    5   38 1
  11    6   15 1
  12    7    8 1
  13    7   11 1
  14    8    9 2
  15    8   39 1
  16    9   10 1
  17    9   12 1
  18   10   11 2
  19   11   40 1
  20   12   41 1
  21   12   42 1
  22   12   43 1
  23   13   14 1
  24   14   44 1
  25   14   45 1
  26   14   46 1
  27   15   16 1
  28   15   47 1
  29   16   18 ar
  30   16   17 ar
  31   17   20 ar
  32   18   21 ar
  33   19   20 ar
  34   19   25 1
  35   19   21 ar
  36   20   48 1
  37   21   22 1
  38   22   23 1
  39   22   33 1
  40   23   24 1
  41   23   26 1
  42   23   29 1
  43   24   25 am
  44   24   30 2
  45   25   31 1
  46   26   27 1
  47   26   49 1
  48   26   50 1
  49   27   28 1
  50   27   51 1
  51   27   52 1
  52   28   29 1
  53   28   53 1
  54   28   54 1
  55   29   55 1
  56   29   56 1
  57   31   32 1
  58   31   57 1
  59   31   58 1
  60   32   34 1
  61   32   35 1
  62   32   36 1
  63   33   59 1
  64   33   60 1
  65   33   61 1

#	End of record

