#	Name: ASD11000264
#	Creating user name:	WinNT
#	Creation time:	15. 06. 2019 21:29

#	Modifying user name:	WinNT
#	Modification time:	15. 06. 2019 21:29

#	Program:	/corina/corina34_cracker 3.40 0067  02.08.2006

@<TRIPOS>MOLECULE
ASD11000264
  49   53    0    0    0
SMALL
NO_CHARGES


@<TRIPOS>ATOM
   1 N1            -0.0178     1.4608     0.0101 N.pl3   
   2 C2            -6.0098    -5.5769     1.5868 C.ar    
   3 N3            -2.8852    -4.3871    -1.0975 N.2     
   4 C4            -4.9267    -8.0983     1.2508 C.ar    
   5 C5            -4.8502    -7.1713     0.2282 C.ar    
   6 C6            -4.0399    -4.0985    -0.5762 C.2     
   7 C7             0.1127    -0.5390     1.4447 C.3     
   8 C8             3.4769     2.2040    -0.0189 C.ar    
   9 C9            -5.3082    -4.9000    -0.7185 C.3     
  10 N10            2.1345     5.5770     0.0020 N.pl3   
  11 C11            0.1669     4.5691     0.0256 C.2     
  12 C12            1.1687     2.1675     0.0025 C.ar    
  13 C13            2.4106     4.2421    -0.0029 C.ar    
  14 C14           -5.6387    -8.7791     3.5518 C.3     
  15 C15           -5.5553    -7.7686     2.4370 C.ar    
  16 C16           -6.0916    -6.5059     2.6072 C.ar    
  17 C17           -5.3915    -5.9105     0.3963 C.ar    
  18 N18           -3.8954    -2.9531     0.1137 N.2     
  19 C19           -2.6386    -2.6089    -0.0330 C.2     
  20 O20           -2.0664    -3.5439    -0.7974 O.3     
  21 C21           -1.9677    -1.3914     0.5489 C.3     
  22 C22           -0.7776    -1.8065     1.4492 C.3     
  23 C23            0.0021    -0.0041     0.0020 C.3     
  24 C24           -1.3207    -0.5460    -0.5675 C.3     
  25 C25            1.1696     3.5756     0.0106 C.ar    
  26 N26            0.7432     5.7372     0.0186 N.2     
  27 N27            3.5285     3.5181    -0.0172 N.ar    
  28 N28            2.3373     1.5355    -0.0120 N.ar    
  29 H29           -0.8643     1.9343     0.0247 H       
  30 H30           -6.4327    -4.5919     1.7182 H       
  31 H31           -4.5037    -9.0833     1.1194 H       
  32 H32           -4.3597    -7.4291    -0.6988 H       
  33 H33           -0.2668     0.1962     2.1543 H       
  34 H34            1.1457    -0.7976     1.6776 H       
  35 H35            4.4033     1.6490    -0.0307 H       
  36 H36           -6.1679    -4.2317    -0.6682 H       
  37 H37           -5.3055    -5.4169    -1.6781 H       
  38 H38            2.7891     6.2929    -0.0043 H       
  39 H39           -0.8982     4.3909     0.0377 H       
  40 H40           -4.7666    -8.6799     4.1981 H       
  41 H41           -6.5438    -8.6045     4.1335 H       
  42 H42           -5.6661    -9.7839     3.1301 H       
  43 H43           -6.5749    -6.2454     3.5372 H       
  44 H44           -2.6831    -0.7938     1.1139 H       
  45 H45           -0.2448    -2.6543     1.0186 H       
  46 H46           -1.1185    -2.0355     2.4589 H       
  47 H47            0.8410    -0.3626    -0.5945 H       
  48 H48           -1.1241    -1.1682    -1.4407 H       
  49 H49           -1.9774     0.2808    -0.8380 H       
@<TRIPOS>BOND
   1    1   23 1
   2    1   12 1
   3    1   29 1
   4    2   17 ar
   5    2   30 1
   6    2   16 ar
   7    3    6 2
   8    3   20 1
   9    4    5 ar
  10    4   31 1
  11    4   15 ar
  12    5   17 ar
  13    5   32 1
  14    6    9 1
  15    6   18 1
  16    7   22 1
  17    7   23 1
  18    7   33 1
  19    7   34 1
  20    8   35 1
  21    8   27 ar
  22    8   28 ar
  23    9   36 1
  24    9   37 1
  25    9   17 1
  26   10   13 1
  27   10   38 1
  28   10   26 1
  29   11   26 2
  30   11   25 1
  31   11   39 1
  32   12   28 ar
  33   12   25 ar
  34   13   27 ar
  35   13   25 ar
  36   14   15 1
  37   14   40 1
  38   14   41 1
  39   14   42 1
  40   15   16 ar
  41   16   43 1
  42   18   19 2
  43   19   20 1
  44   19   21 1
  45   21   22 1
  46   21   24 1
  47   21   44 1
  48   22   45 1
  49   22   46 1
  50   23   47 1
  51   23   24 1
  52   24   48 1
  53   24   49 1

#	End of record

